data_image0
_cell_length_a       29.808
_cell_length_b       8.2874
_cell_length_c       16.608
_cell_angle_alpha    90
_cell_angle_beta     116.24
_cell_angle_gamma    90

_symmetry_space_group_name_H-M    "P 1"
_symmetry_int_tables_number       1

loop_
  _symmetry_equiv_pos_as_xyz
  'x, y, z'

loop_
  _atom_site_label
  _atom_site_occupancy
  _atom_site_fract_x
  _atom_site_fract_y
  _atom_site_fract_z
  _atom_site_thermal_displace_type
  _atom_site_B_iso_or_equiv
  _atom_site_type_symbol
  C1       1.0000 0.17830  0.76080  0.45810  Biso   1.000  C
  C2       1.0000 0.67830  0.26080  0.45810  Biso   1.000  C
  C3       1.0000 0.82170  0.76080  0.04190  Biso   1.000  C
  C4       1.0000 0.32170  0.26080  0.04190  Biso   1.000  C
  C5       1.0000 0.82170  0.23920  0.54190  Biso   1.000  C
  C6       1.0000 0.32170  0.73920  0.54190  Biso   1.000  C
  C7       1.0000 0.17830  0.23920  0.95810  Biso   1.000  C
  C8       1.0000 0.67830  0.73920  0.95810  Biso   1.000  C
  C9       1.0000 0.23331  0.76480  0.51480  Biso   1.000  C
  C10      1.0000 0.73331  0.26480  0.51480  Biso   1.000  C
  C11      1.0000 0.76669  0.76480  0.98520  Biso   1.000  C
  C12      1.0000 0.26669  0.26480  0.98520  Biso   1.000  C
  C13      1.0000 0.76669  0.23520  0.48520  Biso   1.000  C
  C14      1.0000 0.26669  0.73520  0.48520  Biso   1.000  C
  C15      1.0000 0.23331  0.23520  0.01480  Biso   1.000  C
  C16      1.0000 0.73331  0.73520  0.01480  Biso   1.000  C
  H1       1.0000 0.24510  0.79030  0.57660  Biso   1.000  H
  H2       1.0000 0.74510  0.29030  0.57660  Biso   1.000  H
  H3       1.0000 0.75490  0.79030  0.92340  Biso   1.000  H
  H4       1.0000 0.25490  0.29030  0.92340  Biso   1.000  H
  H5       1.0000 0.75490  0.20970  0.42340  Biso   1.000  H
  H6       1.0000 0.25490  0.70970  0.42340  Biso   1.000  H
  H7       1.0000 0.24510  0.20970  0.07660  Biso   1.000  H
  H8       1.0000 0.74510  0.70970  0.07660  Biso   1.000  H
  C17      1.0000 0.04167  0.56760  0.12150  Biso   1.000  C
  C18      1.0000 0.54167  0.06760  0.12150  Biso   1.000  C
  C19      1.0000 0.95833  0.56760  0.37850  Biso   1.000  C
  C20      1.0000 0.45833  0.06760  0.37850  Biso   1.000  C
  C21      1.0000 0.95833  0.43240  0.87850  Biso   1.000  C
  C22      1.0000 0.45833  0.93240  0.87850  Biso   1.000  C
  C23      1.0000 0.04167  0.43240  0.62150  Biso   1.000  C
  C24      1.0000 0.54167  0.93240  0.62150  Biso   1.000  C
  C25      1.0000 0.99774  0.52690  0.03520  Biso   1.000  C
  C26      1.0000 0.49774  0.02690  0.03520  Biso   1.000  C
  C27      1.0000 0.00226  0.52690  0.46480  Biso   1.000  C
  C28      1.0000 0.50226  0.02690  0.46480  Biso   1.000  C
  C29      1.0000 0.00226  0.47310  0.96480  Biso   1.000  C
  C30      1.0000 0.50226  0.97310  0.96480  Biso   1.000  C
  C31      1.0000 0.99774  0.47310  0.53520  Biso   1.000  C
  C32      1.0000 0.49774  0.97310  0.53520  Biso   1.000  C
  H9       1.0000 0.96510  0.54050  0.03100  Biso   1.000  H
  H10      1.0000 0.46510  0.04050  0.03100  Biso   1.000  H
  H11      1.0000 0.03490  0.54050  0.46900  Biso   1.000  H
  H12      1.0000 0.53490  0.04050  0.46900  Biso   1.000  H
  H13      1.0000 0.03490  0.45950  0.96900  Biso   1.000  H
  H14      1.0000 0.53490  0.95950  0.96900  Biso   1.000  H
  H15      1.0000 0.96510  0.45950  0.53100  Biso   1.000  H
  H16      1.0000 0.46510  0.95950  0.53100  Biso   1.000  H
  C33      1.0000 0.11950  0.43130  0.42840  Biso   1.000  C
  C34      1.0000 0.61950  0.93130  0.42840  Biso   1.000  C
  C35      1.0000 0.88050  0.43130  0.07160  Biso   1.000  C
  C36      1.0000 0.38050  0.93130  0.07160  Biso   1.000  C
  C37      1.0000 0.88050  0.56870  0.57160  Biso   1.000  C
  C38      1.0000 0.38050  0.06870  0.57160  Biso   1.000  C
  C39      1.0000 0.11950  0.56870  0.92840  Biso   1.000  C
  C40      1.0000 0.61950  0.06870  0.92840  Biso   1.000  C
  H17      1.0000 0.14150  0.50120  0.47410  Biso   1.000  H
  H18      1.0000 0.64150  0.00120  0.47410  Biso   1.000  H
  H19      1.0000 0.85850  0.50120  0.02590  Biso   1.000  H
  H20      1.0000 0.35850  0.00120  0.02590  Biso   1.000  H
  H21      1.0000 0.85850  0.49880  0.52590  Biso   1.000  H
  H22      1.0000 0.35850  0.99880  0.52590  Biso   1.000  H
  H23      1.0000 0.14150  0.49880  0.97410  Biso   1.000  H
  H24      1.0000 0.64150  0.99880  0.97410  Biso   1.000  H
  C41      1.0000 0.07720  0.21790  0.36050  Biso   1.000  C
  C42      1.0000 0.57720  0.71790  0.36050  Biso   1.000  C
  C43      1.0000 0.92280  0.21790  0.13950  Biso   1.000  C
  C44      1.0000 0.42280  0.71790  0.13950  Biso   1.000  C
  C45      1.0000 0.92280  0.78210  0.63950  Biso   1.000  C
  C46      1.0000 0.42280  0.28210  0.63950  Biso   1.000  C
  C47      1.0000 0.07720  0.78210  0.86050  Biso   1.000  C
  C48      1.0000 0.57720  0.28210  0.86050  Biso   1.000  C
  H25      1.0000 0.06390  0.11170  0.34860  Biso   1.000  H
  H26      1.0000 0.56390  0.61170  0.34860  Biso   1.000  H
  H27      1.0000 0.93610  0.11170  0.15140  Biso   1.000  H
  H28      1.0000 0.43610  0.61170  0.15140  Biso   1.000  H
  H29      1.0000 0.93610  0.88830  0.65140  Biso   1.000  H
  H30      1.0000 0.43610  0.38830  0.65140  Biso   1.000  H
  H31      1.0000 0.06390  0.88830  0.84860  Biso   1.000  H
  H32      1.0000 0.56390  0.38830  0.84860  Biso   1.000  H
  C49      1.0000 0.06670  0.33840  0.30150  Biso   1.000  C
  C50      1.0000 0.56670  0.83840  0.30150  Biso   1.000  C
  C51      1.0000 0.93330  0.33840  0.19850  Biso   1.000  C
  C52      1.0000 0.43330  0.83840  0.19850  Biso   1.000  C
  C53      1.0000 0.93330  0.66160  0.69850  Biso   1.000  C
  C54      1.0000 0.43330  0.16160  0.69850  Biso   1.000  C
  C55      1.0000 0.06670  0.66160  0.80150  Biso   1.000  C
  C56      1.0000 0.56670  0.16160  0.80150  Biso   1.000  C
  H33      1.0000 0.04400  0.33150  0.23960  Biso   1.000  H
  H34      1.0000 0.54400  0.83150  0.23960  Biso   1.000  H
  H35      1.0000 0.95600  0.33150  0.26040  Biso   1.000  H
  H36      1.0000 0.45600  0.83150  0.26040  Biso   1.000  H
  H37      1.0000 0.95600  0.66850  0.76040  Biso   1.000  H
  H38      1.0000 0.45600  0.16850  0.76040  Biso   1.000  H
  H39      1.0000 0.04400  0.66850  0.73960  Biso   1.000  H
  H40      1.0000 0.54400  0.16850  0.73960  Biso   1.000  H
  C57      1.0000 0.12965  0.19370  0.52850  Biso   1.000  C
  C58      1.0000 0.62965  0.69370  0.52850  Biso   1.000  C
  C59      1.0000 0.87035  0.19370  0.97150  Biso   1.000  C
  C60      1.0000 0.37035  0.69370  0.97150  Biso   1.000  C
  C61      1.0000 0.87035  0.80630  0.47150  Biso   1.000  C
  C62      1.0000 0.37035  0.30630  0.47150  Biso   1.000  C
  C63      1.0000 0.12965  0.80630  0.02850  Biso   1.000  C
  C64      1.0000 0.62965  0.30630  0.02850  Biso   1.000  C
  H41      1.0000 0.12580  0.07590  0.51770  Biso   1.000  H
  H42      1.0000 0.62580  0.57590  0.51770  Biso   1.000  H
  H43      1.0000 0.87420  0.07590  0.98230  Biso   1.000  H
  H44      1.0000 0.37420  0.57590  0.98230  Biso   1.000  H
  H45      1.0000 0.87420  0.92410  0.48230  Biso   1.000  H
  H46      1.0000 0.37420  0.42410  0.48230  Biso   1.000  H
  H47      1.0000 0.12580  0.92410  0.01770  Biso   1.000  H
  H48      1.0000 0.62580  0.42410  0.01770  Biso   1.000  H
  H49      1.0000 0.10880  0.22520  0.55870  Biso   1.000  H
  H50      1.0000 0.60880  0.72520  0.55870  Biso   1.000  H
  H51      1.0000 0.89120  0.22520  0.94130  Biso   1.000  H
  H52      1.0000 0.39120  0.72520  0.94130  Biso   1.000  H
  H53      1.0000 0.89120  0.77480  0.44130  Biso   1.000  H
  H54      1.0000 0.39120  0.27480  0.44130  Biso   1.000  H
  H55      1.0000 0.10880  0.77480  0.05870  Biso   1.000  H
  H56      1.0000 0.60880  0.27480  0.05870  Biso   1.000  H
  C65      1.0000 0.18370  0.22990  0.59030  Biso   1.000  C
  C66      1.0000 0.68370  0.72990  0.59030  Biso   1.000  C
  C67      1.0000 0.81630  0.22990  0.90970  Biso   1.000  C
  C68      1.0000 0.31630  0.72990  0.90970  Biso   1.000  C
  C69      1.0000 0.81630  0.77010  0.40970  Biso   1.000  C
  C70      1.0000 0.31630  0.27010  0.40970  Biso   1.000  C
  C71      1.0000 0.18370  0.77010  0.09030  Biso   1.000  C
  C72      1.0000 0.68370  0.27010  0.09030  Biso   1.000  C
  C73      1.0000 0.22190  0.16710  0.57460  Biso   1.000  C
  C74      1.0000 0.72190  0.66710  0.57460  Biso   1.000  C
  C75      1.0000 0.77810  0.16710  0.92540  Biso   1.000  C
  C76      1.0000 0.27810  0.66710  0.92540  Biso   1.000  C
  C77      1.0000 0.77810  0.83290  0.42540  Biso   1.000  C
  C78      1.0000 0.27810  0.33290  0.42540  Biso   1.000  C
  C79      1.0000 0.22190  0.83290  0.07460  Biso   1.000  C
  C80      1.0000 0.72190  0.33290  0.07460  Biso   1.000  C
  H57      1.0000 0.21430  0.11410  0.51930  Biso   1.000  H
  H58      1.0000 0.71430  0.61410  0.51930  Biso   1.000  H
  H59      1.0000 0.78570  0.11410  0.98070  Biso   1.000  H
  H60      1.0000 0.28570  0.61410  0.98070  Biso   1.000  H
  H61      1.0000 0.78570  0.88590  0.48070  Biso   1.000  H
  H62      1.0000 0.28570  0.38590  0.48070  Biso   1.000  H
  H63      1.0000 0.21430  0.88590  0.01930  Biso   1.000  H
  H64      1.0000 0.71430  0.38590  0.01930  Biso   1.000  H
  C81      1.0000 0.27154  0.18010  0.63830  Biso   1.000  C
  C82      1.0000 0.77154  0.68010  0.63830  Biso   1.000  C
  C83      1.0000 0.72846  0.18010  0.86170  Biso   1.000  C
  C84      1.0000 0.22846  0.68010  0.86170  Biso   1.000  C
  C85      1.0000 0.72846  0.81990  0.36170  Biso   1.000  C
  C86      1.0000 0.22846  0.31990  0.36170  Biso   1.000  C
  C87      1.0000 0.27154  0.81990  0.13830  Biso   1.000  C
  C88      1.0000 0.77154  0.31990  0.13830  Biso   1.000  C
  H65      1.0000 0.29730  0.13480  0.62630  Biso   1.000  H
  H66      1.0000 0.79730  0.63480  0.62630  Biso   1.000  H
  H67      1.0000 0.70270  0.13480  0.87370  Biso   1.000  H
  H68      1.0000 0.20270  0.63480  0.87370  Biso   1.000  H
  H69      1.0000 0.70270  0.86520  0.37370  Biso   1.000  H
  H70      1.0000 0.20270  0.36520  0.37370  Biso   1.000  H
  H71      1.0000 0.29730  0.86520  0.12630  Biso   1.000  H
  H72      1.0000 0.79730  0.36520  0.12630  Biso   1.000  H
  C89      1.0000 0.28380  0.25880  0.71920  Biso   1.000  C
  C90      1.0000 0.78380  0.75880  0.71920  Biso   1.000  C
  C91      1.0000 0.71620  0.25880  0.78080  Biso   1.000  C
  C92      1.0000 0.21620  0.75880  0.78080  Biso   1.000  C
  C93      1.0000 0.71620  0.74120  0.28080  Biso   1.000  C
  C94      1.0000 0.21620  0.24120  0.28080  Biso   1.000  C
  C95      1.0000 0.28380  0.74120  0.21920  Biso   1.000  C
  C96      1.0000 0.78380  0.24120  0.21920  Biso   1.000  C
  C97      1.0000 0.24540  0.32930  0.73180  Biso   1.000  C
  C98      1.0000 0.74540  0.82930  0.73180  Biso   1.000  C
  C99      1.0000 0.75460  0.32930  0.76820  Biso   1.000  C
  C100     1.0000 0.25460  0.82930  0.76820  Biso   1.000  C
  C101     1.0000 0.75460  0.67070  0.26820  Biso   1.000  C
  C102     1.0000 0.25460  0.17070  0.26820  Biso   1.000  C
  C103     1.0000 0.24540  0.67070  0.23180  Biso   1.000  C
  C104     1.0000 0.74540  0.17070  0.23180  Biso   1.000  C
  H73      1.0000 0.25320  0.38860  0.78530  Biso   1.000  H
  H74      1.0000 0.75320  0.88860  0.78530  Biso   1.000  H
  H75      1.0000 0.74680  0.38860  0.71470  Biso   1.000  H
  H76      1.0000 0.24680  0.88860  0.71470  Biso   1.000  H
  H77      1.0000 0.74680  0.61140  0.21470  Biso   1.000  H
  H78      1.0000 0.24680  0.11140  0.21470  Biso   1.000  H
  H79      1.0000 0.25320  0.61140  0.28530  Biso   1.000  H
  H80      1.0000 0.75320  0.11140  0.28530  Biso   1.000  H
  C105     1.0000 0.19580  0.31640  0.66880  Biso   1.000  C
  C106     1.0000 0.69580  0.81640  0.66880  Biso   1.000  C
  C107     1.0000 0.80420  0.31640  0.83120  Biso   1.000  C
  C108     1.0000 0.30420  0.81640  0.83120  Biso   1.000  C
  C109     1.0000 0.80420  0.68360  0.33120  Biso   1.000  C
  C110     1.0000 0.30420  0.18360  0.33120  Biso   1.000  C
  C111     1.0000 0.19580  0.68360  0.16880  Biso   1.000  C
  C112     1.0000 0.69580  0.18360  0.16880  Biso   1.000  C
  H81      1.0000 0.17030  0.36660  0.67940  Biso   1.000  H
  H82      1.0000 0.67030  0.86660  0.67940  Biso   1.000  H
  H83      1.0000 0.82970  0.36660  0.82060  Biso   1.000  H
  H84      1.0000 0.32970  0.86660  0.82060  Biso   1.000  H
  H85      1.0000 0.82970  0.63340  0.32060  Biso   1.000  H
  H86      1.0000 0.32970  0.13340  0.32060  Biso   1.000  H
  H87      1.0000 0.17030  0.63340  0.17940  Biso   1.000  H
  H88      1.0000 0.67030  0.13340  0.17940  Biso   1.000  H
  C113     1.0000 0.33590  0.25040  0.79490  Biso   1.000  C
  C114     1.0000 0.83590  0.75040  0.79490  Biso   1.000  C
  C115     1.0000 0.66410  0.25040  0.70510  Biso   1.000  C
  C116     1.0000 0.16410  0.75040  0.70510  Biso   1.000  C
  C117     1.0000 0.66410  0.74960  0.20510  Biso   1.000  C
  C118     1.0000 0.16410  0.24960  0.20510  Biso   1.000  C
  C119     1.0000 0.33590  0.74960  0.29490  Biso   1.000  C
  C120     1.0000 0.83590  0.24960  0.29490  Biso   1.000  C
  H89      1.0000 0.33340  0.24670  0.85230  Biso   1.000  H
  H90      1.0000 0.83340  0.74670  0.85230  Biso   1.000  H
  H91      1.0000 0.66660  0.24670  0.64770  Biso   1.000  H
  H92      1.0000 0.16660  0.74670  0.64770  Biso   1.000  H
  H93      1.0000 0.66660  0.75330  0.14770  Biso   1.000  H
  H94      1.0000 0.16660  0.25330  0.14770  Biso   1.000  H
  H95      1.0000 0.33340  0.75330  0.35230  Biso   1.000  H
  H96      1.0000 0.83340  0.25330  0.35230  Biso   1.000  H
  H97      1.0000 0.35150  0.14810  0.78940  Biso   1.000  H
  H98      1.0000 0.85150  0.64810  0.78940  Biso   1.000  H
  H99      1.0000 0.64850  0.14810  0.71060  Biso   1.000  H
  H100     1.0000 0.14850  0.64810  0.71060  Biso   1.000  H
  H101     1.0000 0.64850  0.85190  0.21060  Biso   1.000  H
  H102     1.0000 0.14850  0.35190  0.21060  Biso   1.000  H
  H103     1.0000 0.35150  0.85190  0.28940  Biso   1.000  H
  H104     1.0000 0.85150  0.35190  0.28940  Biso   1.000  H
  C121     1.0000 0.35890  0.51570  0.74730  Biso   1.000  C
  C122     1.0000 0.85890  0.01570  0.74730  Biso   1.000  C
  C123     1.0000 0.64110  0.51570  0.75270  Biso   1.000  C
  C124     1.0000 0.14110  0.01570  0.75270  Biso   1.000  C
  C125     1.0000 0.64110  0.48430  0.25270  Biso   1.000  C
  C126     1.0000 0.14110  0.98430  0.25270  Biso   1.000  C
  C127     1.0000 0.35890  0.48430  0.24730  Biso   1.000  C
  C128     1.0000 0.85890  0.98430  0.24730  Biso   1.000  C
  H105     1.0000 0.32700  0.54130  0.70030  Biso   1.000  H
  H106     1.0000 0.82700  0.04130  0.70030  Biso   1.000  H
  H107     1.0000 0.67300  0.54130  0.79970  Biso   1.000  H
  H108     1.0000 0.17300  0.04130  0.79970  Biso   1.000  H
  H109     1.0000 0.67300  0.45870  0.29970  Biso   1.000  H
  H110     1.0000 0.17300  0.95870  0.29970  Biso   1.000  H
  H111     1.0000 0.32700  0.45870  0.20030  Biso   1.000  H
  H112     1.0000 0.82700  0.95870  0.20030  Biso   1.000  H
  C129     1.0000 0.43670  0.52480  0.84030  Biso   1.000  C
  C130     1.0000 0.93670  0.02480  0.84030  Biso   1.000  C
  C131     1.0000 0.56330  0.52480  0.65970  Biso   1.000  C
  C132     1.0000 0.06330  0.02480  0.65970  Biso   1.000  C
  C133     1.0000 0.56330  0.47520  0.15970  Biso   1.000  C
  C134     1.0000 0.06330  0.97520  0.15970  Biso   1.000  C
  C135     1.0000 0.43670  0.47520  0.34030  Biso   1.000  C
  C136     1.0000 0.93670  0.97520  0.34030  Biso   1.000  C
  H113     1.0000 0.47050  0.55940  0.87100  Biso   1.000  H
  H114     1.0000 0.97050  0.05940  0.87100  Biso   1.000  H
  H115     1.0000 0.52950  0.55940  0.62900  Biso   1.000  H
  H116     1.0000 0.02950  0.05940  0.62900  Biso   1.000  H
  H117     1.0000 0.52950  0.44060  0.12900  Biso   1.000  H
  H118     1.0000 0.02950  0.94060  0.12900  Biso   1.000  H
  H119     1.0000 0.47050  0.44060  0.37100  Biso   1.000  H
  H120     1.0000 0.97050  0.94060  0.37100  Biso   1.000  H
  C137     1.0000 0.41810  0.38810  0.85840  Biso   1.000  C
  C138     1.0000 0.91810  0.88810  0.85840  Biso   1.000  C
  C139     1.0000 0.58190  0.38810  0.64160  Biso   1.000  C
  C140     1.0000 0.08190  0.88810  0.64160  Biso   1.000  C
  C141     1.0000 0.58190  0.61190  0.14160  Biso   1.000  C
  C142     1.0000 0.08190  0.11190  0.14160  Biso   1.000  C
  C143     1.0000 0.41810  0.61190  0.35840  Biso   1.000  C
  C144     1.0000 0.91810  0.11190  0.35840  Biso   1.000  C
  H121     1.0000 0.43590  0.31110  0.90380  Biso   1.000  H
  H122     1.0000 0.93590  0.81110  0.90380  Biso   1.000  H
  H123     1.0000 0.56410  0.31110  0.59620  Biso   1.000  H
  H124     1.0000 0.06410  0.81110  0.59620  Biso   1.000  H
  H125     1.0000 0.56410  0.68890  0.09620  Biso   1.000  H
  H126     1.0000 0.06410  0.18890  0.09620  Biso   1.000  H
  H127     1.0000 0.43590  0.68890  0.40380  Biso   1.000  H
  H128     1.0000 0.93590  0.18890  0.40380  Biso   1.000  H
  N1       1.0000 0.09345  0.47350  0.34350  Biso   1.000  N
  N2       1.0000 0.59345  0.97350  0.34350  Biso   1.000  N
  N3       1.0000 0.90655  0.47350  0.15650  Biso   1.000  N
  N4       1.0000 0.40655  0.97350  0.15650  Biso   1.000  N
  N5       1.0000 0.90655  0.52650  0.65650  Biso   1.000  N
  N6       1.0000 0.40655  0.02650  0.65650  Biso   1.000  N
  N7       1.0000 0.09345  0.52650  0.84350  Biso   1.000  N
  N8       1.0000 0.59345  0.02650  0.84350  Biso   1.000  N
  N9       1.0000 0.11091  0.27730  0.44150  Biso   1.000  N
  N10      1.0000 0.61091  0.77730  0.44150  Biso   1.000  N
  N11      1.0000 0.88909  0.27730  0.05850  Biso   1.000  N
  N12      1.0000 0.38909  0.77730  0.05850  Biso   1.000  N
  N13      1.0000 0.88909  0.72270  0.55850  Biso   1.000  N
  N14      1.0000 0.38909  0.22270  0.55850  Biso   1.000  N
  N15      1.0000 0.11091  0.72270  0.94150  Biso   1.000  N
  N16      1.0000 0.61091  0.22270  0.94150  Biso   1.000  N
  N17      1.0000 0.36895  0.38300  0.79900  Biso   1.000  N
  N18      1.0000 0.86895  0.88300  0.79900  Biso   1.000  N
  N19      1.0000 0.63105  0.38300  0.70100  Biso   1.000  N
  N20      1.0000 0.13105  0.88300  0.70100  Biso   1.000  N
  N21      1.0000 0.63105  0.61700  0.20100  Biso   1.000  N
  N22      1.0000 0.13105  0.11700  0.20100  Biso   1.000  N
  N23      1.0000 0.36895  0.61700  0.29900  Biso   1.000  N
  N24      1.0000 0.86895  0.11700  0.29900  Biso   1.000  N
  N25      1.0000 0.39945  0.60600  0.77070  Biso   1.000  N
  N26      1.0000 0.89945  0.10600  0.77070  Biso   1.000  N
  N27      1.0000 0.60055  0.60600  0.72930  Biso   1.000  N
  N28      1.0000 0.10055  0.10600  0.72930  Biso   1.000  N
  N29      1.0000 0.60055  0.39400  0.22930  Biso   1.000  N
  N30      1.0000 0.10055  0.89400  0.22930  Biso   1.000  N
  N31      1.0000 0.39945  0.39400  0.27070  Biso   1.000  N
  N32      1.0000 0.89945  0.89400  0.27070  Biso   1.000  N
  O1       1.0000 0.05388  0.82120  0.36000  Biso   1.000  O
  O2       1.0000 0.55388  0.32120  0.36000  Biso   1.000  O
  O3       1.0000 0.94612  0.82120  0.14000  Biso   1.000  O
  O4       1.0000 0.44612  0.32120  0.14000  Biso   1.000  O
  O5       1.0000 0.94612  0.17880  0.64000  Biso   1.000  O
  O6       1.0000 0.44612  0.67880  0.64000  Biso   1.000  O
  O7       1.0000 0.05388  0.17880  0.86000  Biso   1.000  O
  O8       1.0000 0.55388  0.67880  0.86000  Biso   1.000  O
  H129     1.0000 0.07810  0.80900  0.41090  Biso   1.000  H
  H130     1.0000 0.57810  0.30900  0.41090  Biso   1.000  H
  H131     1.0000 0.92190  0.80900  0.08910  Biso   1.000  H
  H132     1.0000 0.42190  0.30900  0.08910  Biso   1.000  H
  H133     1.0000 0.92190  0.19100  0.58910  Biso   1.000  H
  H134     1.0000 0.42190  0.69100  0.58910  Biso   1.000  H
  H135     1.0000 0.07810  0.19100  0.91090  Biso   1.000  H
  H136     1.0000 0.57810  0.69100  0.91090  Biso   1.000  H
  H137     1.0000 0.03260  0.75800  0.36300  Biso   1.000  H
  H138     1.0000 0.53260  0.25800  0.36300  Biso   1.000  H
  H139     1.0000 0.96740  0.75800  0.13700  Biso   1.000  H
  H140     1.0000 0.46740  0.25800  0.13700  Biso   1.000  H
  H141     1.0000 0.96740  0.24200  0.63700  Biso   1.000  H
  H142     1.0000 0.46740  0.74200  0.63700  Biso   1.000  H
  H143     1.0000 0.03260  0.24200  0.86300  Biso   1.000  H
  H144     1.0000 0.53260  0.74200  0.86300  Biso   1.000  H
  O9       1.0000 0.16414  0.71810  0.37700  Biso   1.000  O
  O10      1.0000 0.66414  0.21810  0.37700  Biso   1.000  O
  O11      1.0000 0.83586  0.71810  0.12300  Biso   1.000  O
  O12      1.0000 0.33586  0.21810  0.12300  Biso   1.000  O
  O13      1.0000 0.83586  0.28190  0.62300  Biso   1.000  O
  O14      1.0000 0.33586  0.78190  0.62300  Biso   1.000  O
  O15      1.0000 0.16414  0.28190  0.87700  Biso   1.000  O
  O16      1.0000 0.66414  0.78190  0.87700  Biso   1.000  O
  O17      1.0000 0.15036  0.79670  0.49320  Biso   1.000  O
  O18      1.0000 0.65036  0.29670  0.49320  Biso   1.000  O
  O19      1.0000 0.84964  0.79670  0.00680  Biso   1.000  O
  O20      1.0000 0.34964  0.29670  0.00680  Biso   1.000  O
  O21      1.0000 0.84964  0.20330  0.50680  Biso   1.000  O
  O22      1.0000 0.34964  0.70330  0.50680  Biso   1.000  O
  O23      1.0000 0.15036  0.20330  0.99320  Biso   1.000  O
  O24      1.0000 0.65036  0.70330  0.99320  Biso   1.000  O
  O25      1.0000 0.03129  0.63780  0.18020  Biso   1.000  O
  O26      1.0000 0.53129  0.13780  0.18020  Biso   1.000  O
  O27      1.0000 0.96871  0.63780  0.31980  Biso   1.000  O
  O28      1.0000 0.46871  0.13780  0.31980  Biso   1.000  O
  O29      1.0000 0.96871  0.36220  0.81980  Biso   1.000  O
  O30      1.0000 0.46871  0.86220  0.81980  Biso   1.000  O
  O31      1.0000 0.03129  0.36220  0.68020  Biso   1.000  O
  O32      1.0000 0.53129  0.86220  0.68020  Biso   1.000  O
  O33      1.0000 0.08454  0.53570  0.13230  Biso   1.000  O
  O34      1.0000 0.58454  0.03570  0.13230  Biso   1.000  O
  O35      1.0000 0.91546  0.53570  0.36770  Biso   1.000  O
  O36      1.0000 0.41546  0.03570  0.36770  Biso   1.000  O
  O37      1.0000 0.91546  0.46430  0.86770  Biso   1.000  O
  O38      1.0000 0.41546  0.96430  0.86770  Biso   1.000  O
  O39      1.0000 0.08454  0.46430  0.63230  Biso   1.000  O
  O40      1.0000 0.58454  0.96430  0.63230  Biso   1.000  O
  Cu1      1.0000 0.09482  0.68876  0.28746  Biso   1.000  Cu
  Cu2      1.0000 0.59482  0.18876  0.28746  Biso   1.000  Cu
  Cu3      1.0000 0.90518  0.68876  0.21254  Biso   1.000  Cu
  Cu4      1.0000 0.40518  0.18876  0.21254  Biso   1.000  Cu
  Cu5      1.0000 0.90518  0.31124  0.71254  Biso   1.000  Cu
  Cu6      1.0000 0.40518  0.81124  0.71254  Biso   1.000  Cu
  Cu7      1.0000 0.09482  0.31124  0.78746  Biso   1.000  Cu
  Cu8      1.0000 0.59482  0.81124  0.78746  Biso   1.000  Cu
