data_image0
_cell_length_a       14.584
_cell_length_b       7.216
_cell_length_c       19.924
_cell_angle_alpha    90
_cell_angle_beta     109.39
_cell_angle_gamma    90

_symmetry_space_group_name_H-M    "P 1"
_symmetry_int_tables_number       1

loop_
  _symmetry_equiv_pos_as_xyz
  'x, y, z'

loop_
  _atom_site_label
  _atom_site_occupancy
  _atom_site_fract_x
  _atom_site_fract_y
  _atom_site_fract_z
  _atom_site_thermal_displace_type
  _atom_site_B_iso_or_equiv
  _atom_site_type_symbol
  Cu1      1.0000 0.76011  0.24514  0.03006  Biso   1.000  Cu
  Cu2      1.0000 0.23989  0.74514  0.46994  Biso   1.000  Cu
  Cu3      1.0000 0.23989  0.75486  0.96994  Biso   1.000  Cu
  Cu4      1.0000 0.76011  0.25486  0.53006  Biso   1.000  Cu
  N1       1.0000 0.64100  0.27420  0.06010  Biso   1.000  N
  N2       1.0000 0.35900  0.77420  0.43990  Biso   1.000  N
  N3       1.0000 0.35900  0.72580  0.93990  Biso   1.000  N
  N4       1.0000 0.64100  0.22580  0.56010  Biso   1.000  N
  N5       1.0000 0.65880  0.21450  0.93510  Biso   1.000  N
  N6       1.0000 0.34120  0.71450  0.56490  Biso   1.000  N
  N7       1.0000 0.34120  0.78550  0.06490  Biso   1.000  N
  N8       1.0000 0.65880  0.28550  0.43510  Biso   1.000  N
  N9       1.0000 0.86630  0.25670  0.98920  Biso   1.000  N
  N10      1.0000 0.13370  0.75670  0.51080  Biso   1.000  N
  N11      1.0000 0.13370  0.74330  0.01080  Biso   1.000  N
  N12      1.0000 0.86630  0.24330  0.48920  Biso   1.000  N
  N13      1.0000 0.87410  0.22500  0.12130  Biso   1.000  N
  N14      1.0000 0.12590  0.72500  0.37870  Biso   1.000  N
  N15      1.0000 0.12590  0.77500  0.87870  Biso   1.000  N
  N16      1.0000 0.87410  0.27500  0.62130  Biso   1.000  N
  O1       1.0000 0.77640  0.10600  0.80200  Biso   1.000  O
  O2       1.0000 0.22360  0.60600  0.69800  Biso   1.000  O
  O3       1.0000 0.22360  0.89400  0.19800  Biso   1.000  O
  O4       1.0000 0.77640  0.39400  0.30200  Biso   1.000  O
  O5       1.0000 0.80780  0.98200  0.90330  Biso   1.000  O
  O6       1.0000 0.19220  0.48200  0.59670  Biso   1.000  O
  O7       1.0000 0.19220  0.01800  0.09670  Biso   1.000  O
  O8       1.0000 0.80780  0.51800  0.40330  Biso   1.000  O
  Cl1      1.0000 0.81367  0.73790  0.04285  Biso   1.000  Cl
  Cl2      1.0000 0.18633  0.23790  0.45715  Biso   1.000  Cl
  Cl3      1.0000 0.18633  0.26210  0.95715  Biso   1.000  Cl
  Cl4      1.0000 0.81367  0.76210  0.54285  Biso   1.000  Cl
  O9       1.0000 0.75420  0.89610  0.03850  Biso   1.000  O
  O10      1.0000 0.24580  0.39610  0.46150  Biso   1.000  O
  O11      1.0000 0.24580  0.10390  0.96150  Biso   1.000  O
  O12      1.0000 0.75420  0.60390  0.53850  Biso   1.000  O
  O13      1.0000 0.81350  0.68850  0.97340  Biso   1.000  O
  O14      1.0000 0.18650  0.18850  0.52660  Biso   1.000  O
  O15      1.0000 0.18650  0.31150  0.02660  Biso   1.000  O
  O16      1.0000 0.81350  0.81150  0.47340  Biso   1.000  O
  O17      1.0000 0.91050  0.77410  0.08200  Biso   1.000  O
  O18      1.0000 0.08950  0.27410  0.41800  Biso   1.000  O
  O19      1.0000 0.08950  0.22590  0.91800  Biso   1.000  O
  O20      1.0000 0.91050  0.72590  0.58200  Biso   1.000  O
  O21      1.0000 0.77520  0.59310  0.06790  Biso   1.000  O
  O22      1.0000 0.22480  0.09310  0.43210  Biso   1.000  O
  O23      1.0000 0.22480  0.40690  0.93210  Biso   1.000  O
  O24      1.0000 0.77520  0.90690  0.56790  Biso   1.000  O
  Cl5      1.0000 0.34064  0.33990  0.25578  Biso   1.000  Cl
  Cl6      1.0000 0.65936  0.83990  0.24422  Biso   1.000  Cl
  Cl7      1.0000 0.65936  0.66010  0.74422  Biso   1.000  Cl
  Cl8      1.0000 0.34064  0.16010  0.75578  Biso   1.000  Cl
  C1       1.0000 0.63340  0.32510  0.12240  Biso   1.000  C
  C2       1.0000 0.36660  0.82510  0.37760  Biso   1.000  C
  C3       1.0000 0.36660  0.67490  0.87760  Biso   1.000  C
  C4       1.0000 0.63340  0.17490  0.62240  Biso   1.000  C
  H1       1.0000 0.68940  0.35670  0.15960  Biso   1.000  H
  H2       1.0000 0.31060  0.85670  0.34040  Biso   1.000  H
  H3       1.0000 0.31060  0.64330  0.84040  Biso   1.000  H
  H4       1.0000 0.68940  0.14330  0.65960  Biso   1.000  H
  C5       1.0000 0.54380  0.33200  0.13330  Biso   1.000  C
  C6       1.0000 0.45620  0.83200  0.36670  Biso   1.000  C
  C7       1.0000 0.45620  0.66800  0.86670  Biso   1.000  C
  C8       1.0000 0.54380  0.16800  0.63330  Biso   1.000  C
  H5       1.0000 0.54080  0.36110  0.17800  Biso   1.000  H
  H6       1.0000 0.45920  0.86110  0.32200  Biso   1.000  H
  H7       1.0000 0.45920  0.63890  0.82200  Biso   1.000  H
  H8       1.0000 0.54080  0.13890  0.67800  Biso   1.000  H
  C9       1.0000 0.46040  0.29620  0.07830  Biso   1.000  C
  C10      1.0000 0.53960  0.79620  0.42170  Biso   1.000  C
  C11      1.0000 0.53960  0.70380  0.92170  Biso   1.000  C
  C12      1.0000 0.46040  0.20380  0.57830  Biso   1.000  C
  C13      1.0000 0.46780  0.25130  0.01220  Biso   1.000  C
  C14      1.0000 0.53220  0.75130  0.48780  Biso   1.000  C
  C15      1.0000 0.53220  0.74870  0.98780  Biso   1.000  C
  C16      1.0000 0.46780  0.24870  0.51220  Biso   1.000  C
  C17      1.0000 0.55900  0.24100  0.00600  Biso   1.000  C
  C18      1.0000 0.44100  0.74100  0.49400  Biso   1.000  C
  C19      1.0000 0.44100  0.75900  0.99400  Biso   1.000  C
  C20      1.0000 0.55900  0.25900  0.50600  Biso   1.000  C
  C21      1.0000 0.57290  0.20640  0.93740  Biso   1.000  C
  C22      1.0000 0.42710  0.70640  0.56260  Biso   1.000  C
  C23      1.0000 0.42710  0.79360  0.06260  Biso   1.000  C
  C24      1.0000 0.57290  0.29360  0.43740  Biso   1.000  C
  C25      1.0000 0.67310  0.19130  0.86520  Biso   1.000  C
  C26      1.0000 0.32690  0.69130  0.63480  Biso   1.000  C
  C27      1.0000 0.32690  0.80870  0.13480  Biso   1.000  C
  C28      1.0000 0.67310  0.30870  0.36520  Biso   1.000  C
  H9       1.0000 0.65920  0.30790  0.83950  Biso   1.000  H
  H10      1.0000 0.34080  0.80790  0.66050  Biso   1.000  H
  H11      1.0000 0.34080  0.69210  0.16050  Biso   1.000  H
  H12      1.0000 0.65920  0.19210  0.33950  Biso   1.000  H
  H13      1.0000 0.62740  0.09980  0.83740  Biso   1.000  H
  H14      1.0000 0.37260  0.59980  0.66260  Biso   1.000  H
  H15      1.0000 0.37260  0.90020  0.16260  Biso   1.000  H
  H16      1.0000 0.62740  0.40020  0.33740  Biso   1.000  H
  C29      1.0000 0.77400  0.13170  0.87220  Biso   1.000  C
  C30      1.0000 0.22600  0.63170  0.62780  Biso   1.000  C
  C31      1.0000 0.22600  0.86830  0.12780  Biso   1.000  C
  C32      1.0000 0.77400  0.36830  0.37220  Biso   1.000  C
  C33      1.0000 0.85100  0.26840  0.91210  Biso   1.000  C
  C34      1.0000 0.14900  0.76840  0.58790  Biso   1.000  C
  C35      1.0000 0.14900  0.73160  0.08790  Biso   1.000  C
  C36      1.0000 0.85100  0.23160  0.41210  Biso   1.000  C
  C37      1.0000 0.94980  0.25860  0.03390  Biso   1.000  C
  C38      1.0000 0.05020  0.75860  0.46610  Biso   1.000  C
  C39      1.0000 0.05020  0.74140  0.96610  Biso   1.000  C
  C40      1.0000 0.94980  0.24140  0.53390  Biso   1.000  C
  C41      1.0000 0.95940  0.24180  0.10930  Biso   1.000  C
  C42      1.0000 0.04060  0.74180  0.39070  Biso   1.000  C
  C43      1.0000 0.04060  0.75820  0.89070  Biso   1.000  C
  C44      1.0000 0.95940  0.25820  0.60930  Biso   1.000  C
  C45      1.0000 0.04830  0.23880  0.16350  Biso   1.000  C
  C46      1.0000 0.95170  0.73880  0.33650  Biso   1.000  C
  C47      1.0000 0.95170  0.76120  0.83650  Biso   1.000  C
  C48      1.0000 0.04830  0.26120  0.66350  Biso   1.000  C
  C49      1.0000 0.04920  0.21540  0.23290  Biso   1.000  C
  C50      1.0000 0.95080  0.71540  0.26710  Biso   1.000  C
  C51      1.0000 0.95080  0.78460  0.76710  Biso   1.000  C
  C52      1.0000 0.04920  0.28460  0.73290  Biso   1.000  C
  C53      1.0000 0.96340  0.19290  0.24470  Biso   1.000  C
  C54      1.0000 0.03660  0.69290  0.25530  Biso   1.000  C
  C55      1.0000 0.03660  0.80710  0.75530  Biso   1.000  C
  C56      1.0000 0.96340  0.30710  0.74470  Biso   1.000  C
  C57      1.0000 0.87790  0.19630  0.18840  Biso   1.000  C
  C58      1.0000 0.12210  0.69630  0.31160  Biso   1.000  C
  C59      1.0000 0.12210  0.80370  0.81160  Biso   1.000  C
  C60      1.0000 0.87790  0.30370  0.68840  Biso   1.000  C
  H17      1.0000 0.99500  0.26100  0.01700  Biso   1.000  H
  H18      1.0000 0.00500  0.76100  0.48300  Biso   1.000  H
  H19      1.0000 0.00500  0.73900  0.98300  Biso   1.000  H
  H20      1.0000 0.99500  0.23900  0.51700  Biso   1.000  H
  H21      1.0000 0.51800  0.18100  0.89900  Biso   1.000  H
  H22      1.0000 0.48200  0.68100  0.60100  Biso   1.000  H
  H23      1.0000 0.48200  0.81900  0.10100  Biso   1.000  H
  H24      1.0000 0.51800  0.31900  0.39900  Biso   1.000  H
  H25      1.0000 0.41700  0.23700  0.97700  Biso   1.000  H
  H26      1.0000 0.58300  0.73700  0.52300  Biso   1.000  H
  H27      1.0000 0.58300  0.76300  0.02300  Biso   1.000  H
  H28      1.0000 0.41700  0.26300  0.47700  Biso   1.000  H
  H29      1.0000 0.90100  0.23200  0.90400  Biso   1.000  H
  H30      1.0000 0.09900  0.73200  0.59600  Biso   1.000  H
  H31      1.0000 0.09900  0.76800  0.09600  Biso   1.000  H
  H32      1.0000 0.90100  0.26800  0.40400  Biso   1.000  H
  H33      1.0000 0.81800  0.15500  0.19500  Biso   1.000  H
  H34      1.0000 0.18200  0.65500  0.30500  Biso   1.000  H
  H35      1.0000 0.18200  0.84500  0.80500  Biso   1.000  H
  H36      1.0000 0.81800  0.34500  0.69500  Biso   1.000  H
  H37      1.0000 0.10200  0.21500  0.27000  Biso   1.000  H
  H38      1.0000 0.89800  0.71500  0.23000  Biso   1.000  H
  H39      1.0000 0.89800  0.78500  0.73000  Biso   1.000  H
  H40      1.0000 0.10200  0.28500  0.77000  Biso   1.000  H
  H41      1.0000 0.10600  0.25000  0.15400  Biso   1.000  H
  H42      1.0000 0.89400  0.75000  0.34600  Biso   1.000  H
  H43      1.0000 0.89400  0.75000  0.84600  Biso   1.000  H
  H44      1.0000 0.10600  0.25000  0.65400  Biso   1.000  H
  H45      1.0000 0.39700  0.28500  0.08700  Biso   1.000  H
  H46      1.0000 0.60300  0.78500  0.41300  Biso   1.000  H
  H47      1.0000 0.60300  0.71500  0.91300  Biso   1.000  H
  H48      1.0000 0.39700  0.21500  0.58700  Biso   1.000  H
  H49      1.0000 0.80600  0.38900  0.89100  Biso   1.000  H
  H50      1.0000 0.19400  0.88900  0.60900  Biso   1.000  H
  H51      1.0000 0.19400  0.61100  0.10900  Biso   1.000  H
  H52      1.0000 0.80600  0.11100  0.39100  Biso   1.000  H
  H53      1.0000 0.96000  0.16600  0.27900  Biso   1.000  H
  H54      1.0000 0.04000  0.66600  0.22100  Biso   1.000  H
  H55      1.0000 0.04000  0.83400  0.72100  Biso   1.000  H
  H56      1.0000 0.96000  0.33400  0.77900  Biso   1.000  H
  O25      1.0000 0.42880  0.41000  0.26720  Biso   1.000  O
  O26      1.0000 0.57120  0.91000  0.23280  Biso   1.000  O
  O27      1.0000 0.57120  0.59000  0.73280  Biso   1.000  O
  O28      1.0000 0.42880  0.09000  0.76720  Biso   1.000  O
  O29      1.0000 0.28370  0.46400  0.26800  Biso   1.000  O
  O30      1.0000 0.71630  0.96400  0.23200  Biso   1.000  O
  O31      1.0000 0.71630  0.53600  0.73200  Biso   1.000  O
  O32      1.0000 0.28370  0.03600  0.76800  Biso   1.000  O
  O33      1.0000 0.30510  0.31200  0.18260  Biso   1.000  O
  O34      1.0000 0.69490  0.81200  0.31740  Biso   1.000  O
  O35      1.0000 0.69490  0.68800  0.81740  Biso   1.000  O
  O36      1.0000 0.30510  0.18800  0.68260  Biso   1.000  O
  O37      1.0000 0.33840  0.18080  0.28280  Biso   1.000  O
  O38      1.0000 0.66160  0.68080  0.21720  Biso   1.000  O
  O39      1.0000 0.66160  0.81920  0.71720  Biso   1.000  O
  O40      1.0000 0.33840  0.31920  0.78280  Biso   1.000  O
