data_image0
_cell_length_a       10.147
_cell_length_b       17.955
_cell_length_c       17.301
_cell_angle_alpha    90
_cell_angle_beta     125.705
_cell_angle_gamma    90

_symmetry_space_group_name_H-M    "P 1"
_symmetry_int_tables_number       1

loop_
  _symmetry_equiv_pos_as_xyz
  'x, y, z'

loop_
  _atom_site_label
  _atom_site_occupancy
  _atom_site_fract_x
  _atom_site_fract_y
  _atom_site_fract_z
  _atom_site_thermal_displace_type
  _atom_site_B_iso_or_equiv
  _atom_site_type_symbol
  Cu1      1.0000 0.70861  0.67645  0.58570  Biso   1.000  Cu
  Cu2      1.0000 0.29139  0.17645  0.91430  Biso   1.000  Cu
  Cu3      1.0000 0.29139  0.32355  0.41430  Biso   1.000  Cu
  Cu4      1.0000 0.70861  0.82355  0.08570  Biso   1.000  Cu
  O1       1.0000 0.81030  0.65340  0.09710  Biso   1.000  O
  O2       1.0000 0.18970  0.15340  0.40290  Biso   1.000  O
  O3       1.0000 0.18970  0.34660  0.90290  Biso   1.000  O
  O4       1.0000 0.81030  0.84660  0.59710  Biso   1.000  O
  O5       1.0000 0.79890  0.76114  0.03120  Biso   1.000  O
  O6       1.0000 0.20110  0.26114  0.46880  Biso   1.000  O
  O7       1.0000 0.20110  0.23886  0.96880  Biso   1.000  O
  O8       1.0000 0.79890  0.73886  0.53120  Biso   1.000  O
  O9       1.0000 0.90150  0.67560  0.72190  Biso   1.000  O
  O10      1.0000 0.09850  0.17560  0.77810  Biso   1.000  O
  O11      1.0000 0.09850  0.32440  0.27810  Biso   1.000  O
  O12      1.0000 0.90150  0.82440  0.22190  Biso   1.000  O
  O13      1.0000 0.66100  0.65877  0.68520  Biso   1.000  O
  O14      1.0000 0.33900  0.15877  0.81480  Biso   1.000  O
  O15      1.0000 0.33900  0.34123  0.31480  Biso   1.000  O
  O16      1.0000 0.66100  0.84123  0.18520  Biso   1.000  O
  O17      1.0000 0.59520  0.54620  0.83600  Biso   1.000  O
  O18      1.0000 0.40480  0.04620  0.66400  Biso   1.000  O
  O19      1.0000 0.40480  0.45380  0.16400  Biso   1.000  O
  O20      1.0000 0.59520  0.95380  0.33600  Biso   1.000  O
  H1       1.0000 0.56220  0.50330  0.83830  Biso   1.000  H
  H2       1.0000 0.43780  0.00330  0.66170  Biso   1.000  H
  H3       1.0000 0.43780  0.49670  0.16170  Biso   1.000  H
  H4       1.0000 0.56220  0.99670  0.33830  Biso   1.000  H
  O21      1.0000 0.40530  0.57960  0.85340  Biso   1.000  O
  O22      1.0000 0.59470  0.07960  0.64660  Biso   1.000  O
  O23      1.0000 0.59470  0.42040  0.14660  Biso   1.000  O
  O24      1.0000 0.40530  0.92040  0.35340  Biso   1.000  O
  O25      1.0000 0.89600  0.82970  0.94020  Biso   1.000  O
  O26      1.0000 0.10400  0.32970  0.55980  Biso   1.000  O
  O27      1.0000 0.10400  0.17030  0.05980  Biso   1.000  O
  O28      1.0000 0.89600  0.67030  0.44020  Biso   1.000  O
  H5       1.0000 0.86030  0.80810  0.96610  Biso   1.000  H
  H6       1.0000 0.13970  0.30810  0.53390  Biso   1.000  H
  H7       1.0000 0.13970  0.19190  0.03390  Biso   1.000  H
  H8       1.0000 0.86030  0.69190  0.46610  Biso   1.000  H
  O29      1.0000 0.79870  0.87350  0.79880  Biso   1.000  O
  O30      1.0000 0.20130  0.37350  0.70120  Biso   1.000  O
  O31      1.0000 0.20130  0.12650  0.20120  Biso   1.000  O
  O32      1.0000 0.79870  0.62650  0.29880  Biso   1.000  O
  N1       1.0000 0.47970  0.66870  0.47230  Biso   1.000  N
  N2       1.0000 0.52030  0.16870  0.02770  Biso   1.000  N
  N3       1.0000 0.52030  0.33130  0.52770  Biso   1.000  N
  N4       1.0000 0.47970  0.83130  0.97230  Biso   1.000  N
  N5       1.0000 0.71810  0.57172  0.52590  Biso   1.000  N
  N6       1.0000 0.28190  0.07172  0.97410  Biso   1.000  N
  N7       1.0000 0.28190  0.42828  0.47410  Biso   1.000  N
  N8       1.0000 0.71810  0.92828  0.02590  Biso   1.000  N
  C1       1.0000 0.82670  0.69050  0.04450  Biso   1.000  C
  C2       1.0000 0.17330  0.19050  0.45550  Biso   1.000  C
  C3       1.0000 0.17330  0.30950  0.95550  Biso   1.000  C
  C4       1.0000 0.82670  0.80950  0.54450  Biso   1.000  C
  C5       1.0000 0.81020  0.66100  0.74740  Biso   1.000  C
  C6       1.0000 0.18980  0.16100  0.75260  Biso   1.000  C
  C7       1.0000 0.18980  0.33900  0.25260  Biso   1.000  C
  C8       1.0000 0.81020  0.83900  0.24740  Biso   1.000  C
  C9       1.0000 0.88390  0.65550  0.99020  Biso   1.000  C
  C10      1.0000 0.11610  0.15550  0.50980  Biso   1.000  C
  C11      1.0000 0.11610  0.34450  0.00980  Biso   1.000  C
  C12      1.0000 0.88390  0.84450  0.49020  Biso   1.000  C
  C13      1.0000 0.80790  0.67040  0.89310  Biso   1.000  C
  C14      1.0000 0.19210  0.17040  0.60690  Biso   1.000  C
  C15      1.0000 0.19210  0.32960  0.10690  Biso   1.000  C
  C16      1.0000 0.80790  0.82960  0.39310  Biso   1.000  C
  C17      1.0000 0.88170  0.64570  0.85060  Biso   1.000  C
  C18      1.0000 0.11830  0.14570  0.64940  Biso   1.000  C
  C19      1.0000 0.11830  0.35430  0.14940  Biso   1.000  C
  C20      1.0000 0.88170  0.85430  0.35060  Biso   1.000  C
  C21      1.0000 0.02350  0.60350  0.90150  Biso   1.000  C
  C22      1.0000 0.97650  0.10350  0.59850  Biso   1.000  C
  C23      1.0000 0.97650  0.39650  0.09850  Biso   1.000  C
  C24      1.0000 0.02350  0.89650  0.40150  Biso   1.000  C
  H9       1.0000 0.07370  0.58880  0.87300  Biso   1.000  H
  H10      1.0000 0.92630  0.08880  0.62700  Biso   1.000  H
  H11      1.0000 0.92630  0.41120  0.12700  Biso   1.000  H
  H12      1.0000 0.07370  0.91120  0.37300  Biso   1.000  H
  C25      1.0000 0.09020  0.58340  0.99590  Biso   1.000  C
  C26      1.0000 0.90980  0.08340  0.50410  Biso   1.000  C
  C27      1.0000 0.90980  0.41660  0.00410  Biso   1.000  C
  C28      1.0000 0.09020  0.91660  0.49590  Biso   1.000  C
  H13      1.0000 0.18110  0.55280  0.02930  Biso   1.000  H
  H14      1.0000 0.81890  0.05280  0.47070  Biso   1.000  H
  H15      1.0000 0.81890  0.44720  0.97070  Biso   1.000  H
  H16      1.0000 0.18110  0.94720  0.52930  Biso   1.000  H
  C29      1.0000 0.01970  0.60920  0.03830  Biso   1.000  C
  C30      1.0000 0.98030  0.10920  0.46170  Biso   1.000  C
  C31      1.0000 0.98030  0.39080  0.96170  Biso   1.000  C
  C32      1.0000 0.01970  0.89080  0.53830  Biso   1.000  C
  H17      1.0000 0.06360  0.59560  0.10080  Biso   1.000  H
  H18      1.0000 0.93640  0.09560  0.39920  Biso   1.000  H
  H19      1.0000 0.93640  0.40440  0.89920  Biso   1.000  H
  H20      1.0000 0.06360  0.90440  0.60080  Biso   1.000  H
  C33      1.0000 0.50990  0.59330  0.83560  Biso   1.000  C
  C34      1.0000 0.49010  0.09330  0.66440  Biso   1.000  C
  C35      1.0000 0.49010  0.40670  0.16440  Biso   1.000  C
  C36      1.0000 0.50990  0.90670  0.33560  Biso   1.000  C
  C37      1.0000 0.78380  0.83240  0.84830  Biso   1.000  C
  C38      1.0000 0.21620  0.33240  0.65170  Biso   1.000  C
  C39      1.0000 0.21620  0.16760  0.15170  Biso   1.000  C
  C40      1.0000 0.78380  0.66760  0.34830  Biso   1.000  C
  C41      1.0000 0.63590  0.78510  0.81040  Biso   1.000  C
  C42      1.0000 0.36410  0.28510  0.68960  Biso   1.000  C
  C43      1.0000 0.36410  0.21490  0.18960  Biso   1.000  C
  C44      1.0000 0.63590  0.71490  0.31040  Biso   1.000  C
  C45      1.0000 0.48530  0.81790  0.75070  Biso   1.000  C
  C46      1.0000 0.51470  0.31790  0.74930  Biso   1.000  C
  C47      1.0000 0.51470  0.18210  0.24930  Biso   1.000  C
  C48      1.0000 0.48530  0.68210  0.25070  Biso   1.000  C
  H21      1.0000 0.47780  0.86650  0.72970  Biso   1.000  H
  H22      1.0000 0.52220  0.36650  0.77030  Biso   1.000  H
  H23      1.0000 0.52220  0.13350  0.27030  Biso   1.000  H
  H24      1.0000 0.47780  0.63350  0.22970  Biso   1.000  H
  C49      1.0000 0.34820  0.78020  0.72230  Biso   1.000  C
  C50      1.0000 0.65180  0.28020  0.77770  Biso   1.000  C
  C51      1.0000 0.65180  0.21980  0.27770  Biso   1.000  C
  C52      1.0000 0.34820  0.71980  0.22230  Biso   1.000  C
  H25      1.0000 0.24730  0.80250  0.68130  Biso   1.000  H
  H26      1.0000 0.75270  0.30250  0.81870  Biso   1.000  H
  H27      1.0000 0.75270  0.19750  0.31870  Biso   1.000  H
  H28      1.0000 0.24730  0.69750  0.18130  Biso   1.000  H
  C53      1.0000 0.35850  0.70880  0.75420  Biso   1.000  C
  C54      1.0000 0.64150  0.20880  0.74580  Biso   1.000  C
  C55      1.0000 0.64150  0.29120  0.24580  Biso   1.000  C
  C56      1.0000 0.35850  0.79120  0.25420  Biso   1.000  C
  H29      1.0000 0.26510  0.68450  0.73870  Biso   1.000  H
  H30      1.0000 0.73490  0.18450  0.76130  Biso   1.000  H
  H31      1.0000 0.73490  0.31550  0.26130  Biso   1.000  H
  H32      1.0000 0.26510  0.81550  0.23870  Biso   1.000  H
  C57      1.0000 0.50730  0.67280  0.80940  Biso   1.000  C
  C58      1.0000 0.49270  0.17280  0.69060  Biso   1.000  C
  C59      1.0000 0.49270  0.32720  0.19060  Biso   1.000  C
  C60      1.0000 0.50730  0.82720  0.30940  Biso   1.000  C
  C61      1.0000 0.65050  0.71030  0.83830  Biso   1.000  C
  C62      1.0000 0.34950  0.21030  0.66170  Biso   1.000  C
  C63      1.0000 0.34950  0.28970  0.16170  Biso   1.000  C
  C64      1.0000 0.65050  0.78970  0.33830  Biso   1.000  C
  C65      1.0000 0.36560  0.71790  0.45370  Biso   1.000  C
  C66      1.0000 0.63440  0.21790  0.04630  Biso   1.000  C
  C67      1.0000 0.63440  0.28210  0.54630  Biso   1.000  C
  C68      1.0000 0.36560  0.78210  0.95370  Biso   1.000  C
  C69      1.0000 0.20420  0.70490  0.37950  Biso   1.000  C
  C70      1.0000 0.79580  0.20490  0.12050  Biso   1.000  C
  C71      1.0000 0.79580  0.29510  0.62050  Biso   1.000  C
  C72      1.0000 0.20420  0.79510  0.87950  Biso   1.000  C
  H33      1.0000 0.12480  0.73860  0.36760  Biso   1.000  H
  H34      1.0000 0.87520  0.23860  0.13240  Biso   1.000  H
  H35      1.0000 0.87520  0.26140  0.63240  Biso   1.000  H
  H36      1.0000 0.12480  0.76140  0.86760  Biso   1.000  H
  C73      1.0000 0.16190  0.64350  0.32460  Biso   1.000  C
  C74      1.0000 0.83810  0.14350  0.17540  Biso   1.000  C
  C75      1.0000 0.83810  0.35650  0.67540  Biso   1.000  C
  C76      1.0000 0.16190  0.85650  0.82460  Biso   1.000  C
  H37      1.0000 0.05410  0.63570  0.27390  Biso   1.000  H
  H38      1.0000 0.94590  0.13570  0.22610  Biso   1.000  H
  H39      1.0000 0.94590  0.36430  0.72610  Biso   1.000  H
  H40      1.0000 0.05410  0.86430  0.77390  Biso   1.000  H
  C77      1.0000 0.27820  0.59280  0.34380  Biso   1.000  C
  C78      1.0000 0.72180  0.09280  0.15620  Biso   1.000  C
  C79      1.0000 0.72180  0.40720  0.65620  Biso   1.000  C
  C80      1.0000 0.27820  0.90720  0.84380  Biso   1.000  C
  H41      1.0000 0.25030  0.55000  0.30710  Biso   1.000  H
  H42      1.0000 0.74970  0.05000  0.19290  Biso   1.000  H
  H43      1.0000 0.74970  0.45000  0.69290  Biso   1.000  H
  H44      1.0000 0.25030  0.95000  0.80710  Biso   1.000  H
  C81      1.0000 0.43870  0.60630  0.41940  Biso   1.000  C
  C82      1.0000 0.56130  0.10630  0.08060  Biso   1.000  C
  C83      1.0000 0.56130  0.39370  0.58060  Biso   1.000  C
  C84      1.0000 0.43870  0.89370  0.91940  Biso   1.000  C
  C85      1.0000 0.41750  0.78610  0.51500  Biso   1.000  C
  C86      1.0000 0.58250  0.28610  0.98500  Biso   1.000  C
  C87      1.0000 0.58250  0.21390  0.48500  Biso   1.000  C
  C88      1.0000 0.41750  0.71390  0.01500  Biso   1.000  C
  H45      1.0000 0.52170  0.80220  0.53220  Biso   1.000  H
  H46      1.0000 0.47830  0.30220  0.96780  Biso   1.000  H
  H47      1.0000 0.47830  0.19780  0.46780  Biso   1.000  H
  H48      1.0000 0.52170  0.69780  0.03220  Biso   1.000  H
  H49      1.0000 0.42470  0.77480  0.57150  Biso   1.000  H
  H50      1.0000 0.57530  0.27480  0.92850  Biso   1.000  H
  H51      1.0000 0.57530  0.22520  0.42850  Biso   1.000  H
  H52      1.0000 0.42470  0.72520  0.07150  Biso   1.000  H
  H53      1.0000 0.33950  0.82510  0.48040  Biso   1.000  H
  H54      1.0000 0.66050  0.32510  0.01960  Biso   1.000  H
  H55      1.0000 0.66050  0.17490  0.51960  Biso   1.000  H
  H56      1.0000 0.33950  0.67490  0.98040  Biso   1.000  H
  C89      1.0000 0.57290  0.55490  0.44600  Biso   1.000  C
  C90      1.0000 0.42710  0.05490  0.05400  Biso   1.000  C
  C91      1.0000 0.42710  0.44510  0.55400  Biso   1.000  C
  C92      1.0000 0.57290  0.94510  0.94600  Biso   1.000  C
  C93      1.0000 0.55070  0.49280  0.39190  Biso   1.000  C
  C94      1.0000 0.44930  0.99280  0.10810  Biso   1.000  C
  C95      1.0000 0.44930  0.50720  0.60810  Biso   1.000  C
  C96      1.0000 0.55070  0.00720  0.89190  Biso   1.000  C
  H57      1.0000 0.44970  0.48230  0.33590  Biso   1.000  H
  H58      1.0000 0.55030  0.98230  0.16410  Biso   1.000  H
  H59      1.0000 0.55030  0.51770  0.66410  Biso   1.000  H
  H60      1.0000 0.44970  0.01770  0.83590  Biso   1.000  H
  C97      1.0000 0.68130  0.44730  0.42300  Biso   1.000  C
  C98      1.0000 0.31870  0.94730  0.07700  Biso   1.000  C
  C99      1.0000 0.31870  0.55270  0.57700  Biso   1.000  C
  C100     1.0000 0.68130  0.05270  0.92300  Biso   1.000  C
  H61      1.0000 0.66860  0.40450  0.38900  Biso   1.000  H
  H62      1.0000 0.33140  0.90450  0.11100  Biso   1.000  H
  H63      1.0000 0.33140  0.59550  0.61100  Biso   1.000  H
  H64      1.0000 0.66860  0.09550  0.88900  Biso   1.000  H
  C101     1.0000 0.82870  0.46460  0.50310  Biso   1.000  C
  C102     1.0000 0.17130  0.96460  0.99690  Biso   1.000  C
  C103     1.0000 0.17130  0.53540  0.49690  Biso   1.000  C
  C104     1.0000 0.82870  0.03540  0.00310  Biso   1.000  C
  H65      1.0000 0.91770  0.43410  0.52390  Biso   1.000  H
  H66      1.0000 0.08230  0.93410  0.97610  Biso   1.000  H
  H67      1.0000 0.08230  0.56590  0.47610  Biso   1.000  H
  H68      1.0000 0.91770  0.06590  0.02390  Biso   1.000  H
  C105     1.0000 0.84620  0.52840  0.55430  Biso   1.000  C
  C106     1.0000 0.15380  0.02840  0.94570  Biso   1.000  C
  C107     1.0000 0.15380  0.47160  0.44570  Biso   1.000  C
  C108     1.0000 0.84620  0.97160  0.05430  Biso   1.000  C
  C109     1.0000 0.00730  0.54930  0.64250  Biso   1.000  C
  C110     1.0000 0.99270  0.04930  0.85750  Biso   1.000  C
  C111     1.0000 0.99270  0.45070  0.35750  Biso   1.000  C
  C112     1.0000 0.00730  0.95070  0.14250  Biso   1.000  C
  H69      1.0000 0.02350  0.60200  0.64250  Biso   1.000  H
  H70      1.0000 0.97650  0.10200  0.85750  Biso   1.000  H
  H71      1.0000 0.97650  0.39800  0.35750  Biso   1.000  H
  H72      1.0000 0.02350  0.89800  0.14250  Biso   1.000  H
  H73      1.0000 0.09160  0.52310  0.64450  Biso   1.000  H
  H74      1.0000 0.90840  0.02310  0.85550  Biso   1.000  H
  H75      1.0000 0.90840  0.47690  0.35550  Biso   1.000  H
  H76      1.0000 0.09160  0.97690  0.14450  Biso   1.000  H
  H77      1.0000 0.01010  0.53640  0.69730  Biso   1.000  H
  H78      1.0000 0.98990  0.03640  0.80270  Biso   1.000  H
  H79      1.0000 0.98990  0.46360  0.30270  Biso   1.000  H
  H80      1.0000 0.01010  0.96360  0.19730  Biso   1.000  H
  O33      1.0000 0.63140  0.55660  0.12320  Biso   1.000  O
  O34      1.0000 0.36860  0.05660  0.37680  Biso   1.000  O
  O35      1.0000 0.36860  0.44340  0.87680  Biso   1.000  O
  O36      1.0000 0.63140  0.94340  0.62320  Biso   1.000  O
  H81      1.0000 0.68200  0.57790  0.17720  Biso   1.000  H
  H82      1.0000 0.31800  0.07790  0.32280  Biso   1.000  H
  H83      1.0000 0.31800  0.42210  0.82280  Biso   1.000  H
  H84      1.0000 0.68200  0.92210  0.67720  Biso   1.000  H
  H85      1.0000 0.68970  0.58830  0.11410  Biso   1.000  H
  H86      1.0000 0.31030  0.08830  0.38590  Biso   1.000  H
  H87      1.0000 0.31030  0.41170  0.88590  Biso   1.000  H
  H88      1.0000 0.68970  0.91170  0.61410  Biso   1.000  H
  O37      1.0000 0.50000  0.50000  0.00000  Biso   1.000  O
  O38      1.0000 0.50000  0.00000  0.50000  Biso   1.000  O
  H89      1.0000 0.52500  0.51450  0.96330  Biso   1.000  H
  H90      1.0000 0.47500  0.01450  0.53670  Biso   1.000  H
  H91      1.0000 0.47500  0.48550  0.03670  Biso   1.000  H
  H92      1.0000 0.52500  0.98550  0.46330  Biso   1.000  H
  Cu5      1.0000 0.66820  0.63280  0.60440  Biso   1.000  Cu
  Cu6      1.0000 0.33180  0.13280  0.89560  Biso   1.000  Cu
  Cu7      1.0000 0.33180  0.36720  0.39560  Biso   1.000  Cu
  Cu8      1.0000 0.66820  0.86720  0.10440  Biso   1.000  Cu
  H93      1.0000 0.48170  0.54360  0.98970  Biso   1.000  H
  H94      1.0000 0.51830  0.04360  0.51030  Biso   1.000  H
  H95      1.0000 0.51830  0.45640  0.01030  Biso   1.000  H
  H96      1.0000 0.48170  0.95640  0.48970  Biso   1.000  H
