data_image0
_cell_length_a       7.4054
_cell_length_b       18.811
_cell_length_c       12.006
_cell_angle_alpha    90
_cell_angle_beta     97.06
_cell_angle_gamma    90

_symmetry_space_group_name_H-M    "P 1"
_symmetry_int_tables_number       1

loop_
  _symmetry_equiv_pos_as_xyz
  'x, y, z'

loop_
  _atom_site_label
  _atom_site_occupancy
  _atom_site_fract_x
  _atom_site_fract_y
  _atom_site_fract_z
  _atom_site_thermal_displace_type
  _atom_site_B_iso_or_equiv
  _atom_site_type_symbol
  C1       1.0000 0.03140  0.17640  0.32610  Biso   1.000  C
  C2       1.0000 0.46860  0.67640  0.17390  Biso   1.000  C
  C3       1.0000 0.96860  0.82360  0.67390  Biso   1.000  C
  C4       1.0000 0.53140  0.32360  0.82610  Biso   1.000  C
  C5       1.0000 0.95970  0.23890  0.25690  Biso   1.000  C
  C6       1.0000 0.54030  0.73890  0.24310  Biso   1.000  C
  C7       1.0000 0.04030  0.76110  0.74310  Biso   1.000  C
  C8       1.0000 0.45970  0.26110  0.75690  Biso   1.000  C
  C9       1.0000 0.77730  0.25720  0.25260  Biso   1.000  C
  C10      1.0000 0.72270  0.75720  0.24740  Biso   1.000  C
  C11      1.0000 0.22270  0.74280  0.74740  Biso   1.000  C
  C12      1.0000 0.27730  0.24280  0.75260  Biso   1.000  C
  H1       1.0000 0.70200  0.23150  0.29430  Biso   1.000  H
  H2       1.0000 0.79800  0.73150  0.20570  Biso   1.000  H
  H3       1.0000 0.29800  0.76850  0.70570  Biso   1.000  H
  H4       1.0000 0.20200  0.26850  0.79430  Biso   1.000  H
  C13      1.0000 0.70820  0.31220  0.18820  Biso   1.000  C
  C14      1.0000 0.79180  0.81220  0.31180  Biso   1.000  C
  C15      1.0000 0.29180  0.68780  0.81180  Biso   1.000  C
  C16      1.0000 0.20820  0.18780  0.68820  Biso   1.000  C
  H5       1.0000 0.58530  0.32300  0.18610  Biso   1.000  H
  H6       1.0000 0.91470  0.82300  0.31390  Biso   1.000  H
  H7       1.0000 0.41470  0.67700  0.81390  Biso   1.000  H
  H8       1.0000 0.08530  0.17700  0.68610  Biso   1.000  H
  C17      1.0000 0.81640  0.35370  0.12400  Biso   1.000  C
  C18      1.0000 0.68360  0.85370  0.37600  Biso   1.000  C
  C19      1.0000 0.18360  0.64630  0.87600  Biso   1.000  C
  C20      1.0000 0.31640  0.14630  0.62400  Biso   1.000  C
  C21      1.0000 0.00000  0.33540  0.12690  Biso   1.000  C
  C22      1.0000 0.50000  0.83540  0.37310  Biso   1.000  C
  C23      1.0000 0.00000  0.66460  0.87310  Biso   1.000  C
  C24      1.0000 0.50000  0.16460  0.62690  Biso   1.000  C
  C25      1.0000 0.06930  0.27780  0.19500  Biso   1.000  C
  C26      1.0000 0.43070  0.77780  0.30500  Biso   1.000  C
  C27      1.0000 0.93070  0.72220  0.80500  Biso   1.000  C
  C28      1.0000 0.56930  0.22220  0.69500  Biso   1.000  C
  H9       1.0000 0.19180  0.26600  0.19800  Biso   1.000  H
  H10      1.0000 0.30820  0.76600  0.30200  Biso   1.000  H
  H11      1.0000 0.80820  0.73400  0.80200  Biso   1.000  H
  H12      1.0000 0.69180  0.23400  0.69800  Biso   1.000  H
  C29      1.0000 0.12430  0.37480  0.06140  Biso   1.000  C
  C30      1.0000 0.37570  0.87480  0.43860  Biso   1.000  C
  C31      1.0000 0.87570  0.62520  0.93860  Biso   1.000  C
  C32      1.0000 0.62430  0.12520  0.56140  Biso   1.000  C
  C33      1.0000 0.49520  0.05400  0.24510  Biso   1.000  C
  C34      1.0000 0.00480  0.55400  0.25490  Biso   1.000  C
  C35      1.0000 0.50480  0.94600  0.75490  Biso   1.000  C
  C36      1.0000 0.99520  0.44600  0.74510  Biso   1.000  C
  C37      1.0000 0.49390  0.94270  0.11550  Biso   1.000  C
  C38      1.0000 0.00610  0.44270  0.38450  Biso   1.000  C
  C39      1.0000 0.50610  0.05730  0.88450  Biso   1.000  C
  C40      1.0000 0.99390  0.55730  0.61550  Biso   1.000  C
  Cu1      1.0000 0.93761  0.07552  0.49378  Biso   1.000  Cu
  Cu2      1.0000 0.56239  0.57552  0.00622  Biso   1.000  Cu
  Cu3      1.0000 0.06239  0.92448  0.50622  Biso   1.000  Cu
  Cu4      1.0000 0.43761  0.42448  0.99378  Biso   1.000  Cu
  Cu5      1.0000 0.31740  0.05901  0.43150  Biso   1.000  Cu
  Cu6      1.0000 0.18260  0.55901  0.06850  Biso   1.000  Cu
  Cu7      1.0000 0.68260  0.94099  0.56850  Biso   1.000  Cu
  Cu8      1.0000 0.81740  0.44099  0.93150  Biso   1.000  Cu
  N1       1.0000 0.56630  0.02730  0.15620  Biso   1.000  N
  N2       1.0000 0.93370  0.52730  0.34380  Biso   1.000  N
  N3       1.0000 0.43370  0.97270  0.84380  Biso   1.000  N
  N4       1.0000 0.06630  0.47270  0.65620  Biso   1.000  N
  O1       1.0000 0.91110  0.14550  0.37690  Biso   1.000  O
  O2       1.0000 0.58890  0.64550  0.12310  Biso   1.000  O
  O3       1.0000 0.08890  0.85450  0.62310  Biso   1.000  O
  O4       1.0000 0.41110  0.35450  0.87690  Biso   1.000  O
  O5       1.0000 0.19510  0.15894  0.33100  Biso   1.000  O
  O6       1.0000 0.30490  0.65894  0.16900  Biso   1.000  O
  O7       1.0000 0.80490  0.84106  0.66900  Biso   1.000  O
  O8       1.0000 0.69510  0.34106  0.83100  Biso   1.000  O
  O9       1.0000 0.29490  0.36657  0.08770  Biso   1.000  O
  O10      1.0000 0.20510  0.86657  0.41230  Biso   1.000  O
  O11      1.0000 0.70510  0.63343  0.91230  Biso   1.000  O
  O12      1.0000 0.79490  0.13343  0.58770  Biso   1.000  O
  O13      1.0000 0.06650  0.41676  0.98170  Biso   1.000  O
  O14      1.0000 0.43350  0.91676  0.51830  Biso   1.000  O
  O15      1.0000 0.93350  0.58324  0.01830  Biso   1.000  O
  O16      1.0000 0.56650  0.08324  0.48170  Biso   1.000  O
  O17      1.0000 0.91970  0.99160  0.58980  Biso   1.000  O
  O18      1.0000 0.58030  0.49160  0.91020  Biso   1.000  O
  O19      1.0000 0.08030  0.00840  0.41020  Biso   1.000  O
  O20      1.0000 0.41970  0.50840  0.08980  Biso   1.000  O
  O21      1.0000 0.73690  0.40738  0.06670  Biso   1.000  O
  O22      1.0000 0.76310  0.90738  0.43330  Biso   1.000  O
  O23      1.0000 0.26310  0.59262  0.93330  Biso   1.000  O
  O24      1.0000 0.23690  0.09262  0.56670  Biso   1.000  O
  O25      1.0000 0.39190  0.01729  0.29520  Biso   1.000  O
  O26      1.0000 0.10810  0.51729  0.20480  Biso   1.000  O
  O27      1.0000 0.60810  0.98271  0.70480  Biso   1.000  O
  O28      1.0000 0.89190  0.48271  0.79520  Biso   1.000  O
  C41      1.0000 0.68180  0.07060  0.08310  Biso   1.000  C
  C42      1.0000 0.81820  0.57060  0.41690  Biso   1.000  C
  C43      1.0000 0.31820  0.92940  0.91690  Biso   1.000  C
  C44      1.0000 0.18180  0.42940  0.58310  Biso   1.000  C
  C45      1.0000 0.42230  0.42140  0.33960  Biso   1.000  C
  C46      1.0000 0.07770  0.92140  0.16040  Biso   1.000  C
  C47      1.0000 0.57770  0.57860  0.66040  Biso   1.000  C
  C48      1.0000 0.92230  0.07860  0.83960  Biso   1.000  C
  H13      1.0000 0.31260  0.41150  0.29610  Biso   1.000  H
  H14      1.0000 0.18740  0.91150  0.20390  Biso   1.000  H
  H15      1.0000 0.68740  0.58850  0.70390  Biso   1.000  H
  H16      1.0000 0.81260  0.08850  0.79610  Biso   1.000  H
  C49      1.0000 0.63070  0.39570  0.50700  Biso   1.000  C
  C50      1.0000 0.86930  0.89570  0.99300  Biso   1.000  C
  C51      1.0000 0.36930  0.60430  0.49300  Biso   1.000  C
  C52      1.0000 0.13070  0.10430  0.00700  Biso   1.000  C
  H17      1.0000 0.62930  0.44640  0.51530  Biso   1.000  H
  H18      1.0000 0.87070  0.94640  0.98470  Biso   1.000  H
  H19      1.0000 0.37070  0.55360  0.48470  Biso   1.000  H
  H20      1.0000 0.12930  0.05360  0.01530  Biso   1.000  H
  H21      1.0000 0.74200  0.38140  0.48000  Biso   1.000  H
  H22      1.0000 0.75800  0.88140  0.02000  Biso   1.000  H
  H23      1.0000 0.25800  0.61860  0.52000  Biso   1.000  H
  H24      1.0000 0.24200  0.11860  0.98000  Biso   1.000  H
  H25      1.0000 0.62230  0.37370  0.57830  Biso   1.000  H
  H26      1.0000 0.87770  0.87370  0.92170  Biso   1.000  H
  H27      1.0000 0.37770  0.62630  0.42170  Biso   1.000  H
  H28      1.0000 0.12230  0.12630  0.07830  Biso   1.000  H
  C53      1.0000 0.38760  0.31200  0.45160  Biso   1.000  C
  C54      1.0000 0.11240  0.81200  0.04840  Biso   1.000  C
  C55      1.0000 0.61240  0.68800  0.54840  Biso   1.000  C
  C56      1.0000 0.88760  0.18800  0.95160  Biso   1.000  C
  H29      1.0000 0.27210  0.31100  0.40550  Biso   1.000  H
  H30      1.0000 0.22790  0.81100  0.09450  Biso   1.000  H
  H31      1.0000 0.72790  0.68900  0.59450  Biso   1.000  H
  H32      1.0000 0.77210  0.18900  0.90550  Biso   1.000  H
  H33      1.0000 0.36860  0.31100  0.52930  Biso   1.000  H
  H34      1.0000 0.13140  0.81100  0.97070  Biso   1.000  H
  H35      1.0000 0.63140  0.68900  0.47070  Biso   1.000  H
  H36      1.0000 0.86860  0.18900  0.02930  Biso   1.000  H
  H37      1.0000 0.45800  0.27130  0.43510  Biso   1.000  H
  H38      1.0000 0.04200  0.77130  0.06490  Biso   1.000  H
  H39      1.0000 0.54200  0.72870  0.56490  Biso   1.000  H
  H40      1.0000 0.95800  0.22870  0.93510  Biso   1.000  H
  N5       1.0000 0.48140  0.37440  0.42950  Biso   1.000  N
  N6       1.0000 0.01860  0.87440  0.07050  Biso   1.000  N
  N7       1.0000 0.51860  0.62560  0.57050  Biso   1.000  N
  N8       1.0000 0.98140  0.12560  0.92950  Biso   1.000  N
  O29      1.0000 0.50320  0.47190  0.31710  Biso   1.000  O
  O30      1.0000 0.99680  0.97190  0.18290  Biso   1.000  O
  O31      1.0000 0.49680  0.52810  0.68290  Biso   1.000  O
  O32      1.0000 0.00320  0.02810  0.81710  Biso   1.000  O
  N9       1.0000 0.67330  0.06540  0.20710  Biso   1.000  N
  N10      1.0000 0.82670  0.56540  0.29290  Biso   1.000  N
  N11      1.0000 0.32670  0.93460  0.79290  Biso   1.000  N
  N12      1.0000 0.17330  0.43460  0.70710  Biso   1.000  N
