data_image0
_cell_length_a       3.8512
_cell_length_b       11.4011
_cell_length_c       11.5587
_cell_angle_alpha    111.337
_cell_angle_beta     96.29
_cell_angle_gamma    98.626

_symmetry_space_group_name_H-M    "P 1"
_symmetry_int_tables_number       1

loop_
  _symmetry_equiv_pos_as_xyz
  'x, y, z'

loop_
  _atom_site_label
  _atom_site_occupancy
  _atom_site_fract_x
  _atom_site_fract_y
  _atom_site_fract_z
  _atom_site_thermal_displace_type
  _atom_site_B_iso_or_equiv
  _atom_site_type_symbol
  Cu1      1.0000 0.65834  0.52542  0.78830  Biso   1.000  Cu
  Cu2      1.0000 0.34166  0.47458  0.21170  Biso   1.000  Cu
  Cl1      1.0000 0.14840  0.43690  0.64377  Biso   1.000  Cl
  Cl2      1.0000 0.85160  0.56310  0.35623  Biso   1.000  Cl
  O1       1.0000 0.60100  0.38730  0.84790  Biso   1.000  O
  O2       1.0000 0.39900  0.61270  0.15210  Biso   1.000  O
  N1       1.0000 0.74270  0.68780  0.75650  Biso   1.000  N
  N2       1.0000 0.25730  0.31220  0.24350  Biso   1.000  N
  C1       1.0000 0.07370  0.90180  0.84430  Biso   1.000  C
  C2       1.0000 0.92630  0.09820  0.15570  Biso   1.000  C
  H1       1.0000 0.23660  0.96620  0.91030  Biso   1.000  H
  H2       1.0000 0.76340  0.03380  0.08970  Biso   1.000  H
  N3       1.0000 0.93640  0.92760  0.74690  Biso   1.000  N
  N4       1.0000 0.06360  0.07240  0.25310  Biso   1.000  N
  C3       1.0000 0.70380  0.83240  0.65280  Biso   1.000  C
  C4       1.0000 0.29620  0.16760  0.34720  Biso   1.000  C
  C5       1.0000 0.60540  0.71240  0.65770  Biso   1.000  C
  C6       1.0000 0.39460  0.28760  0.34230  Biso   1.000  C
  H3       1.0000 0.44210  0.64800  0.59170  Biso   1.000  H
  H4       1.0000 0.55790  0.35200  0.40830  Biso   1.000  H
  C7       1.0000 0.98110  0.78280  0.84960  Biso   1.000  C
  C8       1.0000 0.01890  0.21720  0.15040  Biso   1.000  C
  C9       1.0000 0.55370  0.86090  0.54300  Biso   1.000  C
  C10      1.0000 0.44630  0.13910  0.45700  Biso   1.000  C
  H5       1.0000 0.46590  0.93920  0.57330  Biso   1.000  H
  H6       1.0000 0.53410  0.06080  0.42670  Biso   1.000  H
  H7       1.0000 0.36160  0.79150  0.49000  Biso   1.000  H
  H8       1.0000 0.63840  0.20850  0.51000  Biso   1.000  H
  H9       1.0000 0.73730  0.87050  0.49530  Biso   1.000  H
  H10      1.0000 0.26270  0.12950  0.50470  Biso   1.000  H
  O3       1.0000 0.03140  0.62920  0.93880  Biso   1.000  O
  O4       1.0000 0.96860  0.37080  0.06120  Biso   1.000  O
  C11      1.0000 0.14300  0.74690  0.95390  Biso   1.000  C
  C12      1.0000 0.85700  0.25310  0.04610  Biso   1.000  C
  O5       1.0000 0.36610  0.82610  0.04100  Biso   1.000  O
  O6       1.0000 0.63390  0.17390  0.95900  Biso   1.000  O
  H11      1.0000 0.40100  0.32900  0.82100  Biso   1.000  H
  H12      1.0000 0.59900  0.67100  0.17900  Biso   1.000  H
  H13      1.0000 0.75500  0.39700  0.91400  Biso   1.000  H
  H14      1.0000 0.24500  0.60300  0.08600  Biso   1.000  H
  O7       1.0000 0.07420  0.18240  0.73310  Biso   1.000  O
  O8       1.0000 0.92580  0.81760  0.26690  Biso   1.000  O
  H15      1.0000 0.07000  0.11300  0.74900  Biso   1.000  H
  H16      1.0000 0.93000  0.88700  0.25100  Biso   1.000  H
  H17      1.0000 0.85900  0.19900  0.72900  Biso   1.000  H
  H18      1.0000 0.14100  0.80100  0.27100  Biso   1.000  H
