data_image0
_cell_length_a       3.8124
_cell_length_b       11.366
_cell_length_c       11.51
_cell_angle_alpha    111.353
_cell_angle_beta     96.305
_cell_angle_gamma    98.768

_symmetry_space_group_name_H-M    "P 1"
_symmetry_int_tables_number       1

loop_
  _symmetry_equiv_pos_as_xyz
  'x, y, z'

loop_
  _atom_site_label
  _atom_site_occupancy
  _atom_site_fract_x
  _atom_site_fract_y
  _atom_site_fract_z
  _atom_site_thermal_displace_type
  _atom_site_B_iso_or_equiv
  _atom_site_type_symbol
  Cu1      1.0000 0.65800  0.02557  0.28840  Biso   1.000  Cu
  Cu2      1.0000 0.34200  0.97443  0.71160  Biso   1.000  Cu
  Cl1      1.0000 0.14640  0.93730  0.14420  Biso   1.000  Cl
  Cl2      1.0000 0.85360  0.06270  0.85580  Biso   1.000  Cl
  O1       1.0000 0.03290  0.12880  0.43910  Biso   1.000  O
  O2       1.0000 0.96710  0.87120  0.56090  Biso   1.000  O
  O3       1.0000 0.36580  0.32620  0.54080  Biso   1.000  O
  O4       1.0000 0.63420  0.67380  0.45920  Biso   1.000  O
  O5       1.0000 0.60000  0.88780  0.34790  Biso   1.000  O
  O6       1.0000 0.40000  0.11220  0.65210  Biso   1.000  O
  N1       1.0000 0.74370  0.18710  0.25640  Biso   1.000  N
  N2       1.0000 0.25630  0.81290  0.74360  Biso   1.000  N
  N3       1.0000 0.93800  0.42800  0.24650  Biso   1.000  N
  N4       1.0000 0.06200  0.57200  0.75350  Biso   1.000  N
  C1       1.0000 0.70200  0.33240  0.15280  Biso   1.000  C
  C2       1.0000 0.29800  0.66760  0.84720  Biso   1.000  C
  C3       1.0000 0.60900  0.21130  0.15840  Biso   1.000  C
  C4       1.0000 0.39100  0.78870  0.84160  Biso   1.000  C
  H1       1.0000 0.44800  0.14570  0.09140  Biso   1.000  H
  H2       1.0000 0.55200  0.85430  0.90860  Biso   1.000  H
  C5       1.0000 0.98200  0.28330  0.35000  Biso   1.000  C
  C6       1.0000 0.01800  0.71670  0.65000  Biso   1.000  C
  C7       1.0000 0.07100  0.40170  0.34400  Biso   1.000  C
  C8       1.0000 0.92900  0.59830  0.65600  Biso   1.000  C
  H3       1.0000 0.23250  0.46700  0.41120  Biso   1.000  H
  H4       1.0000 0.76750  0.53300  0.58880  Biso   1.000  H
  C9       1.0000 0.55200  0.36190  0.04410  Biso   1.000  C
  C10      1.0000 0.44800  0.63810  0.95590  Biso   1.000  C
  H5       1.0000 0.29800  0.32560  0.01970  Biso   1.000  H
  H6       1.0000 0.70200  0.67440  0.98030  Biso   1.000  H
  H7       1.0000 0.67020  0.32540  0.97390  Biso   1.000  H
  H8       1.0000 0.32980  0.67460  0.02610  Biso   1.000  H
  H9       1.0000 0.59110  0.45380  0.06860  Biso   1.000  H
  H10      1.0000 0.40890  0.54620  0.93140  Biso   1.000  H
  C11      1.0000 0.14000  0.24820  0.45510  Biso   1.000  C
  C12      1.0000 0.86000  0.75180  0.54490  Biso   1.000  C
  H11      1.0000 0.69000  0.89400  0.41900  Biso   1.000  H
  H12      1.0000 0.31000  0.10600  0.58100  Biso   1.000  H
  H13      1.0000 0.41500  0.83000  0.31600  Biso   1.000  H
  H14      1.0000 0.58500  0.17000  0.68400  Biso   1.000  H
  O7       1.0000 0.06800  0.68350  0.23440  Biso   1.000  O
  O8       1.0000 0.93200  0.31650  0.76560  Biso   1.000  O
  H15      1.0000 0.10000  0.61000  0.22400  Biso   1.000  H
  H16      1.0000 0.90000  0.39000  0.77600  Biso   1.000  H
  H17      1.0000 0.88000  0.70000  0.26000  Biso   1.000  H
  H18      1.0000 0.12000  0.30000  0.74000  Biso   1.000  H
