data_image0
_cell_length_a       21.768
_cell_length_b       21.903
_cell_length_c       7.817
_cell_angle_alpha    90
_cell_angle_beta     106.04
_cell_angle_gamma    90

_symmetry_space_group_name_H-M    "P 1"
_symmetry_int_tables_number       1

loop_
  _symmetry_equiv_pos_as_xyz
  'x, y, z'

loop_
  _atom_site_label
  _atom_site_occupancy
  _atom_site_fract_x
  _atom_site_fract_y
  _atom_site_fract_z
  _atom_site_thermal_displace_type
  _atom_site_B_iso_or_equiv
  _atom_site_type_symbol
  Cd1      1.0000 0.00000  0.00000  0.00000  Biso   1.000  Cd
  Cd2      1.0000 0.50000  0.50000  0.00000  Biso   1.000  Cd
  Cu1      1.0000 0.25000  0.25000  0.00000  Biso   1.000  Cu
  Cu2      1.0000 0.75000  0.75000  0.00000  Biso   1.000  Cu
  Cu3      1.0000 0.75000  0.25000  0.00000  Biso   1.000  Cu
  Cu4      1.0000 0.25000  0.75000  0.00000  Biso   1.000  Cu
  Cl1      1.0000 0.08354  0.00000  0.82470  Biso   1.000  Cl
  Cl2      1.0000 0.58354  0.50000  0.82470  Biso   1.000  Cl
  Cl3      1.0000 0.91646  0.00000  0.17530  Biso   1.000  Cl
  Cl4      1.0000 0.41646  0.50000  0.17530  Biso   1.000  Cl
  O1       1.0000 0.25010  0.16717  0.92590  Biso   1.000  O
  O2       1.0000 0.75010  0.66717  0.92590  Biso   1.000  O
  O3       1.0000 0.74990  0.16717  0.07410  Biso   1.000  O
  O4       1.0000 0.24990  0.66717  0.07410  Biso   1.000  O
  O5       1.0000 0.74990  0.83283  0.07410  Biso   1.000  O
  O6       1.0000 0.24990  0.33283  0.07410  Biso   1.000  O
  O7       1.0000 0.25010  0.83283  0.92590  Biso   1.000  O
  O8       1.0000 0.75010  0.33283  0.92590  Biso   1.000  O
  O9       1.0000 0.21819  0.27693  0.75660  Biso   1.000  O
  O10      1.0000 0.71819  0.77693  0.75660  Biso   1.000  O
  O11      1.0000 0.78181  0.27693  0.24340  Biso   1.000  O
  O12      1.0000 0.28181  0.77693  0.24340  Biso   1.000  O
  O13      1.0000 0.78181  0.72307  0.24340  Biso   1.000  O
  O14      1.0000 0.28181  0.22307  0.24340  Biso   1.000  O
  O15      1.0000 0.21819  0.72307  0.75660  Biso   1.000  O
  O16      1.0000 0.71819  0.22307  0.75660  Biso   1.000  O
  N1       1.0000 0.06443  0.07412  0.19950  Biso   1.000  N
  N2       1.0000 0.56443  0.57412  0.19950  Biso   1.000  N
  N3       1.0000 0.93557  0.07412  0.80050  Biso   1.000  N
  N4       1.0000 0.43557  0.57412  0.80050  Biso   1.000  N
  N5       1.0000 0.93557  0.92588  0.80050  Biso   1.000  N
  N6       1.0000 0.43557  0.42588  0.80050  Biso   1.000  N
  N7       1.0000 0.06443  0.92588  0.19950  Biso   1.000  N
  N8       1.0000 0.56443  0.42588  0.19950  Biso   1.000  N
  C1       1.0000 0.22670  0.07680  0.75910  Biso   1.000  C
  C2       1.0000 0.72670  0.57680  0.75910  Biso   1.000  C
  C3       1.0000 0.77330  0.07680  0.24090  Biso   1.000  C
  C4       1.0000 0.27330  0.57680  0.24090  Biso   1.000  C
  C5       1.0000 0.77330  0.92320  0.24090  Biso   1.000  C
  C6       1.0000 0.27330  0.42320  0.24090  Biso   1.000  C
  C7       1.0000 0.22670  0.92320  0.75910  Biso   1.000  C
  C8       1.0000 0.72670  0.42320  0.75910  Biso   1.000  C
  H1       1.0000 0.26650  0.06290  0.84350  Biso   1.000  H
  H2       1.0000 0.76650  0.56290  0.84350  Biso   1.000  H
  H3       1.0000 0.73350  0.06290  0.15650  Biso   1.000  H
  H4       1.0000 0.23350  0.56290  0.15650  Biso   1.000  H
  H5       1.0000 0.73350  0.93710  0.15650  Biso   1.000  H
  H6       1.0000 0.23350  0.43710  0.15650  Biso   1.000  H
  H7       1.0000 0.26650  0.93710  0.84350  Biso   1.000  H
  H8       1.0000 0.76650  0.43710  0.84350  Biso   1.000  H
  H9       1.0000 0.22730  0.06620  0.63780  Biso   1.000  H
  H10      1.0000 0.72730  0.56620  0.63780  Biso   1.000  H
  H11      1.0000 0.77270  0.06620  0.36220  Biso   1.000  H
  H12      1.0000 0.27270  0.56620  0.36220  Biso   1.000  H
  H13      1.0000 0.77270  0.93380  0.36220  Biso   1.000  H
  H14      1.0000 0.27270  0.43380  0.36220  Biso   1.000  H
  H15      1.0000 0.22730  0.93380  0.63780  Biso   1.000  H
  H16      1.0000 0.72730  0.43380  0.63780  Biso   1.000  H
  H17      1.0000 0.19030  0.05680  0.78660  Biso   1.000  H
  H18      1.0000 0.69030  0.55680  0.78660  Biso   1.000  H
  H19      1.0000 0.80970  0.05680  0.21340  Biso   1.000  H
  H20      1.0000 0.30970  0.55680  0.21340  Biso   1.000  H
  H21      1.0000 0.80970  0.94320  0.21340  Biso   1.000  H
  H22      1.0000 0.30970  0.44320  0.21340  Biso   1.000  H
  H23      1.0000 0.19030  0.94320  0.78660  Biso   1.000  H
  H24      1.0000 0.69030  0.44320  0.78660  Biso   1.000  H
  C9       1.0000 0.22080  0.14500  0.77390  Biso   1.000  C
  C10      1.0000 0.72080  0.64500  0.77390  Biso   1.000  C
  C11      1.0000 0.77920  0.14500  0.22610  Biso   1.000  C
  C12      1.0000 0.27920  0.64500  0.22610  Biso   1.000  C
  C13      1.0000 0.77920  0.85500  0.22610  Biso   1.000  C
  C14      1.0000 0.27920  0.35500  0.22610  Biso   1.000  C
  C15      1.0000 0.22080  0.85500  0.77390  Biso   1.000  C
  C16      1.0000 0.72080  0.35500  0.77390  Biso   1.000  C
  C17      1.0000 0.18660  0.17960  0.62600  Biso   1.000  C
  C18      1.0000 0.68660  0.67960  0.62600  Biso   1.000  C
  C19      1.0000 0.81340  0.17960  0.37400  Biso   1.000  C
  C20      1.0000 0.31340  0.67960  0.37400  Biso   1.000  C
  C21      1.0000 0.81340  0.82040  0.37400  Biso   1.000  C
  C22      1.0000 0.31340  0.32040  0.37400  Biso   1.000  C
  C23      1.0000 0.18660  0.82040  0.62600  Biso   1.000  C
  C24      1.0000 0.68660  0.32040  0.62600  Biso   1.000  C
  C25      1.0000 0.18850  0.24420  0.62370  Biso   1.000  C
  C26      1.0000 0.68850  0.74420  0.62370  Biso   1.000  C
  C27      1.0000 0.81150  0.24420  0.37630  Biso   1.000  C
  C28      1.0000 0.31150  0.74420  0.37630  Biso   1.000  C
  C29      1.0000 0.81150  0.75580  0.37630  Biso   1.000  C
  C30      1.0000 0.31150  0.25580  0.37630  Biso   1.000  C
  C31      1.0000 0.18850  0.75580  0.62370  Biso   1.000  C
  C32      1.0000 0.68850  0.25580  0.62370  Biso   1.000  C
  C33      1.0000 0.15580  0.27900  0.45980  Biso   1.000  C
  C34      1.0000 0.65580  0.77900  0.45980  Biso   1.000  C
  C35      1.0000 0.84420  0.27900  0.54020  Biso   1.000  C
  C36      1.0000 0.34420  0.77900  0.54020  Biso   1.000  C
  C37      1.0000 0.84420  0.72100  0.54020  Biso   1.000  C
  C38      1.0000 0.34420  0.22100  0.54020  Biso   1.000  C
  C39      1.0000 0.15580  0.72100  0.45980  Biso   1.000  C
  C40      1.0000 0.65580  0.22100  0.45980  Biso   1.000  C
  H25      1.0000 0.10950  0.27800  0.44290  Biso   1.000  H
  H26      1.0000 0.60950  0.77800  0.44290  Biso   1.000  H
  H27      1.0000 0.89050  0.27800  0.55710  Biso   1.000  H
  H28      1.0000 0.39050  0.77800  0.55710  Biso   1.000  H
  H29      1.0000 0.89050  0.72200  0.55710  Biso   1.000  H
  H30      1.0000 0.39050  0.22200  0.55710  Biso   1.000  H
  H31      1.0000 0.10950  0.72200  0.44290  Biso   1.000  H
  H32      1.0000 0.60950  0.22200  0.44290  Biso   1.000  H
  H33      1.0000 0.16580  0.26040  0.35660  Biso   1.000  H
  H34      1.0000 0.66580  0.76040  0.35660  Biso   1.000  H
  H35      1.0000 0.83420  0.26040  0.64340  Biso   1.000  H
  H36      1.0000 0.33420  0.76040  0.64340  Biso   1.000  H
  H37      1.0000 0.83420  0.73960  0.64340  Biso   1.000  H
  H38      1.0000 0.33420  0.23960  0.64340  Biso   1.000  H
  H39      1.0000 0.16580  0.73960  0.35660  Biso   1.000  H
  H40      1.0000 0.66580  0.23960  0.35660  Biso   1.000  H
  H41      1.0000 0.17070  0.32140  0.47210  Biso   1.000  H
  H42      1.0000 0.67070  0.82140  0.47210  Biso   1.000  H
  H43      1.0000 0.82930  0.32140  0.52790  Biso   1.000  H
  H44      1.0000 0.32930  0.82140  0.52790  Biso   1.000  H
  H45      1.0000 0.82930  0.67860  0.52790  Biso   1.000  H
  H46      1.0000 0.32930  0.17860  0.52790  Biso   1.000  H
  H47      1.0000 0.17070  0.67860  0.47210  Biso   1.000  H
  H48      1.0000 0.67070  0.17860  0.47210  Biso   1.000  H
  C41      1.0000 0.14490  0.14530  0.47200  Biso   1.000  C
  C42      1.0000 0.64490  0.64530  0.47200  Biso   1.000  C
  C43      1.0000 0.85510  0.14530  0.52800  Biso   1.000  C
  C44      1.0000 0.35510  0.64530  0.52800  Biso   1.000  C
  C45      1.0000 0.85510  0.85470  0.52800  Biso   1.000  C
  C46      1.0000 0.35510  0.35470  0.52800  Biso   1.000  C
  C47      1.0000 0.14490  0.85470  0.47200  Biso   1.000  C
  C48      1.0000 0.64490  0.35470  0.47200  Biso   1.000  C
  C49      1.0000 0.09130  0.11540  0.49370  Biso   1.000  C
  C50      1.0000 0.59130  0.61540  0.49370  Biso   1.000  C
  C51      1.0000 0.90870  0.11540  0.50630  Biso   1.000  C
  C52      1.0000 0.40870  0.61540  0.50630  Biso   1.000  C
  C53      1.0000 0.90870  0.88460  0.50630  Biso   1.000  C
  C54      1.0000 0.40870  0.38460  0.50630  Biso   1.000  C
  C55      1.0000 0.09130  0.88460  0.49370  Biso   1.000  C
  C56      1.0000 0.59130  0.38460  0.49370  Biso   1.000  C
  H49      1.0000 0.08080  0.11880  0.60350  Biso   1.000  H
  H50      1.0000 0.58080  0.61880  0.60350  Biso   1.000  H
  H51      1.0000 0.91920  0.11880  0.39650  Biso   1.000  H
  H52      1.0000 0.41920  0.61880  0.39650  Biso   1.000  H
  H53      1.0000 0.91920  0.88120  0.39650  Biso   1.000  H
  H54      1.0000 0.41920  0.38120  0.39650  Biso   1.000  H
  H55      1.0000 0.08080  0.88120  0.60350  Biso   1.000  H
  H56      1.0000 0.58080  0.38120  0.60350  Biso   1.000  H
  C57      1.0000 0.05340  0.08130  0.35830  Biso   1.000  C
  C58      1.0000 0.55340  0.58130  0.35830  Biso   1.000  C
  C59      1.0000 0.94660  0.08130  0.64170  Biso   1.000  C
  C60      1.0000 0.44660  0.58130  0.64170  Biso   1.000  C
  C61      1.0000 0.94660  0.91870  0.64170  Biso   1.000  C
  C62      1.0000 0.44660  0.41870  0.64170  Biso   1.000  C
  C63      1.0000 0.05340  0.91870  0.35830  Biso   1.000  C
  C64      1.0000 0.55340  0.41870  0.35830  Biso   1.000  C
  H57      1.0000 0.01710  0.06150  0.37840  Biso   1.000  H
  H58      1.0000 0.51710  0.56150  0.37840  Biso   1.000  H
  H59      1.0000 0.98290  0.06150  0.62160  Biso   1.000  H
  H60      1.0000 0.48290  0.56150  0.62160  Biso   1.000  H
  H61      1.0000 0.98290  0.93850  0.62160  Biso   1.000  H
  H62      1.0000 0.48290  0.43850  0.62160  Biso   1.000  H
  H63      1.0000 0.01710  0.93850  0.37840  Biso   1.000  H
  H64      1.0000 0.51710  0.43850  0.37840  Biso   1.000  H
  C65      1.0000 0.11630  0.10290  0.17700  Biso   1.000  C
  C66      1.0000 0.61630  0.60290  0.17700  Biso   1.000  C
  C67      1.0000 0.88370  0.10290  0.82300  Biso   1.000  C
  C68      1.0000 0.38370  0.60290  0.82300  Biso   1.000  C
  C69      1.0000 0.88370  0.89710  0.82300  Biso   1.000  C
  C70      1.0000 0.38370  0.39710  0.82300  Biso   1.000  C
  C71      1.0000 0.11630  0.89710  0.17700  Biso   1.000  C
  C72      1.0000 0.61630  0.39710  0.17700  Biso   1.000  C
  H65      1.0000 0.12570  0.09870  0.06590  Biso   1.000  H
  H66      1.0000 0.62570  0.59870  0.06590  Biso   1.000  H
  H67      1.0000 0.87430  0.09870  0.93410  Biso   1.000  H
  H68      1.0000 0.37430  0.59870  0.93410  Biso   1.000  H
  H69      1.0000 0.87430  0.90130  0.93410  Biso   1.000  H
  H70      1.0000 0.37430  0.40130  0.93410  Biso   1.000  H
  H71      1.0000 0.12570  0.90130  0.06590  Biso   1.000  H
  H72      1.0000 0.62570  0.40130  0.06590  Biso   1.000  H
  C73      1.0000 0.15700  0.13850  0.30860  Biso   1.000  C
  C74      1.0000 0.65700  0.63850  0.30860  Biso   1.000  C
  C75      1.0000 0.84300  0.13850  0.69140  Biso   1.000  C
  C76      1.0000 0.34300  0.63850  0.69140  Biso   1.000  C
  C77      1.0000 0.84300  0.86150  0.69140  Biso   1.000  C
  C78      1.0000 0.34300  0.36150  0.69140  Biso   1.000  C
  C79      1.0000 0.15700  0.86150  0.30860  Biso   1.000  C
  C80      1.0000 0.65700  0.36150  0.30860  Biso   1.000  C
  H73      1.0000 0.19300  0.15800  0.28580  Biso   1.000  H
  H74      1.0000 0.69300  0.65800  0.28580  Biso   1.000  H
  H75      1.0000 0.80700  0.15800  0.71420  Biso   1.000  H
  H76      1.0000 0.30700  0.65800  0.71420  Biso   1.000  H
  H77      1.0000 0.80700  0.84200  0.71420  Biso   1.000  H
  H78      1.0000 0.30700  0.34200  0.71420  Biso   1.000  H
  H79      1.0000 0.19300  0.84200  0.28580  Biso   1.000  H
  H80      1.0000 0.69300  0.34200  0.28580  Biso   1.000  H
  O17      1.0000 0.25980  0.00000  0.24900  Biso   1.000  O
  O18      1.0000 0.75980  0.50000  0.24900  Biso   1.000  O
  O19      1.0000 0.74020  0.00000  0.75100  Biso   1.000  O
  O20      1.0000 0.24020  0.50000  0.75100  Biso   1.000  O
  O21      1.0000 0.13260  0.24920  0.99800  Biso   1.000  O
  O22      1.0000 0.63260  0.74920  0.99800  Biso   1.000  O
  O23      1.0000 0.86740  0.24920  0.00200  Biso   1.000  O
  O24      1.0000 0.36740  0.74920  0.00200  Biso   1.000  O
  O25      1.0000 0.86740  0.75080  0.00200  Biso   1.000  O
  O26      1.0000 0.36740  0.25080  0.00200  Biso   1.000  O
  O27      1.0000 0.13260  0.75080  0.99800  Biso   1.000  O
  O28      1.0000 0.63260  0.25080  0.99800  Biso   1.000  O
  C81      1.0000 0.30440  0.05410  0.27990  Biso   1.000  C
  C82      1.0000 0.80440  0.55410  0.27990  Biso   1.000  C
  C83      1.0000 0.69560  0.05410  0.72010  Biso   1.000  C
  C84      1.0000 0.19560  0.55410  0.72010  Biso   1.000  C
  C85      1.0000 0.69560  0.94590  0.72010  Biso   1.000  C
  C86      1.0000 0.19560  0.44590  0.72010  Biso   1.000  C
  C87      1.0000 0.30440  0.94590  0.27990  Biso   1.000  C
  C88      1.0000 0.80440  0.44590  0.27990  Biso   1.000  C
  H81      1.0000 0.28350  0.09040  0.21300  Biso   1.000  H
  H82      1.0000 0.78350  0.59040  0.21300  Biso   1.000  H
  H83      1.0000 0.71650  0.09040  0.78700  Biso   1.000  H
  H84      1.0000 0.21650  0.59040  0.78700  Biso   1.000  H
  H85      1.0000 0.71650  0.90960  0.78700  Biso   1.000  H
  H86      1.0000 0.21650  0.40960  0.78700  Biso   1.000  H
  H87      1.0000 0.28350  0.90960  0.21300  Biso   1.000  H
  H88      1.0000 0.78350  0.40960  0.21300  Biso   1.000  H
  H89      1.0000 0.32010  0.06440  0.40790  Biso   1.000  H
  H90      1.0000 0.82010  0.56440  0.40790  Biso   1.000  H
  H91      1.0000 0.67990  0.06440  0.59210  Biso   1.000  H
  H92      1.0000 0.17990  0.56440  0.59210  Biso   1.000  H
  H93      1.0000 0.67990  0.93560  0.59210  Biso   1.000  H
  H94      1.0000 0.17990  0.43560  0.59210  Biso   1.000  H
  H95      1.0000 0.32010  0.93560  0.40790  Biso   1.000  H
  H96      1.0000 0.82010  0.43560  0.40790  Biso   1.000  H
  C89      1.0000 0.35550  0.03130  0.21100  Biso   1.000  C
  C90      1.0000 0.85550  0.53130  0.21100  Biso   1.000  C
  C91      1.0000 0.64450  0.03130  0.78900  Biso   1.000  C
  C92      1.0000 0.14450  0.53130  0.78900  Biso   1.000  C
  C93      1.0000 0.64450  0.96870  0.78900  Biso   1.000  C
  C94      1.0000 0.14450  0.46870  0.78900  Biso   1.000  C
  C95      1.0000 0.35550  0.96870  0.21100  Biso   1.000  C
  C96      1.0000 0.85550  0.46870  0.21100  Biso   1.000  C
  H97      1.0000 0.34950  0.04650  0.08810  Biso   1.000  H
  H98      1.0000 0.84950  0.54650  0.08810  Biso   1.000  H
  H99      1.0000 0.65050  0.04650  0.91190  Biso   1.000  H
  H100     1.0000 0.15050  0.54650  0.91190  Biso   1.000  H
  H101     1.0000 0.65050  0.95350  0.91190  Biso   1.000  H
  H102     1.0000 0.15050  0.45350  0.91190  Biso   1.000  H
  H103     1.0000 0.34950  0.95350  0.08810  Biso   1.000  H
  H104     1.0000 0.84950  0.45350  0.08810  Biso   1.000  H
  H105     1.0000 0.39710  0.04650  0.28550  Biso   1.000  H
  H106     1.0000 0.89710  0.54650  0.28550  Biso   1.000  H
  H107     1.0000 0.60290  0.04650  0.71450  Biso   1.000  H
  H108     1.0000 0.10290  0.54650  0.71450  Biso   1.000  H
  H109     1.0000 0.60290  0.95350  0.71450  Biso   1.000  H
  H110     1.0000 0.10290  0.45350  0.71450  Biso   1.000  H
  H111     1.0000 0.39710  0.95350  0.28550  Biso   1.000  H
  H112     1.0000 0.89710  0.45350  0.28550  Biso   1.000  H
  C97      1.0000 0.09720  0.30790  0.95340  Biso   1.000  C
  C98      1.0000 0.59720  0.80790  0.95340  Biso   1.000  C
  C99      1.0000 0.90280  0.30790  0.04660  Biso   1.000  C
  C100     1.0000 0.40280  0.80790  0.04660  Biso   1.000  C
  C101     1.0000 0.90280  0.69210  0.04660  Biso   1.000  C
  C102     1.0000 0.40280  0.19210  0.04660  Biso   1.000  C
  C103     1.0000 0.09720  0.69210  0.95340  Biso   1.000  C
  C104     1.0000 0.59720  0.19210  0.95340  Biso   1.000  C
  H113     1.0000 0.07960  0.31870  0.05360  Biso   1.000  H
  H114     1.0000 0.57960  0.81870  0.05360  Biso   1.000  H
  H115     1.0000 0.92040  0.31870  0.94640  Biso   1.000  H
  H116     1.0000 0.42040  0.81870  0.94640  Biso   1.000  H
  H117     1.0000 0.92040  0.68130  0.94640  Biso   1.000  H
  H118     1.0000 0.42040  0.18130  0.94640  Biso   1.000  H
  H119     1.0000 0.07960  0.68130  0.05360  Biso   1.000  H
  H120     1.0000 0.57960  0.18130  0.05360  Biso   1.000  H
  H121     1.0000 0.12820  0.34000  0.94570  Biso   1.000  H
  H122     1.0000 0.62820  0.84000  0.94570  Biso   1.000  H
  H123     1.0000 0.87180  0.34000  0.05430  Biso   1.000  H
  H124     1.0000 0.37180  0.84000  0.05430  Biso   1.000  H
  H125     1.0000 0.87180  0.66000  0.05430  Biso   1.000  H
  H126     1.0000 0.37180  0.16000  0.05430  Biso   1.000  H
  H127     1.0000 0.12820  0.66000  0.94570  Biso   1.000  H
  H128     1.0000 0.62820  0.16000  0.94570  Biso   1.000  H
  C105     1.0000 0.04620  0.30950  0.79400  Biso   1.000  C
  C106     1.0000 0.54620  0.80950  0.79400  Biso   1.000  C
  C107     1.0000 0.95380  0.30950  0.20600  Biso   1.000  C
  C108     1.0000 0.45380  0.80950  0.20600  Biso   1.000  C
  C109     1.0000 0.95380  0.69050  0.20600  Biso   1.000  C
  C110     1.0000 0.45380  0.19050  0.20600  Biso   1.000  C
  C111     1.0000 0.04620  0.69050  0.79400  Biso   1.000  C
  C112     1.0000 0.54620  0.19050  0.79400  Biso   1.000  C
  H129     1.0000 0.06010  0.32790  0.69510  Biso   1.000  H
  H130     1.0000 0.56010  0.82790  0.69510  Biso   1.000  H
  H131     1.0000 0.93990  0.32790  0.30490  Biso   1.000  H
  H132     1.0000 0.43990  0.82790  0.30490  Biso   1.000  H
  H133     1.0000 0.93990  0.67210  0.30490  Biso   1.000  H
  H134     1.0000 0.43990  0.17210  0.30490  Biso   1.000  H
  H135     1.0000 0.06010  0.67210  0.69510  Biso   1.000  H
  H136     1.0000 0.56010  0.17210  0.69510  Biso   1.000  H
  H137     1.0000 0.00930  0.33270  0.81070  Biso   1.000  H
  H138     1.0000 0.50930  0.83270  0.81070  Biso   1.000  H
  H139     1.0000 0.99070  0.33270  0.18930  Biso   1.000  H
  H140     1.0000 0.49070  0.83270  0.18930  Biso   1.000  H
  H141     1.0000 0.99070  0.66730  0.18930  Biso   1.000  H
  H142     1.0000 0.49070  0.16730  0.18930  Biso   1.000  H
  H143     1.0000 0.00930  0.66730  0.81070  Biso   1.000  H
  H144     1.0000 0.50930  0.16730  0.81070  Biso   1.000  H
  C113     1.0000 0.02910  0.24010  0.75740  Biso   1.000  C
  C114     1.0000 0.52910  0.74010  0.75740  Biso   1.000  C
  C115     1.0000 0.97090  0.24010  0.24260  Biso   1.000  C
  C116     1.0000 0.47090  0.74010  0.24260  Biso   1.000  C
  C117     1.0000 0.97090  0.75990  0.24260  Biso   1.000  C
  C118     1.0000 0.47090  0.25990  0.24260  Biso   1.000  C
  C119     1.0000 0.02910  0.75990  0.75740  Biso   1.000  C
  C120     1.0000 0.52910  0.25990  0.75740  Biso   1.000  C
  H145     1.0000 0.98540  0.22980  0.76340  Biso   1.000  H
  H146     1.0000 0.48540  0.72980  0.76340  Biso   1.000  H
  H147     1.0000 0.01460  0.22980  0.23660  Biso   1.000  H
  H148     1.0000 0.51460  0.72980  0.23660  Biso   1.000  H
  H149     1.0000 0.01460  0.77020  0.23660  Biso   1.000  H
  H150     1.0000 0.51460  0.27020  0.23660  Biso   1.000  H
  H151     1.0000 0.98540  0.77020  0.76340  Biso   1.000  H
  H152     1.0000 0.48540  0.27020  0.76340  Biso   1.000  H
  H153     1.0000 0.03600  0.22520  0.64460  Biso   1.000  H
  H154     1.0000 0.53600  0.72520  0.64460  Biso   1.000  H
  H155     1.0000 0.96400  0.22520  0.35540  Biso   1.000  H
  H156     1.0000 0.46400  0.72520  0.35540  Biso   1.000  H
  H157     1.0000 0.96400  0.77480  0.35540  Biso   1.000  H
  H158     1.0000 0.46400  0.27480  0.35540  Biso   1.000  H
  H159     1.0000 0.03600  0.77480  0.64460  Biso   1.000  H
  H160     1.0000 0.53600  0.27480  0.64460  Biso   1.000  H
  C121     1.0000 0.07830  0.22090  0.91300  Biso   1.000  C
  C122     1.0000 0.57830  0.72090  0.91300  Biso   1.000  C
  C123     1.0000 0.92170  0.22090  0.08700  Biso   1.000  C
  C124     1.0000 0.42170  0.72090  0.08700  Biso   1.000  C
  C125     1.0000 0.92170  0.77910  0.08700  Biso   1.000  C
  C126     1.0000 0.42170  0.27910  0.08700  Biso   1.000  C
  C127     1.0000 0.07830  0.77910  0.91300  Biso   1.000  C
  C128     1.0000 0.57830  0.27910  0.91300  Biso   1.000  C
  H161     1.0000 0.05580  0.21370  0.00500  Biso   1.000  H
  H162     1.0000 0.55580  0.71370  0.00500  Biso   1.000  H
  H163     1.0000 0.94420  0.21370  0.99500  Biso   1.000  H
  H164     1.0000 0.44420  0.71370  0.99500  Biso   1.000  H
  H165     1.0000 0.94420  0.78630  0.99500  Biso   1.000  H
  H166     1.0000 0.44420  0.28630  0.99500  Biso   1.000  H
  H167     1.0000 0.05580  0.78630  0.00500  Biso   1.000  H
  H168     1.0000 0.55580  0.28630  0.00500  Biso   1.000  H
  H169     1.0000 0.09180  0.18020  0.88180  Biso   1.000  H
  H170     1.0000 0.59180  0.68020  0.88180  Biso   1.000  H
  H171     1.0000 0.90820  0.18020  0.11820  Biso   1.000  H
  H172     1.0000 0.40820  0.68020  0.11820  Biso   1.000  H
  H173     1.0000 0.90820  0.81980  0.11820  Biso   1.000  H
  H174     1.0000 0.40820  0.31980  0.11820  Biso   1.000  H
  H175     1.0000 0.09180  0.81980  0.88180  Biso   1.000  H
  H176     1.0000 0.59180  0.31980  0.88180  Biso   1.000  H
  O29      1.0000 0.50000  0.00000  0.00000  Biso   1.000  O
  O30      1.0000 0.00000  0.50000  0.00000  Biso   1.000  O
