data_image0
_cell_length_a       13.817
_cell_length_b       15.205
_cell_length_c       17.044
_cell_angle_alpha    111.732
_cell_angle_beta     111.661
_cell_angle_gamma    94.909

_symmetry_space_group_name_H-M    "P 1"
_symmetry_int_tables_number       1

loop_
  _symmetry_equiv_pos_as_xyz
  'x, y, z'

loop_
  _atom_site_label
  _atom_site_occupancy
  _atom_site_fract_x
  _atom_site_fract_y
  _atom_site_fract_z
  _atom_site_thermal_displace_type
  _atom_site_B_iso_or_equiv
  _atom_site_type_symbol
  Cd1      1.0000 0.73323  0.47138  0.39676  Biso   1.000  Cd
  Cd2      1.0000 0.26677  0.52862  0.60324  Biso   1.000  Cd
  Cu1      1.0000 0.21350  0.01378  0.42899  Biso   1.000  Cu
  Cu2      1.0000 0.78650  0.98622  0.57101  Biso   1.000  Cu
  Cu3      1.0000 0.00000  0.00000  0.00000  Biso   1.000  Cu
  O1       1.0000 0.19179  0.10183  0.37070  Biso   1.000  O
  O2       1.0000 0.80821  0.89817  0.62930  Biso   1.000  O
  O3       1.0000 0.36570  0.06120  0.48270  Biso   1.000  O
  O4       1.0000 0.63430  0.93880  0.51730  Biso   1.000  O
  O5       1.0000 0.23700  0.93910  0.50110  Biso   1.000  O
  O6       1.0000 0.76300  0.06090  0.49890  Biso   1.000  O
  O7       1.0000 0.06102  0.98245  0.39520  Biso   1.000  O
  O8       1.0000 0.93898  0.01755  0.60480  Biso   1.000  O
  O9       1.0000 0.96350  0.00035  0.09770  Biso   1.000  O
  O10      1.0000 0.03650  0.99965  0.90230  Biso   1.000  O
  O11      1.0000 0.99810  0.13407  0.03350  Biso   1.000  O
  O12      1.0000 0.00190  0.86593  0.96650  Biso   1.000  O
  O13      1.0000 0.78170  0.56480  0.56340  Biso   1.000  O
  O14      1.0000 0.21830  0.43520  0.43660  Biso   1.000  O
  O15      1.0000 0.86780  0.45630  0.52880  Biso   1.000  O
  O16      1.0000 0.13220  0.54370  0.47120  Biso   1.000  O
  O17      1.0000 0.90410  0.54060  0.67350  Biso   1.000  O
  O18      1.0000 0.09590  0.45940  0.32650  Biso   1.000  O
  O19      1.0000 0.60290  0.56750  0.37250  Biso   1.000  O
  O20      1.0000 0.39710  0.43250  0.62750  Biso   1.000  O
  O21      1.0000 0.60890  0.46330  0.24990  Biso   1.000  O
  O22      1.0000 0.39110  0.53670  0.75010  Biso   1.000  O
  O23      1.0000 0.50130  0.55690  0.23340  Biso   1.000  O
  O24      1.0000 0.49870  0.44310  0.76660  Biso   1.000  O
  O25      1.0000 0.19130  0.88310  0.29170  Biso   1.000  O
  O26      1.0000 0.80870  0.11690  0.70830  Biso   1.000  O
  O27      1.0000 0.20520  0.04650  0.09910  Biso   1.000  O
  O28      1.0000 0.79480  0.95350  0.90090  Biso   1.000  O
  O29      1.0000 0.26040  0.55050  0.25110  Biso   1.000  O
  O30      1.0000 0.73960  0.44950  0.74890  Biso   1.000  O
  O31      1.0000 0.20700  0.65790  0.28990  Biso   1.000  O
  O32      1.0000 0.79300  0.34210  0.71010  Biso   1.000  O
  N1       1.0000 0.60180  0.36441  0.39520  Biso   1.000  N
  N2       1.0000 0.39820  0.63559  0.60480  Biso   1.000  N
  N3       1.0000 0.85020  0.60385  0.41550  Biso   1.000  N
  N4       1.0000 0.14980  0.39615  0.58450  Biso   1.000  N
  N5       1.0000 0.79510  0.35356  0.30790  Biso   1.000  N
  N6       1.0000 0.20490  0.64644  0.69210  Biso   1.000  N
  N7       1.0000 0.85250  0.52130  0.59050  Biso   1.000  N
  N8       1.0000 0.14750  0.47870  0.40950  Biso   1.000  N
  N9       1.0000 0.56960  0.53040  0.28490  Biso   1.000  N
  N10      1.0000 0.43040  0.46960  0.71510  Biso   1.000  N
  C1       1.0000 0.22040  0.20510  0.30440  Biso   1.000  C
  C2       1.0000 0.77960  0.79490  0.69560  Biso   1.000  C
  H1       1.0000 0.14530  0.17200  0.26190  Biso   1.000  H
  H2       1.0000 0.85470  0.82800  0.73810  Biso   1.000  H
  H3       1.0000 0.26140  0.20350  0.26860  Biso   1.000  H
  H4       1.0000 0.73860  0.79650  0.73140  Biso   1.000  H
  H5       1.0000 0.22640  0.27270  0.34320  Biso   1.000  H
  H6       1.0000 0.77360  0.72730  0.65680  Biso   1.000  H
  C3       1.0000 0.26360  0.15470  0.36530  Biso   1.000  C
  C4       1.0000 0.73640  0.84530  0.63470  Biso   1.000  C
  C5       1.0000 0.37590  0.16760  0.41260  Biso   1.000  C
  C6       1.0000 0.62410  0.83240  0.58740  Biso   1.000  C
  C7       1.0000 0.42010  0.12200  0.47050  Biso   1.000  C
  C8       1.0000 0.57990  0.87800  0.52950  Biso   1.000  C
  C9       1.0000 0.53950  0.14020  0.52080  Biso   1.000  C
  C10      1.0000 0.46050  0.85980  0.47920  Biso   1.000  C
  H7       1.0000 0.55600  0.11690  0.56890  Biso   1.000  H
  H8       1.0000 0.44400  0.88310  0.43110  Biso   1.000  H
  H9       1.0000 0.57280  0.20990  0.54960  Biso   1.000  H
  H10      1.0000 0.42720  0.79010  0.45040  Biso   1.000  H
  H11      1.0000 0.56700  0.10570  0.47660  Biso   1.000  H
  H12      1.0000 0.43300  0.89430  0.52340  Biso   1.000  H
  C11      1.0000 0.45050  0.23580  0.40300  Biso   1.000  C
  C12      1.0000 0.54950  0.76420  0.59700  Biso   1.000  C
  C13      1.0000 0.49260  0.20450  0.33890  Biso   1.000  C
  C14      1.0000 0.50740  0.79550  0.66110  Biso   1.000  C
  H13      1.0000 0.47040  0.13810  0.29580  Biso   1.000  H
  H14      1.0000 0.52960  0.86190  0.70420  Biso   1.000  H
  C15      1.0000 0.56720  0.26970  0.33690  Biso   1.000  C
  C16      1.0000 0.43280  0.73030  0.66310  Biso   1.000  C
  H15      1.0000 0.59460  0.24580  0.29230  Biso   1.000  H
  H16      1.0000 0.40540  0.75420  0.70770  Biso   1.000  H
  C17      1.0000 0.56380  0.39490  0.45860  Biso   1.000  C
  C18      1.0000 0.43620  0.60510  0.54140  Biso   1.000  C
  H17      1.0000 0.58890  0.46130  0.50200  Biso   1.000  H
  H18      1.0000 0.41110  0.53870  0.49800  Biso   1.000  H
  C19      1.0000 0.48860  0.33370  0.46410  Biso   1.000  C
  C20      1.0000 0.51140  0.66630  0.53590  Biso   1.000  C
  H19      1.0000 0.46350  0.35940  0.51000  Biso   1.000  H
  H20      1.0000 0.53650  0.64060  0.49000  Biso   1.000  H
  C21      1.0000 0.21240  0.81920  0.55230  Biso   1.000  C
  C22      1.0000 0.78760  0.18080  0.44770  Biso   1.000  C
  H21      1.0000 0.28690  0.85370  0.59600  Biso   1.000  H
  H22      1.0000 0.71310  0.14630  0.40400  Biso   1.000  H
  H23      1.0000 0.20900  0.75330  0.51150  Biso   1.000  H
  H24      1.0000 0.79100  0.24670  0.48850  Biso   1.000  H
  H25      1.0000 0.17090  0.81600  0.58670  Biso   1.000  H
  H26      1.0000 0.82910  0.18400  0.41330  Biso   1.000  H
  C23      1.0000 0.16620  0.87330  0.49380  Biso   1.000  C
  C24      1.0000 0.83380  0.12670  0.50620  Biso   1.000  C
  C25      1.0000 0.05480  0.85260  0.44060  Biso   1.000  C
  C26      1.0000 0.94520  0.14740  0.55940  Biso   1.000  C
  C27      1.0000 0.00810  0.91050  0.39670  Biso   1.000  C
  C28      1.0000 0.99190  0.08950  0.60330  Biso   1.000  C
  C29      1.0000 0.88790  0.89250  0.34930  Biso   1.000  C
  C30      1.0000 0.11210  0.10750  0.65070  Biso   1.000  C
  H27      1.0000 0.87040  0.94150  0.32630  Biso   1.000  H
  H28      1.0000 0.12960  0.05850  0.67370  Biso   1.000  H
  H29      1.0000 0.85830  0.89670  0.39370  Biso   1.000  H
  H30      1.0000 0.14170  0.10330  0.60630  Biso   1.000  H
  H31      1.0000 0.85720  0.82780  0.29710  Biso   1.000  H
  H32      1.0000 0.14280  0.17220  0.70290  Biso   1.000  H
  C31      1.0000 0.98350  0.76680  0.43300  Biso   1.000  C
  C32      1.0000 0.01650  0.23320  0.56700  Biso   1.000  C
  C33      1.0000 0.92040  0.77740  0.48100  Biso   1.000  C
  C34      1.0000 0.07960  0.22260  0.51900  Biso   1.000  C
  H33      1.0000 0.92210  0.84020  0.52150  Biso   1.000  H
  H34      1.0000 0.07790  0.15980  0.47850  Biso   1.000  H
  C35      1.0000 0.85510  0.69530  0.46930  Biso   1.000  C
  C36      1.0000 0.14490  0.30470  0.53070  Biso   1.000  C
  H35      1.0000 0.81130  0.70450  0.50130  Biso   1.000  H
  H36      1.0000 0.18870  0.29550  0.49870  Biso   1.000  H
  C37      1.0000 0.91330  0.59310  0.37000  Biso   1.000  C
  C38      1.0000 0.08670  0.40690  0.63000  Biso   1.000  C
  H37      1.0000 0.91270  0.52950  0.33200  Biso   1.000  H
  H38      1.0000 0.08730  0.47050  0.66800  Biso   1.000  H
  C39      1.0000 0.97860  0.67230  0.37740  Biso   1.000  C
  C40      1.0000 0.02140  0.32770  0.62260  Biso   1.000  C
  H39      1.0000 0.02070  0.66160  0.34390  Biso   1.000  H
  H40      1.0000 0.97930  0.33840  0.65610  Biso   1.000  H
  C41      1.0000 0.89620  0.03710  0.21030  Biso   1.000  C
  C42      1.0000 0.10380  0.96290  0.78970  Biso   1.000  C
  H41      1.0000 0.86340  0.96720  0.18040  Biso   1.000  H
  H42      1.0000 0.13660  0.03280  0.81960  Biso   1.000  H
  H43      1.0000 0.84490  0.07250  0.22370  Biso   1.000  H
  H44      1.0000 0.15510  0.92750  0.77630  Biso   1.000  H
  H45      1.0000 0.95940  0.05380  0.26820  Biso   1.000  H
  H46      1.0000 0.04060  0.94620  0.73180  Biso   1.000  H
  C43      1.0000 0.92940  0.06490  0.14490  Biso   1.000  C
  C44      1.0000 0.07060  0.93510  0.85510  Biso   1.000  C
  C45      1.0000 0.92260  0.15520  0.14240  Biso   1.000  C
  C46      1.0000 0.07740  0.84480  0.85760  Biso   1.000  C
  C47      1.0000 0.96200  0.18570  0.08880  Biso   1.000  C
  C48      1.0000 0.03800  0.81430  0.91120  Biso   1.000  C
  C49      1.0000 0.96630  0.28720  0.09590  Biso   1.000  C
  C50      1.0000 0.03370  0.71280  0.90410  Biso   1.000  C
  H47      1.0000 0.01200  0.30210  0.06850  Biso   1.000  H
  H48      1.0000 0.98800  0.69790  0.93150  Biso   1.000  H
  H49      1.0000 0.99550  0.33380  0.16130  Biso   1.000  H
  H50      1.0000 0.00450  0.66620  0.83870  Biso   1.000  H
  H51      1.0000 0.89420  0.29160  0.06260  Biso   1.000  H
  H52      1.0000 0.10580  0.70840  0.93740  Biso   1.000  H
  C51      1.0000 0.87820  0.22330  0.20040  Biso   1.000  C
  C52      1.0000 0.12180  0.77670  0.79960  Biso   1.000  C
  C53      1.0000 0.93200  0.27000  0.29680  Biso   1.000  C
  C54      1.0000 0.06800  0.73000  0.70320  Biso   1.000  C
  H53      1.0000 0.99800  0.25870  0.32820  Biso   1.000  H
  H54      1.0000 0.00200  0.74130  0.67180  Biso   1.000  H
  C55      1.0000 0.88800  0.33350  0.34660  Biso   1.000  C
  C56      1.0000 0.11200  0.66650  0.65340  Biso   1.000  C
  H55      1.0000 0.92620  0.36460  0.41230  Biso   1.000  H
  H56      1.0000 0.07380  0.63540  0.58770  Biso   1.000  H
  C57      1.0000 0.74210  0.30700  0.21460  Biso   1.000  C
  C58      1.0000 0.25790  0.69300  0.78540  Biso   1.000  C
  H57      1.0000 0.67550  0.31880  0.18500  Biso   1.000  H
  H58      1.0000 0.32450  0.68120  0.81500  Biso   1.000  H
  C59      1.0000 0.78080  0.24280  0.16020  Biso   1.000  C
  C60      1.0000 0.21920  0.75720  0.83980  Biso   1.000  C
  H59      1.0000 0.74060  0.21180  0.09470  Biso   1.000  H
  H60      1.0000 0.25940  0.78820  0.90530  Biso   1.000  H
  C61      1.0000 0.08210  0.84820  0.18880  Biso   1.000  C
  C62      1.0000 0.91790  0.15180  0.81120  Biso   1.000  C
  C63      1.0000 0.26350  0.98260  0.11850  Biso   1.000  C
  C64      1.0000 0.73650  0.01740  0.88150  Biso   1.000  C
