data_image0
_cell_length_a       12.9161
_cell_length_b       11.1485
_cell_length_c       15.006
_cell_angle_alpha    90
_cell_angle_beta     106.642
_cell_angle_gamma    90

_symmetry_space_group_name_H-M    "P 1"
_symmetry_int_tables_number       1

loop_
  _symmetry_equiv_pos_as_xyz
  'x, y, z'

loop_
  _atom_site_label
  _atom_site_occupancy
  _atom_site_fract_x
  _atom_site_fract_y
  _atom_site_fract_z
  _atom_site_thermal_displace_type
  _atom_site_B_iso_or_equiv
  _atom_site_type_symbol
  Cu1      1.0000 0.25000  0.47370  0.25000  Biso   1.000  Cu
  Cu2      1.0000 0.75000  0.52630  0.75000  Biso   1.000  Cu
  Cl1      1.0000 0.91660  0.78886  0.10145  Biso   1.000  Cl
  Cl2      1.0000 0.58340  0.78886  0.39855  Biso   1.000  Cl
  Cl3      1.0000 0.08340  0.21114  0.89855  Biso   1.000  Cl
  Cl4      1.0000 0.41660  0.21114  0.60145  Biso   1.000  Cl
  N1       1.0000 0.34160  0.47670  0.15780  Biso   1.000  N
  N2       1.0000 0.15840  0.47670  0.34220  Biso   1.000  N
  N3       1.0000 0.65840  0.52330  0.84220  Biso   1.000  N
  N4       1.0000 0.84160  0.52330  0.65780  Biso   1.000  N
  N5       1.0000 0.25000  0.29100  0.25000  Biso   1.000  N
  N6       1.0000 0.75000  0.70900  0.75000  Biso   1.000  N
  N7       1.0000 0.25000  0.65610  0.25000  Biso   1.000  N
  N8       1.0000 0.75000  0.34390  0.75000  Biso   1.000  N
  N9       1.0000 0.43260  0.00640  0.12270  Biso   1.000  N
  N10      1.0000 0.06740  0.00640  0.37730  Biso   1.000  N
  N11      1.0000 0.56740  0.99360  0.87730  Biso   1.000  N
  N12      1.0000 0.93260  0.99360  0.62270  Biso   1.000  N
  N13      1.0000 0.90810  0.31980  0.10720  Biso   1.000  N
  N14      1.0000 0.59190  0.31980  0.39280  Biso   1.000  N
  N15      1.0000 0.09190  0.68020  0.89280  Biso   1.000  N
  N16      1.0000 0.40810  0.68020  0.60720  Biso   1.000  N
  O1       1.0000 0.80450  0.80090  0.07730  Biso   1.000  O
  O2       1.0000 0.69550  0.80090  0.42270  Biso   1.000  O
  O3       1.0000 0.19550  0.19910  0.92270  Biso   1.000  O
  O4       1.0000 0.30450  0.19910  0.57730  Biso   1.000  O
  O5       1.0000 0.08250  0.48390  0.11760  Biso   1.000  O
  O6       1.0000 0.41750  0.48390  0.38240  Biso   1.000  O
  O7       1.0000 0.91750  0.51610  0.88240  Biso   1.000  O
  O8       1.0000 0.58250  0.51610  0.61760  Biso   1.000  O
  H1       1.0000 0.04900  0.54800  0.09400  Biso   1.000  H
  H2       1.0000 0.45100  0.54800  0.40600  Biso   1.000  H
  H3       1.0000 0.95100  0.45200  0.90600  Biso   1.000  H
  H4       1.0000 0.54900  0.45200  0.59400  Biso   1.000  H
  H5       1.0000 0.03800  0.43900  0.10300  Biso   1.000  H
  H6       1.0000 0.46200  0.43900  0.39700  Biso   1.000  H
  H7       1.0000 0.96200  0.56100  0.89700  Biso   1.000  H
  H8       1.0000 0.53800  0.56100  0.60300  Biso   1.000  H
  O9       1.0000 0.96250  0.76380  0.19390  Biso   1.000  O
  O10      1.0000 0.53750  0.76380  0.30610  Biso   1.000  O
  O11      1.0000 0.03750  0.23620  0.80610  Biso   1.000  O
  O12      1.0000 0.46250  0.23620  0.69390  Biso   1.000  O
  O13      1.0000 0.75000  0.65630  0.25000  Biso   1.000  O
  O14      1.0000 0.25000  0.34370  0.75000  Biso   1.000  O
  H9       1.0000 0.75000  0.58340  0.25000  Biso   1.000  H
  H10      1.0000 0.25000  0.41660  0.75000  Biso   1.000  H
  O15      1.0000 0.96010  0.89740  0.08090  Biso   1.000  O
  O16      1.0000 0.53990  0.89740  0.41910  Biso   1.000  O
  O17      1.0000 0.03990  0.10260  0.91910  Biso   1.000  O
  O18      1.0000 0.46010  0.10260  0.58090  Biso   1.000  O
  O19      1.0000 0.94620  0.69530  0.04870  Biso   1.000  O
  O20      1.0000 0.55380  0.69530  0.45130  Biso   1.000  O
  O21      1.0000 0.05380  0.30470  0.95130  Biso   1.000  O
  O22      1.0000 0.44620  0.30470  0.54870  Biso   1.000  O
  C1       1.0000 0.43660  0.53470  0.18040  Biso   1.000  C
  C2       1.0000 0.06340  0.53470  0.31960  Biso   1.000  C
  C3       1.0000 0.56340  0.46530  0.81960  Biso   1.000  C
  C4       1.0000 0.93660  0.46530  0.68040  Biso   1.000  C
  H11      1.0000 0.46080  0.56910  0.23920  Biso   1.000  H
  H12      1.0000 0.03920  0.56910  0.26080  Biso   1.000  H
  H13      1.0000 0.53920  0.43090  0.76080  Biso   1.000  H
  H14      1.0000 0.96080  0.43090  0.73920  Biso   1.000  H
  C5       1.0000 0.50020  0.54610  0.12120  Biso   1.000  C
  C6       1.0000 0.99980  0.54610  0.37880  Biso   1.000  C
  C7       1.0000 0.49980  0.45390  0.87880  Biso   1.000  C
  C8       1.0000 0.00020  0.45390  0.62120  Biso   1.000  C
  H15      1.0000 0.56530  0.58760  0.14020  Biso   1.000  H
  H16      1.0000 0.93470  0.58760  0.35980  Biso   1.000  H
  H17      1.0000 0.43470  0.41240  0.85980  Biso   1.000  H
  H18      1.0000 0.06530  0.41240  0.64020  Biso   1.000  H
  C9       1.0000 0.46680  0.49540  0.03290  Biso   1.000  C
  C10      1.0000 0.03320  0.49540  0.46710  Biso   1.000  C
  C11      1.0000 0.53320  0.50460  0.96710  Biso   1.000  C
  C12      1.0000 0.96680  0.50460  0.53290  Biso   1.000  C
  C13      1.0000 0.36760  0.43650  0.00970  Biso   1.000  C
  C14      1.0000 0.13240  0.43650  0.49030  Biso   1.000  C
  C15      1.0000 0.63240  0.56350  0.99030  Biso   1.000  C
  C16      1.0000 0.86760  0.56350  0.50970  Biso   1.000  C
  H19      1.0000 0.34120  0.40180  0.95120  Biso   1.000  H
  H20      1.0000 0.15880  0.40180  0.54880  Biso   1.000  H
  H21      1.0000 0.65880  0.59820  0.04880  Biso   1.000  H
  H22      1.0000 0.84120  0.59820  0.45120  Biso   1.000  H
  C17      1.0000 0.30820  0.42900  0.07250  Biso   1.000  C
  C18      1.0000 0.19180  0.42900  0.42750  Biso   1.000  C
  C19      1.0000 0.69180  0.57100  0.92750  Biso   1.000  C
  C20      1.0000 0.80820  0.57100  0.57250  Biso   1.000  C
  H23      1.0000 0.24220  0.38910  0.05500  Biso   1.000  H
  H24      1.0000 0.25780  0.38910  0.44500  Biso   1.000  H
  H25      1.0000 0.75780  0.61090  0.94500  Biso   1.000  H
  H26      1.0000 0.74220  0.61090  0.55500  Biso   1.000  H
  C21      1.0000 0.18330  0.22790  0.18090  Biso   1.000  C
  C22      1.0000 0.31670  0.22790  0.31910  Biso   1.000  C
  C23      1.0000 0.81670  0.77210  0.81910  Biso   1.000  C
  C24      1.0000 0.68330  0.77210  0.68090  Biso   1.000  C
  H27      1.0000 0.13580  0.26950  0.13240  Biso   1.000  H
  H28      1.0000 0.36420  0.26950  0.36760  Biso   1.000  H
  H29      1.0000 0.86420  0.73050  0.86760  Biso   1.000  H
  H30      1.0000 0.63580  0.73050  0.63240  Biso   1.000  H
  C25      1.0000 0.18200  0.10380  0.17820  Biso   1.000  C
  C26      1.0000 0.31800  0.10380  0.32180  Biso   1.000  C
  C27      1.0000 0.81800  0.89620  0.82180  Biso   1.000  C
  C28      1.0000 0.68200  0.89620  0.67820  Biso   1.000  C
  H31      1.0000 0.13530  0.06410  0.12820  Biso   1.000  H
  H32      1.0000 0.36470  0.06410  0.37180  Biso   1.000  H
  H33      1.0000 0.86470  0.93590  0.87180  Biso   1.000  H
  H34      1.0000 0.63530  0.93590  0.62820  Biso   1.000  H
  C29      1.0000 0.25000  0.03890  0.25000  Biso   1.000  C
  C30      1.0000 0.75000  0.96110  0.75000  Biso   1.000  C
  C31      1.0000 0.23360  0.71870  0.17070  Biso   1.000  C
  C32      1.0000 0.26640  0.71870  0.32930  Biso   1.000  C
  C33      1.0000 0.76640  0.28130  0.82930  Biso   1.000  C
  C34      1.0000 0.73360  0.28130  0.67070  Biso   1.000  C
  H35      1.0000 0.22130  0.67670  0.11510  Biso   1.000  H
  H36      1.0000 0.27870  0.67670  0.38490  Biso   1.000  H
  H37      1.0000 0.77870  0.32330  0.88490  Biso   1.000  H
  H38      1.0000 0.72130  0.32330  0.61510  Biso   1.000  H
  C35      1.0000 0.23410  0.84220  0.16800  Biso   1.000  C
  C36      1.0000 0.26590  0.84220  0.33200  Biso   1.000  C
  C37      1.0000 0.76590  0.15780  0.83200  Biso   1.000  C
  C38      1.0000 0.73410  0.15780  0.66800  Biso   1.000  C
  H39      1.0000 0.22380  0.88200  0.11170  Biso   1.000  H
  H40      1.0000 0.27620  0.88200  0.38830  Biso   1.000  H
  H41      1.0000 0.77620  0.11800  0.88830  Biso   1.000  H
  H42      1.0000 0.72380  0.11800  0.61170  Biso   1.000  H
  C39      1.0000 0.25000  0.90700  0.25000  Biso   1.000  C
  C40      1.0000 0.75000  0.09300  0.75000  Biso   1.000  C
  C41      1.0000 0.52700  0.95130  0.13500  Biso   1.000  C
  C42      1.0000 0.97300  0.95130  0.36500  Biso   1.000  C
  C43      1.0000 0.47300  0.04870  0.86500  Biso   1.000  C
  C44      1.0000 0.02700  0.04870  0.63500  Biso   1.000  C
  H43      1.0000 0.52900  0.86900  0.14570  Biso   1.000  H
  H44      1.0000 0.97100  0.86900  0.35430  Biso   1.000  H
  H45      1.0000 0.47100  0.13100  0.85430  Biso   1.000  H
  H46      1.0000 0.02900  0.13100  0.64570  Biso   1.000  H
  C45      1.0000 0.62230  0.00600  0.13310  Biso   1.000  C
  C46      1.0000 0.87770  0.00600  0.36690  Biso   1.000  C
  C47      1.0000 0.37770  0.99400  0.86690  Biso   1.000  C
  C48      1.0000 0.12230  0.99400  0.63310  Biso   1.000  C
  H47      1.0000 0.68440  0.96070  0.13910  Biso   1.000  H
  H48      1.0000 0.81560  0.96070  0.36090  Biso   1.000  H
  H49      1.0000 0.31560  0.03930  0.86090  Biso   1.000  H
  H50      1.0000 0.18440  0.03930  0.63910  Biso   1.000  H
  C49      1.0000 0.62400  0.12820  0.12230  Biso   1.000  C
  C50      1.0000 0.87600  0.12820  0.37770  Biso   1.000  C
  C51      1.0000 0.37600  0.87180  0.87770  Biso   1.000  C
  C52      1.0000 0.12400  0.87180  0.62230  Biso   1.000  C
  C53      1.0000 0.52960  0.18510  0.11630  Biso   1.000  C
  C54      1.0000 0.97040  0.18510  0.38370  Biso   1.000  C
  C55      1.0000 0.47040  0.81490  0.88370  Biso   1.000  C
  C56      1.0000 0.02960  0.81490  0.61630  Biso   1.000  C
  H51      1.0000 0.52530  0.26820  0.11130  Biso   1.000  H
  H52      1.0000 0.97470  0.26820  0.38870  Biso   1.000  H
  H53      1.0000 0.47470  0.73180  0.88870  Biso   1.000  H
  H54      1.0000 0.02530  0.73180  0.61130  Biso   1.000  H
  C57      1.0000 0.44000  0.11870  0.11760  Biso   1.000  C
  C58      1.0000 0.06000  0.11870  0.38240  Biso   1.000  C
  C59      1.0000 0.56000  0.88130  0.88240  Biso   1.000  C
  C60      1.0000 0.94000  0.88130  0.61760  Biso   1.000  C
  H55      1.0000 0.37750  0.16210  0.11440  Biso   1.000  H
  H56      1.0000 0.12250  0.16210  0.38560  Biso   1.000  H
  H57      1.0000 0.62250  0.83790  0.88560  Biso   1.000  H
  H58      1.0000 0.87750  0.83790  0.61440  Biso   1.000  H
  C61      1.0000 0.82740  0.37460  0.13160  Biso   1.000  C
  C62      1.0000 0.67260  0.37460  0.36840  Biso   1.000  C
  C63      1.0000 0.17260  0.62540  0.86840  Biso   1.000  C
  C64      1.0000 0.32740  0.62540  0.63160  Biso   1.000  C
  H59      1.0000 0.83420  0.45600  0.14570  Biso   1.000  H
  H60      1.0000 0.66580  0.45600  0.35430  Biso   1.000  H
  H61      1.0000 0.16580  0.54400  0.85430  Biso   1.000  H
  H62      1.0000 0.33420  0.54400  0.64570  Biso   1.000  H
  C65      1.0000 0.73630  0.31700  0.13660  Biso   1.000  C
  C66      1.0000 0.76370  0.31700  0.36340  Biso   1.000  C
  C67      1.0000 0.26370  0.68300  0.86340  Biso   1.000  C
  C68      1.0000 0.23630  0.68300  0.63660  Biso   1.000  C
  H63      1.0000 0.68270  0.35970  0.15300  Biso   1.000  H
  H64      1.0000 0.81730  0.35970  0.34700  Biso   1.000  H
  H65      1.0000 0.31730  0.64030  0.84700  Biso   1.000  H
  H66      1.0000 0.18270  0.64030  0.65300  Biso   1.000  H
  C69      1.0000 0.72230  0.19410  0.11740  Biso   1.000  C
  C70      1.0000 0.77770  0.19410  0.38260  Biso   1.000  C
  C71      1.0000 0.27770  0.80590  0.88260  Biso   1.000  C
  C72      1.0000 0.22230  0.80590  0.61740  Biso   1.000  C
  C73      1.0000 0.80460  0.13880  0.09120  Biso   1.000  C
  C74      1.0000 0.69540  0.13880  0.40880  Biso   1.000  C
  C75      1.0000 0.19540  0.86120  0.90880  Biso   1.000  C
  C76      1.0000 0.30460  0.86120  0.59120  Biso   1.000  C
  H67      1.0000 0.80010  0.05760  0.07640  Biso   1.000  H
  H68      1.0000 0.69990  0.05760  0.42360  Biso   1.000  H
  H69      1.0000 0.19990  0.94240  0.92360  Biso   1.000  H
  H70      1.0000 0.30010  0.94240  0.57640  Biso   1.000  H
  C77      1.0000 0.89540  0.20580  0.08710  Biso   1.000  C
  C78      1.0000 0.60460  0.20580  0.41290  Biso   1.000  C
  C79      1.0000 0.10460  0.79420  0.91290  Biso   1.000  C
  C80      1.0000 0.39540  0.79420  0.58710  Biso   1.000  C
  H71      1.0000 0.94960  0.16660  0.06890  Biso   1.000  H
  H72      1.0000 0.55040  0.16660  0.43110  Biso   1.000  H
  H73      1.0000 0.05040  0.83340  0.93110  Biso   1.000  H
  H74      1.0000 0.44960  0.83340  0.56890  Biso   1.000  H
