data_image0
_cell_length_a       4.774
_cell_length_b       11.039
_cell_length_c       5.6752
_cell_angle_alpha    90
_cell_angle_beta     91.394
_cell_angle_gamma    90

_symmetry_space_group_name_H-M    "P 1"
_symmetry_int_tables_number       1

loop_
  _symmetry_equiv_pos_as_xyz
  'x, y, z'

loop_
  _atom_site_label
  _atom_site_occupancy
  _atom_site_fract_x
  _atom_site_fract_y
  _atom_site_fract_z
  _atom_site_thermal_displace_type
  _atom_site_B_iso_or_equiv
  _atom_site_type_symbol
  Cu1      1.0000 0.00000  0.50000  0.00000  Biso   1.000  Cu
  O1       1.0000 0.40600  0.50000  0.77100  Biso   1.000  O
  O2       1.0000 0.59400  0.50000  0.22900  Biso   1.000  O
  O3       1.0000 0.01300  0.50000  0.63150  Biso   1.000  O
  O4       1.0000 0.98700  0.50000  0.36850  Biso   1.000  O
  N1       1.0000 0.00000  0.31960  0.00000  Biso   1.000  N
  N2       1.0000 0.00000  0.68040  0.00000  Biso   1.000  N
  N3       1.0000 0.25800  0.50000  0.58200  Biso   1.000  N
  N4       1.0000 0.74200  0.50000  0.41800  Biso   1.000  N
  C1       1.0000 0.16000  0.25760  0.14740  Biso   1.000  C
  C2       1.0000 0.84000  0.25760  0.85260  Biso   1.000  C
  C3       1.0000 0.84000  0.74240  0.85260  Biso   1.000  C
  C4       1.0000 0.16000  0.74240  0.14740  Biso   1.000  C
  H1       1.0000 0.33100  0.29150  0.20660  Biso   1.000  H
  H2       1.0000 0.66900  0.29150  0.79340  Biso   1.000  H
  H3       1.0000 0.66900  0.70850  0.79340  Biso   1.000  H
  H4       1.0000 0.33100  0.70850  0.20660  Biso   1.000  H
  C5       1.0000 0.16200  0.13330  0.15580  Biso   1.000  C
  C6       1.0000 0.83800  0.13330  0.84420  Biso   1.000  C
  C7       1.0000 0.83800  0.86670  0.84420  Biso   1.000  C
  C8       1.0000 0.16200  0.86670  0.15580  Biso   1.000  C
  H5       1.0000 0.29970  0.09340  0.24430  Biso   1.000  H
  H6       1.0000 0.70030  0.09340  0.75570  Biso   1.000  H
  H7       1.0000 0.70030  0.90660  0.75570  Biso   1.000  H
  H8       1.0000 0.29970  0.90660  0.24430  Biso   1.000  H
  C9       1.0000 0.00000  0.06760  0.00000  Biso   1.000  C
  C10      1.0000 0.00000  0.93240  0.00000  Biso   1.000  C
