data_image0
_cell_length_a       7.8681
_cell_length_b       10.356
_cell_length_c       13.39
_cell_angle_alpha    85.431
_cell_angle_beta     78.603
_cell_angle_gamma    72.667

_symmetry_space_group_name_H-M    "P 1"
_symmetry_int_tables_number       1

loop_
  _symmetry_equiv_pos_as_xyz
  'x, y, z'

loop_
  _atom_site_label
  _atom_site_occupancy
  _atom_site_fract_x
  _atom_site_fract_y
  _atom_site_fract_z
  _atom_site_thermal_displace_type
  _atom_site_B_iso_or_equiv
  _atom_site_type_symbol
  Cu1      1.0000 0.13512  0.86285  0.58720  Biso   1.000  Cu
  Cu2      1.0000 0.86488  0.13715  0.41280  Biso   1.000  Cu
  Cu3      1.0000 0.15890  0.14162  0.58126  Biso   1.000  Cu
  Cu4      1.0000 0.84110  0.85838  0.41874  Biso   1.000  Cu
  Cu5      1.0000 0.04260  0.52643  0.72868  Biso   1.000  Cu
  Cu6      1.0000 0.95740  0.47357  0.27132  Biso   1.000  Cu
  O1       1.0000 0.21570  0.99290  0.49369  Biso   1.000  O
  O2       1.0000 0.78430  0.00710  0.50631  Biso   1.000  O
  O3       1.0000 0.29230  0.23800  0.48640  Biso   1.000  O
  O4       1.0000 0.70770  0.76200  0.51360  Biso   1.000  O
  O5       1.0000 0.55470  0.23350  0.38910  Biso   1.000  O
  O6       1.0000 0.44530  0.76650  0.61090  Biso   1.000  O
  O7       1.0000 0.16920  0.74140  0.48135  Biso   1.000  O
  O8       1.0000 0.83080  0.25860  0.51865  Biso   1.000  O
  O9       1.0000 0.31840  0.63240  0.34210  Biso   1.000  O
  O10      1.0000 0.68160  0.36760  0.65790  Biso   1.000  O
  O11      1.0000 0.05650  0.01890  0.67129  Biso   1.000  O
  O12      1.0000 0.94350  0.98110  0.32871  Biso   1.000  O
  O13      1.0000 0.08940  0.27310  0.68090  Biso   1.000  O
  O14      1.0000 0.91060  0.72690  0.31910  Biso   1.000  O
  O15      1.0000 0.93360  0.38560  0.81530  Biso   1.000  O
  O16      1.0000 0.06640  0.61440  0.18470  Biso   1.000  O
  O17      1.0000 0.03340  0.75730  0.69037  Biso   1.000  O
  O18      1.0000 0.96660  0.24270  0.30963  Biso   1.000  O
  O19      1.0000 0.87200  0.70890  0.83090  Biso   1.000  O
  O20      1.0000 0.12800  0.29110  0.16910  Biso   1.000  O
  O21      1.0000 0.85490  0.55390  0.64800  Biso   1.000  O
  O22      1.0000 0.14510  0.44610  0.35200  Biso   1.000  O
  H1       1.0000 0.84600  0.59900  0.60700  Biso   1.000  H
  H2       1.0000 0.15400  0.40100  0.39300  Biso   1.000  H
  H3       1.0000 0.80200  0.50800  0.64800  Biso   1.000  H
  H4       1.0000 0.19800  0.49200  0.35200  Biso   1.000  H
  O23      1.0000 0.24900  0.49440  0.59930  Biso   1.000  O
  O24      1.0000 0.75100  0.50560  0.40070  Biso   1.000  O
  H5       1.0000 0.27700  0.43400  0.58300  Biso   1.000  H
  H6       1.0000 0.72300  0.56600  0.41700  Biso   1.000  H
  H7       1.0000 0.24600  0.53500  0.56200  Biso   1.000  H
  H8       1.0000 0.75400  0.46500  0.43800  Biso   1.000  H
  N1       1.0000 0.22110  0.50540  0.82020  Biso   1.000  N
  N2       1.0000 0.77890  0.49460  0.17980  Biso   1.000  N
  C1       1.0000 0.33800  0.96440  0.40670  Biso   1.000  C
  C2       1.0000 0.66200  0.03560  0.59330  Biso   1.000  C
  C3       1.0000 0.43620  0.05660  0.36530  Biso   1.000  C
  C4       1.0000 0.56380  0.94340  0.63470  Biso   1.000  C
  C5       1.0000 0.55000  0.02890  0.27090  Biso   1.000  C
  C6       1.0000 0.45000  0.97110  0.72910  Biso   1.000  C
  H9       1.0000 0.61320  0.08980  0.24230  Biso   1.000  H
  H10      1.0000 0.38680  0.91020  0.75770  Biso   1.000  H
  C7       1.0000 0.57200  0.91430  0.21850  Biso   1.000  C
  C8       1.0000 0.42800  0.08570  0.78150  Biso   1.000  C
  H11      1.0000 0.64500  0.90000  0.15440  Biso   1.000  H
  H12      1.0000 0.35500  0.10000  0.84560  Biso   1.000  H
  C9       1.0000 0.48490  0.82120  0.26220  Biso   1.000  C
  C10      1.0000 0.51510  0.17880  0.73780  Biso   1.000  C
  H13      1.0000 0.50430  0.74180  0.22810  Biso   1.000  H
  H14      1.0000 0.49570  0.25820  0.77190  Biso   1.000  H
  C11      1.0000 0.36800  0.84260  0.35650  Biso   1.000  C
  C12      1.0000 0.63200  0.15740  0.64350  Biso   1.000  C
  C13      1.0000 0.43000  0.18260  0.41650  Biso   1.000  C
  C14      1.0000 0.57000  0.81740  0.58350  Biso   1.000  C
  C15      1.0000 0.28230  0.73170  0.39550  Biso   1.000  C
  C16      1.0000 0.71770  0.26830  0.60450  Biso   1.000  C
  C17      1.0000 0.96550  0.03520  0.76710  Biso   1.000  C
  C18      1.0000 0.03450  0.96480  0.23290  Biso   1.000  C
  C19      1.0000 0.90170  0.92990  0.81990  Biso   1.000  C
  C20      1.0000 0.09830  0.07010  0.18010  Biso   1.000  C
  C21      1.0000 0.80000  0.95330  0.91800  Biso   1.000  C
  C22      1.0000 0.20000  0.04670  0.08200  Biso   1.000  C
  H15      1.0000 0.75550  0.88510  0.95230  Biso   1.000  H
  H16      1.0000 0.24450  0.11490  0.04770  Biso   1.000  H
  C23      1.0000 0.76340  0.07380  0.96560  Biso   1.000  C
  C24      1.0000 0.23660  0.92620  0.03440  Biso   1.000  C
  H17      1.0000 0.69670  0.08640  0.03150  Biso   1.000  H
  H18      1.0000 0.30330  0.91360  0.96850  Biso   1.000  H
  C25      1.0000 0.82660  0.17540  0.91460  Biso   1.000  C
  C26      1.0000 0.17340  0.82460  0.08540  Biso   1.000  C
  H19      1.0000 0.80150  0.25720  0.94670  Biso   1.000  H
  H20      1.0000 0.19850  0.74280  0.05330  Biso   1.000  H
  C27      1.0000 0.92750  0.15910  0.81600  Biso   1.000  C
  C28      1.0000 0.07250  0.84090  0.18400  Biso   1.000  C
  C29      1.0000 0.98650  0.27740  0.76700  Biso   1.000  C
  C30      1.0000 0.01350  0.72260  0.23300  Biso   1.000  C
  C31      1.0000 0.93420  0.79280  0.77810  Biso   1.000  C
  C32      1.0000 0.06580  0.20720  0.22190  Biso   1.000  C
  C33      1.0000 0.35800  0.56060  0.79700  Biso   1.000  C
  C34      1.0000 0.64200  0.43940  0.20300  Biso   1.000  C
  H21      1.0000 0.37870  0.60050  0.73280  Biso   1.000  H
  H22      1.0000 0.62130  0.39950  0.26720  Biso   1.000  H
  C35      1.0000 0.47060  0.56070  0.86510  Biso   1.000  C
  C36      1.0000 0.52940  0.43930  0.13490  Biso   1.000  C
  H23      1.0000 0.56370  0.60080  0.84630  Biso   1.000  H
  H24      1.0000 0.43630  0.39920  0.15370  Biso   1.000  H
  C37      1.0000 0.44350  0.50030  0.96170  Biso   1.000  C
  C38      1.0000 0.55650  0.49970  0.03830  Biso   1.000  C
  C39      1.0000 0.30510  0.43910  0.98280  Biso   1.000  C
  C40      1.0000 0.69490  0.56090  0.01720  Biso   1.000  C
  H25      1.0000 0.28470  0.39440  0.04510  Biso   1.000  H
  H26      1.0000 0.71530  0.60560  0.95490  Biso   1.000  H
  C41      1.0000 0.19830  0.44450  0.91190  Biso   1.000  C
  C42      1.0000 0.80170  0.55550  0.08810  Biso   1.000  C
  H27      1.0000 0.10550  0.40380  0.92840  Biso   1.000  H
  H28      1.0000 0.89450  0.59620  0.07160  Biso   1.000  H
