data_image0
_cell_length_a       14.7044
_cell_length_b       17.8433
_cell_length_c       8.1491
_cell_angle_alpha    90
_cell_angle_beta     114.492
_cell_angle_gamma    90

_symmetry_space_group_name_H-M    "P 1"
_symmetry_int_tables_number       1

loop_
  _symmetry_equiv_pos_as_xyz
  'x, y, z'

loop_
  _atom_site_label
  _atom_site_occupancy
  _atom_site_fract_x
  _atom_site_fract_y
  _atom_site_fract_z
  _atom_site_thermal_displace_type
  _atom_site_B_iso_or_equiv
  _atom_site_type_symbol
  Cu1      1.0000 0.79299  0.69415  0.45882  Biso   1.000  Cu
  Cu2      1.0000 0.20701  0.69415  0.04118  Biso   1.000  Cu
  Cu3      1.0000 0.29299  0.19415  0.45882  Biso   1.000  Cu
  Cu4      1.0000 0.70701  0.19415  0.04118  Biso   1.000  Cu
  Cu5      1.0000 0.20701  0.30585  0.54118  Biso   1.000  Cu
  Cu6      1.0000 0.79299  0.30585  0.95882  Biso   1.000  Cu
  Cu7      1.0000 0.70701  0.80585  0.54118  Biso   1.000  Cu
  Cu8      1.0000 0.29299  0.80585  0.95882  Biso   1.000  Cu
  Mg1      1.0000 0.00000  0.39533  0.25000  Biso   1.000  Mg
  Mg2      1.0000 0.50000  0.89533  0.25000  Biso   1.000  Mg
  Mg3      1.0000 0.00000  0.60467  0.75000  Biso   1.000  Mg
  Mg4      1.0000 0.50000  0.10467  0.75000  Biso   1.000  Mg
  O1       1.0000 0.88028  0.59918  0.43860  Biso   1.000  O
  O2       1.0000 0.11972  0.59918  0.06140  Biso   1.000  O
  O3       1.0000 0.38028  0.09918  0.43860  Biso   1.000  O
  O4       1.0000 0.61972  0.09918  0.06140  Biso   1.000  O
  O5       1.0000 0.11972  0.40082  0.56140  Biso   1.000  O
  O6       1.0000 0.88028  0.40082  0.93860  Biso   1.000  O
  O7       1.0000 0.61972  0.90082  0.56140  Biso   1.000  O
  O8       1.0000 0.38028  0.90082  0.93860  Biso   1.000  O
  O9       1.0000 0.92615  0.49352  0.35800  Biso   1.000  O
  O10      1.0000 0.07385  0.49352  0.14200  Biso   1.000  O
  O11      1.0000 0.42615  0.99352  0.35800  Biso   1.000  O
  O12      1.0000 0.57385  0.99352  0.14200  Biso   1.000  O
  O13      1.0000 0.07385  0.50648  0.64200  Biso   1.000  O
  O14      1.0000 0.92615  0.50648  0.85800  Biso   1.000  O
  O15      1.0000 0.57385  0.00648  0.64200  Biso   1.000  O
  O16      1.0000 0.42615  0.00648  0.85800  Biso   1.000  O
  O17      1.0000 0.71279  0.72232  0.20820  Biso   1.000  O
  O18      1.0000 0.28721  0.72232  0.29180  Biso   1.000  O
  O19      1.0000 0.21279  0.22232  0.20820  Biso   1.000  O
  O20      1.0000 0.78721  0.22232  0.29180  Biso   1.000  O
  O21      1.0000 0.28721  0.27768  0.79180  Biso   1.000  O
  O22      1.0000 0.71279  0.27768  0.70820  Biso   1.000  O
  O23      1.0000 0.78721  0.77768  0.79180  Biso   1.000  O
  O24      1.0000 0.21279  0.77768  0.70820  Biso   1.000  O
  O25      1.0000 0.63663  0.81709  0.27630  Biso   1.000  O
  O26      1.0000 0.36337  0.81709  0.22370  Biso   1.000  O
  O27      1.0000 0.13663  0.31709  0.27630  Biso   1.000  O
  O28      1.0000 0.86337  0.31709  0.22370  Biso   1.000  O
  O29      1.0000 0.36337  0.18291  0.72370  Biso   1.000  O
  O30      1.0000 0.63663  0.18291  0.77630  Biso   1.000  O
  O31      1.0000 0.86337  0.68291  0.72370  Biso   1.000  O
  O32      1.0000 0.13663  0.68291  0.77630  Biso   1.000  O
  O33      1.0000 0.89227  0.76923  0.46620  Biso   1.000  O
  O34      1.0000 0.10773  0.76923  0.03380  Biso   1.000  O
  O35      1.0000 0.39227  0.26923  0.46620  Biso   1.000  O
  O36      1.0000 0.60773  0.26923  0.03380  Biso   1.000  O
  O37      1.0000 0.10773  0.23077  0.53380  Biso   1.000  O
  O38      1.0000 0.89227  0.23077  0.96620  Biso   1.000  O
  O39      1.0000 0.60773  0.73077  0.53380  Biso   1.000  O
  O40      1.0000 0.39227  0.73077  0.96620  Biso   1.000  O
  O41      1.0000 0.81893  0.86492  0.53850  Biso   1.000  O
  O42      1.0000 0.18107  0.86492  0.96150  Biso   1.000  O
  O43      1.0000 0.31893  0.36492  0.53850  Biso   1.000  O
  O44      1.0000 0.68107  0.36492  0.96150  Biso   1.000  O
  O45      1.0000 0.18107  0.13508  0.46150  Biso   1.000  O
  O46      1.0000 0.81893  0.13508  0.03850  Biso   1.000  O
  O47      1.0000 0.68107  0.63508  0.46150  Biso   1.000  O
  O48      1.0000 0.31893  0.63508  0.03850  Biso   1.000  O
  C1       1.0000 0.76611  0.53917  0.17110  Biso   1.000  C
  C2       1.0000 0.23389  0.53917  0.32890  Biso   1.000  C
  C3       1.0000 0.26611  0.03917  0.17110  Biso   1.000  C
  C4       1.0000 0.73389  0.03917  0.32890  Biso   1.000  C
  C5       1.0000 0.23389  0.46083  0.82890  Biso   1.000  C
  C6       1.0000 0.76611  0.46083  0.67110  Biso   1.000  C
  C7       1.0000 0.73389  0.96083  0.82890  Biso   1.000  C
  C8       1.0000 0.26611  0.96083  0.67110  Biso   1.000  C
  H1       1.0000 0.76750  0.57020  0.07600  Biso   1.000  H
  H2       1.0000 0.23250  0.57020  0.42400  Biso   1.000  H
  H3       1.0000 0.26750  0.07020  0.07600  Biso   1.000  H
  H4       1.0000 0.73250  0.07020  0.42400  Biso   1.000  H
  H5       1.0000 0.23250  0.42980  0.92400  Biso   1.000  H
  H6       1.0000 0.76750  0.42980  0.57600  Biso   1.000  H
  H7       1.0000 0.73250  0.92980  0.92400  Biso   1.000  H
  H8       1.0000 0.26750  0.92980  0.57600  Biso   1.000  H
  H9       1.0000 0.71240  0.55490  0.20120  Biso   1.000  H
  H10      1.0000 0.28760  0.55490  0.29880  Biso   1.000  H
  H11      1.0000 0.21240  0.05490  0.20120  Biso   1.000  H
  H12      1.0000 0.78760  0.05490  0.29880  Biso   1.000  H
  H13      1.0000 0.28760  0.44510  0.79880  Biso   1.000  H
  H14      1.0000 0.71240  0.44510  0.70120  Biso   1.000  H
  H15      1.0000 0.78760  0.94510  0.79880  Biso   1.000  H
  H16      1.0000 0.21240  0.94510  0.70120  Biso   1.000  H
  H17      1.0000 0.75610  0.48790  0.13210  Biso   1.000  H
  H18      1.0000 0.24390  0.48790  0.36790  Biso   1.000  H
  H19      1.0000 0.25610  0.98790  0.13210  Biso   1.000  H
  H20      1.0000 0.74390  0.98790  0.36790  Biso   1.000  H
  H21      1.0000 0.24390  0.51210  0.86790  Biso   1.000  H
  H22      1.0000 0.75610  0.51210  0.63210  Biso   1.000  H
  H23      1.0000 0.74390  0.01210  0.86790  Biso   1.000  H
  H24      1.0000 0.25610  0.01210  0.63210  Biso   1.000  H
  C9       1.0000 0.86295  0.54629  0.33320  Biso   1.000  C
  C10      1.0000 0.13705  0.54629  0.16680  Biso   1.000  C
  C11      1.0000 0.36295  0.04629  0.33320  Biso   1.000  C
  C12      1.0000 0.63705  0.04629  0.16680  Biso   1.000  C
  C13      1.0000 0.13705  0.45371  0.66680  Biso   1.000  C
  C14      1.0000 0.86295  0.45371  0.83320  Biso   1.000  C
  C15      1.0000 0.63705  0.95371  0.66680  Biso   1.000  C
  C16      1.0000 0.36295  0.95371  0.83320  Biso   1.000  C
  C17      1.0000 0.60359  0.79719  0.96960  Biso   1.000  C
  C18      1.0000 0.39641  0.79719  0.53040  Biso   1.000  C
  C19      1.0000 0.10359  0.29719  0.96960  Biso   1.000  C
  C20      1.0000 0.89641  0.29719  0.53040  Biso   1.000  C
  C21      1.0000 0.39641  0.20281  0.03040  Biso   1.000  C
  C22      1.0000 0.60359  0.20281  0.46960  Biso   1.000  C
  C23      1.0000 0.89641  0.70281  0.03040  Biso   1.000  C
  C24      1.0000 0.10359  0.70281  0.46960  Biso   1.000  C
  H25      1.0000 0.54220  0.76960  0.91490  Biso   1.000  H
  H26      1.0000 0.45780  0.76960  0.58510  Biso   1.000  H
  H27      1.0000 0.04220  0.26960  0.91490  Biso   1.000  H
  H28      1.0000 0.95780  0.26960  0.58510  Biso   1.000  H
  H29      1.0000 0.45780  0.23040  0.08510  Biso   1.000  H
  H30      1.0000 0.54220  0.23040  0.41490  Biso   1.000  H
  H31      1.0000 0.95780  0.73040  0.08510  Biso   1.000  H
  H32      1.0000 0.04220  0.73040  0.41490  Biso   1.000  H
  H33      1.0000 0.64630  0.78470  0.91080  Biso   1.000  H
  H34      1.0000 0.35370  0.78470  0.58920  Biso   1.000  H
  H35      1.0000 0.14630  0.28470  0.91080  Biso   1.000  H
  H36      1.0000 0.85370  0.28470  0.58920  Biso   1.000  H
  H37      1.0000 0.35370  0.21530  0.08920  Biso   1.000  H
  H38      1.0000 0.64630  0.21530  0.41080  Biso   1.000  H
  H39      1.0000 0.85370  0.71530  0.08920  Biso   1.000  H
  H40      1.0000 0.14630  0.71530  0.41080  Biso   1.000  H
  H41      1.0000 0.58950  0.84990  0.95740  Biso   1.000  H
  H42      1.0000 0.41050  0.84990  0.54260  Biso   1.000  H
  H43      1.0000 0.08950  0.34990  0.95740  Biso   1.000  H
  H44      1.0000 0.91050  0.34990  0.54260  Biso   1.000  H
  H45      1.0000 0.41050  0.15010  0.04260  Biso   1.000  H
  H46      1.0000 0.58950  0.15010  0.45740  Biso   1.000  H
  H47      1.0000 0.91050  0.65010  0.04260  Biso   1.000  H
  H48      1.0000 0.08950  0.65010  0.45740  Biso   1.000  H
  C25      1.0000 0.65479  0.77735  0.16550  Biso   1.000  C
  C26      1.0000 0.34521  0.77735  0.33450  Biso   1.000  C
  C27      1.0000 0.15479  0.27735  0.16550  Biso   1.000  C
  C28      1.0000 0.84521  0.27735  0.33450  Biso   1.000  C
  C29      1.0000 0.34521  0.22265  0.83450  Biso   1.000  C
  C30      1.0000 0.65479  0.22265  0.66550  Biso   1.000  C
  C31      1.0000 0.84521  0.72265  0.83450  Biso   1.000  C
  C32      1.0000 0.15479  0.72265  0.66550  Biso   1.000  C
  C33      1.0000 0.96460  0.88885  0.49330  Biso   1.000  C
  C34      1.0000 0.03540  0.88885  0.00670  Biso   1.000  C
  C35      1.0000 0.46460  0.38885  0.49330  Biso   1.000  C
  C36      1.0000 0.53540  0.38885  0.00670  Biso   1.000  C
  C37      1.0000 0.03540  0.11115  0.50670  Biso   1.000  C
  C38      1.0000 0.96460  0.11115  0.99330  Biso   1.000  C
  C39      1.0000 0.53540  0.61115  0.50670  Biso   1.000  C
  C40      1.0000 0.46460  0.61115  0.99330  Biso   1.000  C
  H49      1.0000 0.96170  0.88930  0.37340  Biso   1.000  H
  H50      1.0000 0.03830  0.88930  0.12660  Biso   1.000  H
  H51      1.0000 0.46170  0.38930  0.37340  Biso   1.000  H
  H52      1.0000 0.53830  0.38930  0.12660  Biso   1.000  H
  H53      1.0000 0.03830  0.11070  0.62660  Biso   1.000  H
  H54      1.0000 0.96170  0.11070  0.87340  Biso   1.000  H
  H55      1.0000 0.53830  0.61070  0.62660  Biso   1.000  H
  H56      1.0000 0.46170  0.61070  0.87340  Biso   1.000  H
  H57      1.0000 0.02940  0.87190  0.57640  Biso   1.000  H
  H58      1.0000 0.97060  0.87190  0.92360  Biso   1.000  H
  H59      1.0000 0.52940  0.37190  0.57640  Biso   1.000  H
  H60      1.0000 0.47060  0.37190  0.92360  Biso   1.000  H
  H61      1.0000 0.97060  0.12810  0.42360  Biso   1.000  H
  H62      1.0000 0.02940  0.12810  0.07640  Biso   1.000  H
  H63      1.0000 0.47060  0.62810  0.42360  Biso   1.000  H
  H64      1.0000 0.52940  0.62810  0.07640  Biso   1.000  H
  H65      1.0000 0.95310  0.93860  0.52560  Biso   1.000  H
  H66      1.0000 0.04690  0.93860  0.97440  Biso   1.000  H
  H67      1.0000 0.45310  0.43860  0.52560  Biso   1.000  H
  H68      1.0000 0.54690  0.43860  0.97440  Biso   1.000  H
  H69      1.0000 0.04690  0.06140  0.47440  Biso   1.000  H
  H70      1.0000 0.95310  0.06140  0.02560  Biso   1.000  H
  H71      1.0000 0.54690  0.56140  0.47440  Biso   1.000  H
  H72      1.0000 0.45310  0.56140  0.02560  Biso   1.000  H
  C41      1.0000 0.88591  0.83686  0.50040  Biso   1.000  C
  C42      1.0000 0.11409  0.83686  0.99960  Biso   1.000  C
  C43      1.0000 0.38591  0.33686  0.50040  Biso   1.000  C
  C44      1.0000 0.61409  0.33686  0.99960  Biso   1.000  C
  C45      1.0000 0.11409  0.16314  0.49960  Biso   1.000  C
  C46      1.0000 0.88591  0.16314  0.00040  Biso   1.000  C
  C47      1.0000 0.61409  0.66314  0.49960  Biso   1.000  C
  C48      1.0000 0.38591  0.66314  0.00040  Biso   1.000  C
