data_image0
_cell_length_a       9.5524
_cell_length_b       10.2312
_cell_length_c       15.549
_cell_angle_alpha    97.356
_cell_angle_beta     103.694
_cell_angle_gamma    101.972

_symmetry_space_group_name_H-M    "P 1"
_symmetry_int_tables_number       1

loop_
  _symmetry_equiv_pos_as_xyz
  'x, y, z'

loop_
  _atom_site_label
  _atom_site_occupancy
  _atom_site_fract_x
  _atom_site_fract_y
  _atom_site_fract_z
  _atom_site_thermal_displace_type
  _atom_site_B_iso_or_equiv
  _atom_site_type_symbol
  Cu1      1.0000 0.99432  0.04143  0.40412  Biso   1.000  Cu
  Cu2      1.0000 0.00568  0.95857  0.59588  Biso   1.000  Cu
  Cu3      1.0000 0.67976  0.84275  0.35767  Biso   1.000  Cu
  Cu4      1.0000 0.32024  0.15725  0.64233  Biso   1.000  Cu
  O1       1.0000 0.88140  0.88510  0.43470  Biso   1.000  O
  O2       1.0000 0.11860  0.11490  0.56530  Biso   1.000  O
  H1       1.0000 0.92000  0.82400  0.42000  Biso   1.000  H
  H2       1.0000 0.08000  0.17600  0.58000  Biso   1.000  H
  O3       1.0000 0.75680  0.95310  0.25090  Biso   1.000  O
  O4       1.0000 0.24320  0.04690  0.74910  Biso   1.000  O
  H3       1.0000 0.73460  0.03750  0.25140  Biso   1.000  H
  H4       1.0000 0.26540  0.96250  0.74860  Biso   1.000  H
  H5       1.0000 0.85670  0.96750  0.25550  Biso   1.000  H
  H6       1.0000 0.14330  0.03250  0.74450  Biso   1.000  H
  O5       1.0000 0.64550  0.00910  0.41860  Biso   1.000  O
  O6       1.0000 0.35450  0.99090  0.58140  Biso   1.000  O
  O7       1.0000 0.86580  0.15930  0.44270  Biso   1.000  O
  O8       1.0000 0.13420  0.84070  0.55730  Biso   1.000  O
  O9       1.0000 0.67530  0.65970  0.30020  Biso   1.000  O
  O10      1.0000 0.32470  0.34030  0.69980  Biso   1.000  O
  O11      1.0000 0.87480  0.60210  0.37870  Biso   1.000  O
  O12      1.0000 0.12520  0.39790  0.62130  Biso   1.000  O
  O13      1.0000 0.12800  0.93930  0.35990  Biso   1.000  O
  O14      1.0000 0.87200  0.06070  0.64010  Biso   1.000  O
  O15      1.0000 0.99430  0.89920  0.21650  Biso   1.000  O
  O16      1.0000 0.00570  0.10080  0.78350  Biso   1.000  O
  C1       1.0000 0.75920  0.35860  0.53010  Biso   1.000  C
  C2       1.0000 0.24080  0.64140  0.46990  Biso   1.000  C
  H7       1.0000 0.85840  0.38330  0.53000  Biso   1.000  H
  H8       1.0000 0.14160  0.61670  0.47000  Biso   1.000  H
  N1       1.0000 0.77380  0.58410  0.61140  Biso   1.000  N
  N2       1.0000 0.22620  0.41590  0.38860  Biso   1.000  N
  N3       1.0000 0.75610  0.64740  0.68830  Biso   1.000  N
  N4       1.0000 0.24390  0.35260  0.31170  Biso   1.000  N
  N5       1.0000 0.89870  0.79160  0.62820  Biso   1.000  N
  N6       1.0000 0.10130  0.20840  0.37180  Biso   1.000  N
  N7       1.0000 0.71030  0.20670  0.23130  Biso   1.000  N
  N8       1.0000 0.28970  0.79330  0.76870  Biso   1.000  N
  N9       1.0000 0.34410  0.22570  0.10240  Biso   1.000  N
  N10      1.0000 0.65590  0.77430  0.89760  Biso   1.000  N
  N11      1.0000 0.30680  0.12050  0.03200  Biso   1.000  N
  N12      1.0000 0.69320  0.87950  0.96800  Biso   1.000  N
  N13      1.0000 0.11420  0.21040  0.03240  Biso   1.000  N
  N14      1.0000 0.88580  0.78960  0.96760  Biso   1.000  N
  N15      1.0000 0.46540  0.80800  0.27580  Biso   1.000  N
  N16      1.0000 0.53460  0.19200  0.72420  Biso   1.000  N
  N17      1.0000 0.26510  0.63490  0.04650  Biso   1.000  N
  N18      1.0000 0.73490  0.36510  0.95350  Biso   1.000  N
  N19      1.0000 0.35150  0.54980  0.02840  Biso   1.000  N
  N20      1.0000 0.64850  0.45020  0.97160  Biso   1.000  N
  N21      1.0000 0.16020  0.53050  0.90760  Biso   1.000  N
  N22      1.0000 0.83980  0.46950  0.09240  Biso   1.000  N
  C3       1.0000 0.73390  0.12470  0.44580  Biso   1.000  C
  C4       1.0000 0.26610  0.87530  0.55420  Biso   1.000  C
  C5       1.0000 0.67180  0.23200  0.48860  Biso   1.000  C
  C6       1.0000 0.32820  0.76800  0.51140  Biso   1.000  C
  C7       1.0000 0.69560  0.44940  0.57240  Biso   1.000  C
  C8       1.0000 0.30440  0.55060  0.42760  Biso   1.000  C
  C9       1.0000 0.83550  0.77280  0.69630  Biso   1.000  C
  C10      1.0000 0.16450  0.22720  0.30370  Biso   1.000  C
  H9       1.0000 0.84690  0.84180  0.74440  Biso   1.000  H
  H10      1.0000 0.15310  0.15820  0.25560  Biso   1.000  H
  C11      1.0000 0.85790  0.67190  0.57680  Biso   1.000  C
  C12      1.0000 0.14210  0.32810  0.42320  Biso   1.000  C
  H11      1.0000 0.88390  0.65080  0.52360  Biso   1.000  H
  H12      1.0000 0.11610  0.34920  0.47640  Biso   1.000  H
  C13      1.0000 0.54760  0.40710  0.57350  Biso   1.000  C
  C14      1.0000 0.45240  0.59290  0.42650  Biso   1.000  C
  H13      1.0000 0.50750  0.46720  0.60430  Biso   1.000  H
  H14      1.0000 0.49250  0.53280  0.39570  Biso   1.000  H
  N23      1.0000 0.46090  0.28480  0.53250  Biso   1.000  N
  N24      1.0000 0.53910  0.71520  0.46750  Biso   1.000  N
  C15      1.0000 0.52310  0.20150  0.48960  Biso   1.000  C
  C16      1.0000 0.47690  0.79850  0.51040  Biso   1.000  C
  H15      1.0000 0.46320  0.11710  0.45830  Biso   1.000  H
  H16      1.0000 0.53680  0.88290  0.54170  Biso   1.000  H
  C17      1.0000 0.75430  0.57590  0.32100  Biso   1.000  C
  C18      1.0000 0.24570  0.42410  0.67900  Biso   1.000  C
  C19      1.0000 0.68600  0.43280  0.26870  Biso   1.000  C
  C20      1.0000 0.31400  0.56720  0.73130  Biso   1.000  C
  C21      1.0000 0.76190  0.33460  0.27780  Biso   1.000  C
  C22      1.0000 0.23810  0.66540  0.72220  Biso   1.000  C
  H17      1.0000 0.85550  0.35740  0.31880  Biso   1.000  H
  H18      1.0000 0.14450  0.64260  0.68120  Biso   1.000  H
  C23      1.0000 0.57280  0.17510  0.17430  Biso   1.000  C
  C24      1.0000 0.42720  0.82490  0.82570  Biso   1.000  C
  H19      1.0000 0.53390  0.08700  0.14150  Biso   1.000  H
  H20      1.0000 0.46610  0.91300  0.85850  Biso   1.000  H
  C25      1.0000 0.48700  0.26870  0.16270  Biso   1.000  C
  C26      1.0000 0.51300  0.73130  0.83730  Biso   1.000  C
  C27      1.0000 0.16930  0.11540  0.99350  Biso   1.000  C
  C28      1.0000 0.83070  0.88460  0.00650  Biso   1.000  C
  H21      1.0000 0.11310  0.05100  0.94280  Biso   1.000  H
  H22      1.0000 0.88690  0.94900  0.05720  Biso   1.000  H
  C29      1.0000 0.22740  0.28010  0.09940  Biso   1.000  C
  C30      1.0000 0.77260  0.71990  0.90060  Biso   1.000  C
  H23      1.0000 0.22670  0.35620  0.13890  Biso   1.000  H
  H24      1.0000 0.77330  0.64380  0.86110  Biso   1.000  H
  C31      1.0000 0.54540  0.39910  0.21020  Biso   1.000  C
  C32      1.0000 0.45460  0.60090  0.78980  Biso   1.000  C
  H25      1.0000 0.49070  0.46420  0.20290  Biso   1.000  H
  H26      1.0000 0.50930  0.53580  0.79710  Biso   1.000  H
  C33      1.0000 0.10250  0.89290  0.27750  Biso   1.000  C
  C34      1.0000 0.89750  0.10710  0.72250  Biso   1.000  C
  C35      1.0000 0.21810  0.83510  0.24710  Biso   1.000  C
  C36      1.0000 0.78190  0.16490  0.75290  Biso   1.000  C
  C37      1.0000 0.35950  0.85570  0.30230  Biso   1.000  C
  C38      1.0000 0.64050  0.14430  0.69770  Biso   1.000  C
  H27      1.0000 0.38230  0.90490  0.36050  Biso   1.000  H
  H28      1.0000 0.61770  0.09510  0.63950  Biso   1.000  H
  C39      1.0000 0.43460  0.74130  0.19290  Biso   1.000  C
  C40      1.0000 0.56540  0.25870  0.80710  Biso   1.000  C
  H29      1.0000 0.50960  0.71150  0.17360  Biso   1.000  H
  H30      1.0000 0.49040  0.28850  0.82640  Biso   1.000  H
  C41      1.0000 0.29450  0.71350  0.13310  Biso   1.000  C
  C42      1.0000 0.70550  0.28650  0.86690  Biso   1.000  C
  C43      1.0000 0.28240  0.49120  0.94550  Biso   1.000  C
  C44      1.0000 0.71760  0.50880  0.05450  Biso   1.000  C
  H31      1.0000 0.31580  0.42580  0.91420  Biso   1.000  H
  H32      1.0000 0.68420  0.57420  0.08580  Biso   1.000  H
  C45      1.0000 0.15390  0.62050  0.97200  Biso   1.000  C
  C46      1.0000 0.84610  0.37950  0.02800  Biso   1.000  C
  H33      1.0000 0.08120  0.66930  0.96730  Biso   1.000  H
  H34      1.0000 0.91880  0.33070  0.03270  Biso   1.000  H
  C47      1.0000 0.18500  0.76340  0.16070  Biso   1.000  C
  C48      1.0000 0.81500  0.23660  0.83930  Biso   1.000  C
  H35      1.0000 0.09080  0.74880  0.12150  Biso   1.000  H
  H36      1.0000 0.90920  0.25120  0.87850  Biso   1.000  H
