data_image0
_cell_length_a       16.572
_cell_length_b       16.572
_cell_length_c       10.62
_cell_angle_alpha    90
_cell_angle_beta     90
_cell_angle_gamma    120

_symmetry_space_group_name_H-M    "P 1"
_symmetry_int_tables_number       1

loop_
  _symmetry_equiv_pos_as_xyz
  'x, y, z'

loop_
  _atom_site_label
  _atom_site_occupancy
  _atom_site_fract_x
  _atom_site_fract_y
  _atom_site_fract_z
  _atom_site_thermal_displace_type
  _atom_site_B_iso_or_equiv
  _atom_site_type_symbol
  Cu1      1.0000 0.55544  0.47365  0.60712  Biso   1.000  Cu
  Cu2      1.0000 0.52635  0.08179  0.27379  Biso   1.000  Cu
  Cu3      1.0000 0.91821  0.44456  0.94045  Biso   1.000  Cu
  Cu4      1.0000 0.47365  0.55544  0.39288  Biso   1.000  Cu
  Cu5      1.0000 0.44456  0.91821  0.05955  Biso   1.000  Cu
  Cu6      1.0000 0.08179  0.52635  0.72621  Biso   1.000  Cu
  O1       1.0000 0.47450  0.36030  0.46220  Biso   1.000  O
  O2       1.0000 0.63970  0.11420  0.12887  Biso   1.000  O
  O3       1.0000 0.88580  0.52550  0.79553  Biso   1.000  O
  O4       1.0000 0.36030  0.47450  0.53780  Biso   1.000  O
  O5       1.0000 0.52550  0.88580  0.20447  Biso   1.000  O
  O6       1.0000 0.11420  0.63970  0.87113  Biso   1.000  O
  C1       1.0000 0.47550  0.38180  0.34940  Biso   1.000  C
  C2       1.0000 0.61820  0.09370  0.01607  Biso   1.000  C
  C3       1.0000 0.90630  0.52450  0.68273  Biso   1.000  C
  C4       1.0000 0.38180  0.47550  0.65060  Biso   1.000  C
  C5       1.0000 0.52450  0.90630  0.31727  Biso   1.000  C
  C6       1.0000 0.09370  0.61820  0.98393  Biso   1.000  C
  C7       1.0000 0.48510  0.31950  0.25430  Biso   1.000  C
  C8       1.0000 0.68050  0.16560  0.92097  Biso   1.000  C
  C9       1.0000 0.83440  0.51490  0.58763  Biso   1.000  C
  C10      1.0000 0.31950  0.48510  0.74570  Biso   1.000  C
  C11      1.0000 0.51490  0.83440  0.41237  Biso   1.000  C
  C12      1.0000 0.16560  0.68050  0.07903  Biso   1.000  C
  C13      1.0000 0.49240  0.33860  0.12440  Biso   1.000  C
  C14      1.0000 0.66140  0.15380  0.79107  Biso   1.000  C
  C15      1.0000 0.84620  0.50760  0.45773  Biso   1.000  C
  C16      1.0000 0.33860  0.49240  0.87560  Biso   1.000  C
  C17      1.0000 0.50760  0.84620  0.54227  Biso   1.000  C
  C18      1.0000 0.15380  0.66140  0.20893  Biso   1.000  C
  H1       1.0000 0.48790  0.38890  0.09420  Biso   1.000  H
  H2       1.0000 0.61110  0.09900  0.76087  Biso   1.000  H
  H3       1.0000 0.90100  0.51210  0.42753  Biso   1.000  H
  H4       1.0000 0.38890  0.48790  0.90580  Biso   1.000  H
  H5       1.0000 0.51210  0.90100  0.57247  Biso   1.000  H
  H6       1.0000 0.09900  0.61110  0.23913  Biso   1.000  H
  C19      1.0000 0.50620  0.28280  0.04320  Biso   1.000  C
  C20      1.0000 0.71720  0.22340  0.70987  Biso   1.000  C
  C21      1.0000 0.77660  0.49380  0.37653  Biso   1.000  C
  C22      1.0000 0.28280  0.50620  0.95680  Biso   1.000  C
  C23      1.0000 0.49380  0.77660  0.62347  Biso   1.000  C
  C24      1.0000 0.22340  0.71720  0.29013  Biso   1.000  C
  C25      1.0000 0.51030  0.20780  0.08830  Biso   1.000  C
  C26      1.0000 0.79220  0.30250  0.75497  Biso   1.000  C
  C27      1.0000 0.69750  0.48970  0.42163  Biso   1.000  C
  C28      1.0000 0.20780  0.51030  0.91170  Biso   1.000  C
  C29      1.0000 0.48970  0.69750  0.57837  Biso   1.000  C
  C30      1.0000 0.30250  0.79220  0.24503  Biso   1.000  C
  H7       1.0000 0.51430  0.16730  0.03140  Biso   1.000  H
  H8       1.0000 0.83270  0.34700  0.69807  Biso   1.000  H
  H9       1.0000 0.65300  0.48570  0.36473  Biso   1.000  H
  H10      1.0000 0.16730  0.51430  0.96860  Biso   1.000  H
  H11      1.0000 0.48570  0.65300  0.63527  Biso   1.000  H
  H12      1.0000 0.34700  0.83270  0.30193  Biso   1.000  H
  N1       1.0000 0.50880  0.19080  0.21160  Biso   1.000  N
  N2       1.0000 0.80920  0.31800  0.87827  Biso   1.000  N
  N3       1.0000 0.68200  0.49120  0.54493  Biso   1.000  N
  N4       1.0000 0.19080  0.50880  0.78840  Biso   1.000  N
  N5       1.0000 0.49120  0.68200  0.45507  Biso   1.000  N
  N6       1.0000 0.31800  0.80920  0.12173  Biso   1.000  N
  C31      1.0000 0.49510  0.24510  0.29070  Biso   1.000  C
  C32      1.0000 0.75490  0.25000  0.95737  Biso   1.000  C
  C33      1.0000 0.75000  0.50490  0.62403  Biso   1.000  C
  C34      1.0000 0.24510  0.49510  0.70930  Biso   1.000  C
  C35      1.0000 0.50490  0.75000  0.37597  Biso   1.000  C
  C36      1.0000 0.25000  0.75490  0.04263  Biso   1.000  C
  H13      1.0000 0.49210  0.23210  0.37630  Biso   1.000  H
  H14      1.0000 0.76790  0.26000  0.04297  Biso   1.000  H
  H15      1.0000 0.74000  0.50790  0.70963  Biso   1.000  H
  H16      1.0000 0.23210  0.49210  0.62370  Biso   1.000  H
  H17      1.0000 0.50790  0.74000  0.29037  Biso   1.000  H
  H18      1.0000 0.26000  0.76790  0.95703  Biso   1.000  H
  N7       1.0000 0.51620  0.30520  0.91070  Biso   1.000  N
  N8       1.0000 0.69480  0.21100  0.57737  Biso   1.000  N
  N9       1.0000 0.78900  0.48380  0.24403  Biso   1.000  N
  N10      1.0000 0.30520  0.51620  0.08930  Biso   1.000  N
  N11      1.0000 0.48380  0.78900  0.75597  Biso   1.000  N
  N12      1.0000 0.21100  0.69480  0.42263  Biso   1.000  N
  N13      1.0000 0.53860  0.37450  0.73100  Biso   1.000  N
  N14      1.0000 0.62550  0.16410  0.39767  Biso   1.000  N
  N15      1.0000 0.83590  0.46140  0.06433  Biso   1.000  N
  N16      1.0000 0.37450  0.53860  0.26900  Biso   1.000  N
  N17      1.0000 0.46140  0.83590  0.93567  Biso   1.000  N
  N18      1.0000 0.16410  0.62550  0.60233  Biso   1.000  N
  C37      1.0000 0.52770  0.38010  0.85410  Biso   1.000  C
  C38      1.0000 0.61990  0.14760  0.52077  Biso   1.000  C
  C39      1.0000 0.85240  0.47230  0.18743  Biso   1.000  C
  C40      1.0000 0.38010  0.52770  0.14590  Biso   1.000  C
  C41      1.0000 0.47230  0.85240  0.81257  Biso   1.000  C
  C42      1.0000 0.14760  0.61990  0.47923  Biso   1.000  C
  H19      1.0000 0.52820  0.43030  0.89420  Biso   1.000  H
  H20      1.0000 0.56970  0.09790  0.56087  Biso   1.000  H
  H21      1.0000 0.90210  0.47180  0.22753  Biso   1.000  H
  H22      1.0000 0.43030  0.52820  0.10580  Biso   1.000  H
  H23      1.0000 0.47180  0.90210  0.77247  Biso   1.000  H
  H24      1.0000 0.09790  0.56970  0.43913  Biso   1.000  H
  O7       1.0000 0.47090  0.44820  0.30420  Biso   1.000  O
  O8       1.0000 0.55180  0.02270  0.97087  Biso   1.000  O
  O9       1.0000 0.97730  0.52910  0.63753  Biso   1.000  O
  O10      1.0000 0.44820  0.47090  0.69580  Biso   1.000  O
  O11      1.0000 0.52910  0.97730  0.36247  Biso   1.000  O
  O12      1.0000 0.02270  0.55180  0.02913  Biso   1.000  O
  O13      1.0000 0.57340  0.57340  0.50000  Biso   1.000  O
  O14      1.0000 0.42660  0.00000  0.16667  Biso   1.000  O
  O15      1.0000 0.00000  0.42660  0.83333  Biso   1.000  O
  N19      1.0000 0.50500  0.23710  0.82220  Biso   1.000  N
  N20      1.0000 0.76290  0.26790  0.48887  Biso   1.000  N
  N21      1.0000 0.73210  0.49500  0.15553  Biso   1.000  N
  N22      1.0000 0.23710  0.50500  0.17780  Biso   1.000  N
  N23      1.0000 0.49500  0.73210  0.84447  Biso   1.000  N
  N24      1.0000 0.26790  0.76290  0.51113  Biso   1.000  N
  C43      1.0000 0.51700  0.28190  0.71950  Biso   1.000  C
  C44      1.0000 0.71810  0.23510  0.38617  Biso   1.000  C
  C45      1.0000 0.76490  0.48300  0.05283  Biso   1.000  C
  C46      1.0000 0.28190  0.51700  0.28050  Biso   1.000  C
  C47      1.0000 0.48300  0.76490  0.94717  Biso   1.000  C
  C48      1.0000 0.23510  0.71810  0.61383  Biso   1.000  C
  H25      1.0000 0.51100  0.25440  0.64130  Biso   1.000  H
  H26      1.0000 0.74560  0.25660  0.30797  Biso   1.000  H
  H27      1.0000 0.74340  0.48900  0.97463  Biso   1.000  H
  H28      1.0000 0.25440  0.51100  0.35870  Biso   1.000  H
  H29      1.0000 0.48900  0.74340  0.02537  Biso   1.000  H
  H30      1.0000 0.25660  0.74560  0.69203  Biso   1.000  H
  N25      1.0000 0.54900  0.26100  0.82800  Biso   1.000  N
  N26      1.0000 0.73900  0.28800  0.49467  Biso   1.000  N
  N27      1.0000 0.71200  0.45100  0.16133  Biso   1.000  N
  N28      1.0000 0.26100  0.54900  0.17200  Biso   1.000  N
  N29      1.0000 0.45100  0.71200  0.83867  Biso   1.000  N
  N30      1.0000 0.28800  0.73900  0.50533  Biso   1.000  N
  C49      1.0000 0.55800  0.30400  0.72400  Biso   1.000  C
  C50      1.0000 0.69600  0.25400  0.39067  Biso   1.000  C
  C51      1.0000 0.74600  0.44200  0.05733  Biso   1.000  C
  C52      1.0000 0.30400  0.55800  0.27600  Biso   1.000  C
  C53      1.0000 0.44200  0.74600  0.94267  Biso   1.000  C
  C54      1.0000 0.25400  0.69600  0.60933  Biso   1.000  C
  H31      1.0000 0.57690  0.28840  0.65020  Biso   1.000  H
  H32      1.0000 0.71160  0.28850  0.31687  Biso   1.000  H
  H33      1.0000 0.71150  0.42310  0.98353  Biso   1.000  H
  H34      1.0000 0.28840  0.57690  0.34980  Biso   1.000  H
  H35      1.0000 0.42310  0.71150  0.01647  Biso   1.000  H
  H36      1.0000 0.28850  0.71160  0.68313  Biso   1.000  H
