data_image0
_cell_length_a       7.197
_cell_length_b       24.9
_cell_length_c       10.269
_cell_angle_alpha    90
_cell_angle_beta     90
_cell_angle_gamma    90

_symmetry_space_group_name_H-M    "P 1"
_symmetry_int_tables_number       1

loop_
  _symmetry_equiv_pos_as_xyz
  'x, y, z'

loop_
  _atom_site_label
  _atom_site_occupancy
  _atom_site_fract_x
  _atom_site_fract_y
  _atom_site_fract_z
  _atom_site_thermal_displace_type
  _atom_site_B_iso_or_equiv
  _atom_site_type_symbol
  Cu1      1.0000 0.04800  0.34660  0.15350  Biso   1.000  Cu
  Cu2      1.0000 0.45200  0.65340  0.65350  Biso   1.000  Cu
  Cu3      1.0000 0.54800  0.15340  0.84650  Biso   1.000  Cu
  Cu4      1.0000 0.95200  0.84660  0.34650  Biso   1.000  Cu
  Cu5      1.0000 0.95200  0.65340  0.84650  Biso   1.000  Cu
  Cu6      1.0000 0.54800  0.34660  0.34650  Biso   1.000  Cu
  Cu7      1.0000 0.45200  0.84660  0.15350  Biso   1.000  Cu
  Cu8      1.0000 0.04800  0.15340  0.65350  Biso   1.000  Cu
  Cl1      1.0000 0.03220  0.29920  0.96750  Biso   1.000  Cl
  Cl2      1.0000 0.46780  0.70080  0.46750  Biso   1.000  Cl
  Cl3      1.0000 0.53220  0.20080  0.03250  Biso   1.000  Cl
  Cl4      1.0000 0.96780  0.79920  0.53250  Biso   1.000  Cl
  Cl5      1.0000 0.96780  0.70080  0.03250  Biso   1.000  Cl
  Cl6      1.0000 0.53220  0.29920  0.53250  Biso   1.000  Cl
  Cl7      1.0000 0.46780  0.79920  0.96750  Biso   1.000  Cl
  Cl8      1.0000 0.03220  0.20080  0.46750  Biso   1.000  Cl
  Cl9      1.0000 0.13290  0.41920  0.03630  Biso   1.000  Cl
  Cl10     1.0000 0.36710  0.58080  0.53630  Biso   1.000  Cl
  Cl11     1.0000 0.63290  0.08080  0.96370  Biso   1.000  Cl
  Cl12     1.0000 0.86710  0.91920  0.46370  Biso   1.000  Cl
  Cl13     1.0000 0.86710  0.58080  0.96370  Biso   1.000  Cl
  Cl14     1.0000 0.63290  0.41920  0.46370  Biso   1.000  Cl
  Cl15     1.0000 0.36710  0.91920  0.03630  Biso   1.000  Cl
  Cl16     1.0000 0.13290  0.08080  0.53630  Biso   1.000  Cl
  Cl17     1.0000 0.83590  0.29160  0.25430  Biso   1.000  Cl
  Cl18     1.0000 0.66410  0.70840  0.75430  Biso   1.000  Cl
  Cl19     1.0000 0.33590  0.20840  0.74570  Biso   1.000  Cl
  Cl20     1.0000 0.16410  0.79160  0.24570  Biso   1.000  Cl
  Cl21     1.0000 0.16410  0.70840  0.74570  Biso   1.000  Cl
  Cl22     1.0000 0.33590  0.29160  0.24570  Biso   1.000  Cl
  Cl23     1.0000 0.66410  0.79160  0.25430  Biso   1.000  Cl
  Cl24     1.0000 0.83590  0.20840  0.75430  Biso   1.000  Cl
  O1       1.0000 0.23150  0.45160  0.73190  Biso   1.000  O
  O2       1.0000 0.26850  0.54840  0.23190  Biso   1.000  O
  O3       1.0000 0.73150  0.04840  0.26810  Biso   1.000  O
  O4       1.0000 0.76850  0.95160  0.76810  Biso   1.000  O
  O5       1.0000 0.76850  0.54840  0.26810  Biso   1.000  O
  O6       1.0000 0.73150  0.45160  0.76810  Biso   1.000  O
  O7       1.0000 0.26850  0.95160  0.73190  Biso   1.000  O
  O8       1.0000 0.23150  0.04840  0.23190  Biso   1.000  O
  N1       1.0000 0.11840  0.36680  0.70510  Biso   1.000  N
  N2       1.0000 0.38160  0.63320  0.20510  Biso   1.000  N
  N3       1.0000 0.61840  0.13320  0.29490  Biso   1.000  N
  N4       1.0000 0.88160  0.86680  0.79490  Biso   1.000  N
  N5       1.0000 0.88160  0.63320  0.29490  Biso   1.000  N
  N6       1.0000 0.61840  0.36680  0.79490  Biso   1.000  N
  N7       1.0000 0.38160  0.86680  0.70510  Biso   1.000  N
  N8       1.0000 0.11840  0.13320  0.20510  Biso   1.000  N
  N9       1.0000 0.04670  0.33000  0.50460  Biso   1.000  N
  N10      1.0000 0.45330  0.67000  0.00460  Biso   1.000  N
  N11      1.0000 0.54670  0.17000  0.49540  Biso   1.000  N
  N12      1.0000 0.95330  0.83000  0.99540  Biso   1.000  N
  N13      1.0000 0.95330  0.67000  0.49540  Biso   1.000  N
  N14      1.0000 0.54670  0.33000  0.99540  Biso   1.000  N
  N15      1.0000 0.45330  0.83000  0.50460  Biso   1.000  N
  N16      1.0000 0.04670  0.17000  0.00460  Biso   1.000  N
  N17      1.0000 0.13230  0.44270  0.31750  Biso   1.000  N
  N18      1.0000 0.36770  0.55730  0.81750  Biso   1.000  N
  N19      1.0000 0.63230  0.05730  0.68250  Biso   1.000  N
  N20      1.0000 0.86770  0.94270  0.18250  Biso   1.000  N
  N21      1.0000 0.86770  0.55730  0.68250  Biso   1.000  N
  N22      1.0000 0.63230  0.44270  0.18250  Biso   1.000  N
  N23      1.0000 0.36770  0.94270  0.31750  Biso   1.000  N
  N24      1.0000 0.13230  0.05730  0.81750  Biso   1.000  N
  N25      1.0000 0.07750  0.39030  0.32110  Biso   1.000  N
  N26      1.0000 0.42250  0.60970  0.82110  Biso   1.000  N
  N27      1.0000 0.57750  0.10970  0.67890  Biso   1.000  N
  N28      1.0000 0.92250  0.89030  0.17890  Biso   1.000  N
  N29      1.0000 0.92250  0.60970  0.67890  Biso   1.000  N
  N30      1.0000 0.57750  0.39030  0.17890  Biso   1.000  N
  N31      1.0000 0.42250  0.89030  0.32110  Biso   1.000  N
  N32      1.0000 0.07750  0.10970  0.82110  Biso   1.000  N
  C1       1.0000 0.06460  0.32580  0.63160  Biso   1.000  C
  C2       1.0000 0.43540  0.67420  0.13160  Biso   1.000  C
  C3       1.0000 0.56460  0.17420  0.36840  Biso   1.000  C
  C4       1.0000 0.93540  0.82580  0.86840  Biso   1.000  C
  C5       1.0000 0.93540  0.67420  0.36840  Biso   1.000  C
  C6       1.0000 0.56460  0.32580  0.86840  Biso   1.000  C
  C7       1.0000 0.43540  0.82580  0.63160  Biso   1.000  C
  C8       1.0000 0.06460  0.17420  0.13160  Biso   1.000  C
  C9       1.0000 0.08580  0.37900  0.44700  Biso   1.000  C
  C10      1.0000 0.41420  0.62100  0.94700  Biso   1.000  C
  C11      1.0000 0.58580  0.12100  0.55300  Biso   1.000  C
  C12      1.0000 0.91420  0.87900  0.05300  Biso   1.000  C
  C13      1.0000 0.91420  0.62100  0.55300  Biso   1.000  C
  C14      1.0000 0.58580  0.37900  0.05300  Biso   1.000  C
  C15      1.0000 0.41420  0.87900  0.44700  Biso   1.000  C
  C16      1.0000 0.08580  0.12100  0.94700  Biso   1.000  C
  C17      1.0000 0.14420  0.42220  0.52150  Biso   1.000  C
  C18      1.0000 0.35580  0.57780  0.02150  Biso   1.000  C
  C19      1.0000 0.64420  0.07780  0.47850  Biso   1.000  C
  C20      1.0000 0.85580  0.92220  0.97850  Biso   1.000  C
  C21      1.0000 0.85580  0.57780  0.47850  Biso   1.000  C
  C22      1.0000 0.64420  0.42220  0.97850  Biso   1.000  C
  C23      1.0000 0.35580  0.92220  0.52150  Biso   1.000  C
  C24      1.0000 0.14420  0.07780  0.02150  Biso   1.000  C
  C25      1.0000 0.17270  0.41830  0.65880  Biso   1.000  C
  C26      1.0000 0.32730  0.58170  0.15880  Biso   1.000  C
  C27      1.0000 0.67270  0.08170  0.34120  Biso   1.000  C
  C28      1.0000 0.82730  0.91830  0.84120  Biso   1.000  C
  C29      1.0000 0.82730  0.58170  0.34120  Biso   1.000  C
  C30      1.0000 0.67270  0.41830  0.84120  Biso   1.000  C
  C31      1.0000 0.32730  0.91830  0.65880  Biso   1.000  C
  C32      1.0000 0.17270  0.08170  0.15880  Biso   1.000  C
  C33      1.0000 0.17290  0.46260  0.43210  Biso   1.000  C
  C34      1.0000 0.32710  0.53740  0.93210  Biso   1.000  C
  C35      1.0000 0.67290  0.03740  0.56790  Biso   1.000  C
  C36      1.0000 0.82710  0.96260  0.06790  Biso   1.000  C
  C37      1.0000 0.82710  0.53740  0.56790  Biso   1.000  C
  C38      1.0000 0.67290  0.46260  0.06790  Biso   1.000  C
  C39      1.0000 0.32710  0.96260  0.43210  Biso   1.000  C
  C40      1.0000 0.17290  0.03740  0.93210  Biso   1.000  C
