data_image0
_cell_length_a       3.762
_cell_length_b       16.757
_cell_length_c       8.356
_cell_angle_alpha    90
_cell_angle_beta     94.34
_cell_angle_gamma    90

_symmetry_space_group_name_H-M    "P 1"
_symmetry_int_tables_number       1

loop_
  _symmetry_equiv_pos_as_xyz
  'x, y, z'

loop_
  _atom_site_label
  _atom_site_occupancy
  _atom_site_fract_x
  _atom_site_fract_y
  _atom_site_fract_z
  _atom_site_thermal_displace_type
  _atom_site_B_iso_or_equiv
  _atom_site_type_symbol
  Cu1      1.0000 0.75440  0.00000  0.18470  Biso   1.000  Cu
  Cu2      1.0000 0.24560  0.50000  0.81530  Biso   1.000  Cu
  Cl1      1.0000 0.29970  0.01000  0.98810  Biso   1.000  Cl
  Cl2      1.0000 0.70030  0.51000  0.01190  Biso   1.000  Cl
  Cl3      1.0000 0.12470  0.98070  0.41110  Biso   1.000  Cl
  Cl4      1.0000 0.87530  0.48070  0.58890  Biso   1.000  Cl
  O1       1.0000 0.34600  0.26800  0.62440  Biso   1.000  O
  O2       1.0000 0.65400  0.76800  0.37560  Biso   1.000  O
  N1       1.0000 0.29320  0.34900  0.40540  Biso   1.000  N
  N2       1.0000 0.70680  0.84900  0.59460  Biso   1.000  N
  N3       1.0000 0.45350  0.31670  0.14670  Biso   1.000  N
  N4       1.0000 0.54650  0.81670  0.85330  Biso   1.000  N
  N5       1.0000 0.72070  0.11790  0.23780  Biso   1.000  N
  N6       1.0000 0.27930  0.61790  0.76220  Biso   1.000  N
  N7       1.0000 0.66000  0.18200  0.13240  Biso   1.000  N
  N8       1.0000 0.34000  0.68200  0.86760  Biso   1.000  N
  C1       1.0000 0.33080  0.36630  0.24980  Biso   1.000  C
  C2       1.0000 0.66920  0.86630  0.75020  Biso   1.000  C
  C3       1.0000 0.53700  0.24430  0.21290  Biso   1.000  C
  C4       1.0000 0.46300  0.74430  0.78710  Biso   1.000  C
  C5       1.0000 0.51760  0.22150  0.37260  Biso   1.000  C
  C6       1.0000 0.48240  0.72150  0.62740  Biso   1.000  C
  C7       1.0000 0.38290  0.27780  0.48400  Biso   1.000  C
  C8       1.0000 0.61710  0.77780  0.51600  Biso   1.000  C
  C9       1.0000 0.63620  0.14280  0.37900  Biso   1.000  C
  C10      1.0000 0.36380  0.64280  0.62100  Biso   1.000  C
  C11      1.0000 0.75060  0.18180  0.96670  Biso   1.000  C
  C12      1.0000 0.24940  0.68180  0.03330  Biso   1.000  C
  O3       1.0000 0.75880  0.88380  0.15300  Biso   1.000  O
  O4       1.0000 0.24120  0.38380  0.84700  Biso   1.000  O
