data_image0
_cell_length_a       19.5388
_cell_length_b       12.9962
_cell_length_c       23.865
_cell_angle_alpha    90
_cell_angle_beta     110.905
_cell_angle_gamma    90

_symmetry_space_group_name_H-M    "P 1"
_symmetry_int_tables_number       1

loop_
  _symmetry_equiv_pos_as_xyz
  'x, y, z'

loop_
  _atom_site_label
  _atom_site_occupancy
  _atom_site_fract_x
  _atom_site_fract_y
  _atom_site_fract_z
  _atom_site_thermal_displace_type
  _atom_site_B_iso_or_equiv
  _atom_site_type_symbol
  Mo1      1.0000 0.33870  0.70756  0.51808  Biso   1.000  Mo
  Mo2      1.0000 0.66130  0.70756  0.98192  Biso   1.000  Mo
  Mo3      1.0000 0.83870  0.20756  0.51808  Biso   1.000  Mo
  Mo4      1.0000 0.16130  0.20756  0.98192  Biso   1.000  Mo
  Mo5      1.0000 0.66130  0.29244  0.48192  Biso   1.000  Mo
  Mo6      1.0000 0.33870  0.29244  0.01808  Biso   1.000  Mo
  Mo7      1.0000 0.16130  0.79244  0.48192  Biso   1.000  Mo
  Mo8      1.0000 0.83870  0.79244  0.01808  Biso   1.000  Mo
  Cu1      1.0000 0.91392  0.39336  0.81909  Biso   1.000  Cu
  Cu2      1.0000 0.08608  0.39336  0.68091  Biso   1.000  Cu
  Cu3      1.0000 0.41392  0.89336  0.81909  Biso   1.000  Cu
  Cu4      1.0000 0.58608  0.89336  0.68091  Biso   1.000  Cu
  Cu5      1.0000 0.08608  0.60664  0.18091  Biso   1.000  Cu
  Cu6      1.0000 0.91392  0.60664  0.31909  Biso   1.000  Cu
  Cu7      1.0000 0.58608  0.10664  0.18091  Biso   1.000  Cu
  Cu8      1.0000 0.41392  0.10664  0.31909  Biso   1.000  Cu
  N1       1.0000 0.80792  0.37470  0.80052  Biso   1.000  N
  N2       1.0000 0.19208  0.37470  0.69948  Biso   1.000  N
  N3       1.0000 0.30792  0.87470  0.80052  Biso   1.000  N
  N4       1.0000 0.69208  0.87470  0.69948  Biso   1.000  N
  N5       1.0000 0.19208  0.62530  0.19948  Biso   1.000  N
  N6       1.0000 0.80792  0.62530  0.30052  Biso   1.000  N
  N7       1.0000 0.69208  0.12530  0.19948  Biso   1.000  N
  N8       1.0000 0.30792  0.12530  0.30052  Biso   1.000  N
  C1       1.0000 0.77150  0.29240  0.81000  Biso   1.000  C
  C2       1.0000 0.22850  0.29240  0.69000  Biso   1.000  C
  C3       1.0000 0.27150  0.79240  0.81000  Biso   1.000  C
  C4       1.0000 0.72850  0.79240  0.69000  Biso   1.000  C
  C5       1.0000 0.22850  0.70760  0.19000  Biso   1.000  C
  C6       1.0000 0.77150  0.70760  0.31000  Biso   1.000  C
  C7       1.0000 0.72850  0.20760  0.19000  Biso   1.000  C
  C8       1.0000 0.27150  0.20760  0.31000  Biso   1.000  C
  H1       1.0000 0.79520  0.23520  0.83170  Biso   1.000  H
  H2       1.0000 0.20480  0.23520  0.66830  Biso   1.000  H
  H3       1.0000 0.29520  0.73520  0.83170  Biso   1.000  H
  H4       1.0000 0.70480  0.73520  0.66830  Biso   1.000  H
  H5       1.0000 0.20480  0.76480  0.16830  Biso   1.000  H
  H6       1.0000 0.79520  0.76480  0.33170  Biso   1.000  H
  H7       1.0000 0.70480  0.26480  0.16830  Biso   1.000  H
  H8       1.0000 0.29520  0.26480  0.33170  Biso   1.000  H
  O1       1.0000 0.89914  0.54310  0.79722  Biso   1.000  O
  O2       1.0000 0.10086  0.54310  0.70278  Biso   1.000  O
  O3       1.0000 0.39914  0.04310  0.79722  Biso   1.000  O
  O4       1.0000 0.60086  0.04310  0.70278  Biso   1.000  O
  O5       1.0000 0.10086  0.45690  0.20278  Biso   1.000  O
  O6       1.0000 0.89914  0.45690  0.29722  Biso   1.000  O
  O7       1.0000 0.60086  0.95690  0.20278  Biso   1.000  O
  O8       1.0000 0.39914  0.95690  0.29722  Biso   1.000  O
  O9       1.0000 0.57536  0.74350  0.67784  Biso   1.000  O
  O10      1.0000 0.42464  0.74350  0.82216  Biso   1.000  O
  O11      1.0000 0.07536  0.24350  0.67784  Biso   1.000  O
  O12      1.0000 0.92464  0.24350  0.82216  Biso   1.000  O
  O13      1.0000 0.42464  0.25650  0.32216  Biso   1.000  O
  O14      1.0000 0.57536  0.25650  0.17784  Biso   1.000  O
  O15      1.0000 0.92464  0.75650  0.32216  Biso   1.000  O
  O16      1.0000 0.07536  0.75650  0.17784  Biso   1.000  O
  Mo9      1.0000 0.34167  0.97294  0.51666  Biso   1.000  Mo
  Mo10     1.0000 0.65833  0.97294  0.98334  Biso   1.000  Mo
  Mo11     1.0000 0.84167  0.47294  0.51666  Biso   1.000  Mo
  Mo12     1.0000 0.15833  0.47294  0.98334  Biso   1.000  Mo
  Mo13     1.0000 0.65833  0.02706  0.48334  Biso   1.000  Mo
  Mo14     1.0000 0.34167  0.02706  0.01666  Biso   1.000  Mo
  Mo15     1.0000 0.15833  0.52706  0.48334  Biso   1.000  Mo
  Mo16     1.0000 0.84167  0.52706  0.01666  Biso   1.000  Mo
  Cu9      1.0000 0.25000  0.25000  0.50000  Biso   1.000  Cu
  Cu10     1.0000 0.75000  0.25000  0.00000  Biso   1.000  Cu
  Cu11     1.0000 0.75000  0.75000  0.50000  Biso   1.000  Cu
  Cu12     1.0000 0.25000  0.75000  0.00000  Biso   1.000  Cu
  O17      1.0000 0.27911  0.07120  0.49897  Biso   1.000  O
  O18      1.0000 0.72089  0.07120  0.00103  Biso   1.000  O
  O19      1.0000 0.77911  0.57120  0.49897  Biso   1.000  O
  O20      1.0000 0.22089  0.57120  0.00103  Biso   1.000  O
  O21      1.0000 0.72089  0.92880  0.50103  Biso   1.000  O
  O22      1.0000 0.27911  0.92880  0.99897  Biso   1.000  O
  O23      1.0000 0.22089  0.42880  0.50103  Biso   1.000  O
  O24      1.0000 0.77911  0.42880  0.99897  Biso   1.000  O
  C9       1.0000 0.53844  0.57490  0.68967  Biso   1.000  C
  C10      1.0000 0.46156  0.57490  0.81033  Biso   1.000  C
  C11      1.0000 0.03844  0.07490  0.68967  Biso   1.000  C
  C12      1.0000 0.96156  0.07490  0.81033  Biso   1.000  C
  C13      1.0000 0.46156  0.42510  0.31033  Biso   1.000  C
  C14      1.0000 0.53844  0.42510  0.18967  Biso   1.000  C
  C15      1.0000 0.96156  0.92510  0.31033  Biso   1.000  C
  C16      1.0000 0.03844  0.92510  0.18967  Biso   1.000  C
  O25      1.0000 0.93930  0.42010  0.91943  Biso   1.000  O
  O26      1.0000 0.06070  0.42010  0.58057  Biso   1.000  O
  O27      1.0000 0.43930  0.92010  0.91943  Biso   1.000  O
  O28      1.0000 0.56070  0.92010  0.58057  Biso   1.000  O
  O29      1.0000 0.06070  0.57990  0.08057  Biso   1.000  O
  O30      1.0000 0.93930  0.57990  0.41943  Biso   1.000  O
  O31      1.0000 0.56070  0.07990  0.08057  Biso   1.000  O
  O32      1.0000 0.43930  0.07990  0.41943  Biso   1.000  O
  N9       1.0000 0.33573  0.27050  0.57443  Biso   1.000  N
  N10      1.0000 0.66427  0.27050  0.92557  Biso   1.000  N
  N11      1.0000 0.83573  0.77050  0.57443  Biso   1.000  N
  N12      1.0000 0.16427  0.77050  0.92557  Biso   1.000  N
  N13      1.0000 0.66427  0.72950  0.42557  Biso   1.000  N
  N14      1.0000 0.33573  0.72950  0.07443  Biso   1.000  N
  N15      1.0000 0.16427  0.22950  0.42557  Biso   1.000  N
  N16      1.0000 0.83573  0.22950  0.07443  Biso   1.000  N
  Mo17     1.0000 0.24893  0.85800  0.39129  Biso   1.000  Mo
  Mo18     1.0000 0.75107  0.85800  0.10871  Biso   1.000  Mo
  Mo19     1.0000 0.74893  0.35800  0.39129  Biso   1.000  Mo
  Mo20     1.0000 0.25107  0.35800  0.10871  Biso   1.000  Mo
  Mo21     1.0000 0.75107  0.14200  0.60871  Biso   1.000  Mo
  Mo22     1.0000 0.24893  0.14200  0.89129  Biso   1.000  Mo
  Mo23     1.0000 0.25107  0.64200  0.60871  Biso   1.000  Mo
  Mo24     1.0000 0.74893  0.64200  0.89129  Biso   1.000  Mo
  C17      1.0000 0.36960  0.20180  0.61789  Biso   1.000  C
  C18      1.0000 0.63040  0.20180  0.88211  Biso   1.000  C
  C19      1.0000 0.86960  0.70180  0.61789  Biso   1.000  C
  C20      1.0000 0.13040  0.70180  0.88211  Biso   1.000  C
  C21      1.0000 0.63040  0.79820  0.38211  Biso   1.000  C
  C22      1.0000 0.36960  0.79820  0.11789  Biso   1.000  C
  C23      1.0000 0.13040  0.29820  0.38211  Biso   1.000  C
  C24      1.0000 0.86960  0.29820  0.11789  Biso   1.000  C
  H9       1.0000 0.35200  0.13560  0.61890  Biso   1.000  H
  H10      1.0000 0.64800  0.13560  0.88110  Biso   1.000  H
  H11      1.0000 0.85200  0.63560  0.61890  Biso   1.000  H
  H12      1.0000 0.14800  0.63560  0.88110  Biso   1.000  H
  H13      1.0000 0.64800  0.86440  0.38110  Biso   1.000  H
  H14      1.0000 0.35200  0.86440  0.11890  Biso   1.000  H
  H15      1.0000 0.14800  0.36440  0.38110  Biso   1.000  H
  H16      1.0000 0.85200  0.36440  0.11890  Biso   1.000  H
  N17      1.0000 0.69047  0.39340  0.75898  Biso   1.000  N
  N18      1.0000 0.30953  0.39340  0.74102  Biso   1.000  N
  N19      1.0000 0.19047  0.89340  0.75898  Biso   1.000  N
  N20      1.0000 0.80953  0.89340  0.74102  Biso   1.000  N
  N21      1.0000 0.30953  0.60660  0.24102  Biso   1.000  N
  N22      1.0000 0.69047  0.60660  0.25898  Biso   1.000  N
  N23      1.0000 0.80953  0.10660  0.24102  Biso   1.000  N
  N24      1.0000 0.19047  0.10660  0.25898  Biso   1.000  N
  O33      1.0000 0.18987  0.20670  0.54840  Biso   1.000  O
  O34      1.0000 0.81013  0.20670  0.95160  Biso   1.000  O
  O35      1.0000 0.68987  0.70670  0.54840  Biso   1.000  O
  O36      1.0000 0.31013  0.70670  0.95160  Biso   1.000  O
  O37      1.0000 0.81013  0.79330  0.45160  Biso   1.000  O
  O38      1.0000 0.18987  0.79330  0.04840  Biso   1.000  O
  O39      1.0000 0.31013  0.29330  0.45160  Biso   1.000  O
  O40      1.0000 0.68987  0.29330  0.04840  Biso   1.000  O
  O41      1.0000 0.01758  0.41191  0.83643  Biso   1.000  O
  O42      1.0000 0.98242  0.41191  0.66357  Biso   1.000  O
  O43      1.0000 0.51758  0.91191  0.83643  Biso   1.000  O
  O44      1.0000 0.48242  0.91191  0.66357  Biso   1.000  O
  O45      1.0000 0.98242  0.58809  0.16357  Biso   1.000  O
  O46      1.0000 0.01758  0.58809  0.33643  Biso   1.000  O
  O47      1.0000 0.48242  0.08809  0.16357  Biso   1.000  O
  O48      1.0000 0.51758  0.08809  0.33643  Biso   1.000  O
  Mo25     1.0000 0.39707  0.85136  0.64499  Biso   1.000  Mo
  Mo26     1.0000 0.60293  0.85136  0.85501  Biso   1.000  Mo
  Mo27     1.0000 0.89707  0.35136  0.64499  Biso   1.000  Mo
  Mo28     1.0000 0.10293  0.35136  0.85501  Biso   1.000  Mo
  Mo29     1.0000 0.60293  0.14864  0.35501  Biso   1.000  Mo
  Mo30     1.0000 0.39707  0.14864  0.14499  Biso   1.000  Mo
  Mo31     1.0000 0.10293  0.64864  0.35501  Biso   1.000  Mo
  Mo32     1.0000 0.89707  0.64864  0.14499  Biso   1.000  Mo
  N25      1.0000 0.43368  0.33570  0.63993  Biso   1.000  N
  N26      1.0000 0.56632  0.33570  0.86007  Biso   1.000  N
  N27      1.0000 0.93368  0.83570  0.63993  Biso   1.000  N
  N28      1.0000 0.06632  0.83570  0.86007  Biso   1.000  N
  N29      1.0000 0.56632  0.66430  0.36007  Biso   1.000  N
  N30      1.0000 0.43368  0.66430  0.13993  Biso   1.000  N
  N31      1.0000 0.06632  0.16430  0.36007  Biso   1.000  N
  N32      1.0000 0.93368  0.16430  0.13993  Biso   1.000  N
  C25      1.0000 0.75521  0.43650  0.76778  Biso   1.000  C
  C26      1.0000 0.24479  0.43650  0.73222  Biso   1.000  C
  C27      1.0000 0.25521  0.93650  0.76778  Biso   1.000  C
  C28      1.0000 0.74479  0.93650  0.73222  Biso   1.000  C
  C29      1.0000 0.24479  0.56350  0.23222  Biso   1.000  C
  C30      1.0000 0.75521  0.56350  0.26778  Biso   1.000  C
  C31      1.0000 0.74479  0.06350  0.23222  Biso   1.000  C
  C32      1.0000 0.25521  0.06350  0.26778  Biso   1.000  C
  H17      1.0000 0.76230  0.50040  0.75310  Biso   1.000  H
  H18      1.0000 0.23770  0.50040  0.74690  Biso   1.000  H
  H19      1.0000 0.26230  0.00040  0.75310  Biso   1.000  H
  H20      1.0000 0.73770  0.00040  0.74690  Biso   1.000  H
  H21      1.0000 0.23770  0.49960  0.24690  Biso   1.000  H
  H22      1.0000 0.76230  0.49960  0.25310  Biso   1.000  H
  H23      1.0000 0.73770  0.99960  0.24690  Biso   1.000  H
  H24      1.0000 0.26230  0.99960  0.25310  Biso   1.000  H
  O49      1.0000 0.45879  0.71449  0.67166  Biso   1.000  O
  O50      1.0000 0.54121  0.71449  0.82834  Biso   1.000  O
  O51      1.0000 0.95879  0.21449  0.67166  Biso   1.000  O
  O52      1.0000 0.04121  0.21449  0.82834  Biso   1.000  O
  O53      1.0000 0.54121  0.28551  0.32834  Biso   1.000  O
  O54      1.0000 0.45879  0.28551  0.17166  Biso   1.000  O
  O55      1.0000 0.04121  0.78551  0.32834  Biso   1.000  O
  O56      1.0000 0.95879  0.78551  0.17166  Biso   1.000  O
  O57      1.0000 0.42526  0.03330  0.53953  Biso   1.000  O
  O58      1.0000 0.57474  0.03330  0.96047  Biso   1.000  O
  O59      1.0000 0.92526  0.53330  0.53953  Biso   1.000  O
  O60      1.0000 0.07474  0.53330  0.96047  Biso   1.000  O
  O61      1.0000 0.57474  0.96670  0.46047  Biso   1.000  O
  O62      1.0000 0.42526  0.96670  0.03953  Biso   1.000  O
  O63      1.0000 0.07474  0.46670  0.46047  Biso   1.000  O
  O64      1.0000 0.92526  0.46670  0.03953  Biso   1.000  O
  C33      1.0000 0.37720  0.35400  0.58973  Biso   1.000  C
  C34      1.0000 0.62280  0.35400  0.91027  Biso   1.000  C
  C35      1.0000 0.87720  0.85400  0.58973  Biso   1.000  C
  C36      1.0000 0.12280  0.85400  0.91027  Biso   1.000  C
  C37      1.0000 0.62280  0.64600  0.41027  Biso   1.000  C
  C38      1.0000 0.37720  0.64600  0.08973  Biso   1.000  C
  C39      1.0000 0.12280  0.14600  0.41027  Biso   1.000  C
  C40      1.0000 0.87720  0.14600  0.08973  Biso   1.000  C
  H25      1.0000 0.36820  0.41580  0.56870  Biso   1.000  H
  H26      1.0000 0.63180  0.41580  0.93130  Biso   1.000  H
  H27      1.0000 0.86820  0.91580  0.56870  Biso   1.000  H
  H28      1.0000 0.13180  0.91580  0.93130  Biso   1.000  H
  H29      1.0000 0.63180  0.58420  0.43130  Biso   1.000  H
  H30      1.0000 0.36820  0.58420  0.06870  Biso   1.000  H
  H31      1.0000 0.13180  0.08420  0.43130  Biso   1.000  H
  H32      1.0000 0.86820  0.08420  0.06870  Biso   1.000  H
  C41      1.0000 0.56261  0.36330  0.70137  Biso   1.000  C
  C42      1.0000 0.43739  0.36330  0.79863  Biso   1.000  C
  C43      1.0000 0.06261  0.86330  0.70137  Biso   1.000  C
  C44      1.0000 0.93739  0.86330  0.79863  Biso   1.000  C
  C45      1.0000 0.43739  0.63670  0.29863  Biso   1.000  C
  C46      1.0000 0.56261  0.63670  0.20137  Biso   1.000  C
  C47      1.0000 0.93739  0.13670  0.29863  Biso   1.000  C
  C48      1.0000 0.06261  0.13670  0.20137  Biso   1.000  C
  H33      1.0000 0.57090  0.29270  0.70480  Biso   1.000  H
  H34      1.0000 0.42910  0.29270  0.79520  Biso   1.000  H
  H35      1.0000 0.07090  0.79270  0.70480  Biso   1.000  H
  H36      1.0000 0.92910  0.79270  0.79520  Biso   1.000  H
  H37      1.0000 0.42910  0.70730  0.29520  Biso   1.000  H
  H38      1.0000 0.57090  0.70730  0.20480  Biso   1.000  H
  H39      1.0000 0.92910  0.20730  0.29520  Biso   1.000  H
  H40      1.0000 0.07090  0.20730  0.20480  Biso   1.000  H
  O65      1.0000 0.19472  0.96390  0.36805  Biso   1.000  O
  O66      1.0000 0.80528  0.96390  0.13195  Biso   1.000  O
  O67      1.0000 0.69472  0.46390  0.36805  Biso   1.000  O
  O68      1.0000 0.30528  0.46390  0.13195  Biso   1.000  O
  O69      1.0000 0.80528  0.03610  0.63195  Biso   1.000  O
  O70      1.0000 0.19472  0.03610  0.86805  Biso   1.000  O
  O71      1.0000 0.30528  0.53610  0.63195  Biso   1.000  O
  O72      1.0000 0.69472  0.53610  0.86805  Biso   1.000  O
  N33      1.0000 0.42978  0.23730  0.65858  Biso   1.000  N
  N34      1.0000 0.57022  0.23730  0.84142  Biso   1.000  N
  N35      1.0000 0.92978  0.73730  0.65858  Biso   1.000  N
  N36      1.0000 0.07022  0.73730  0.84142  Biso   1.000  N
  N37      1.0000 0.57022  0.76270  0.34142  Biso   1.000  N
  N38      1.0000 0.42978  0.76270  0.15858  Biso   1.000  N
  N39      1.0000 0.07022  0.26270  0.34142  Biso   1.000  N
  N40      1.0000 0.92978  0.26270  0.15858  Biso   1.000  N
  O73      1.0000 0.33518  0.95204  0.59764  Biso   1.000  O
  O74      1.0000 0.66482  0.95204  0.90236  Biso   1.000  O
  O75      1.0000 0.83518  0.45204  0.59764  Biso   1.000  O
  O76      1.0000 0.16482  0.45204  0.90236  Biso   1.000  O
  O77      1.0000 0.66482  0.04796  0.40236  Biso   1.000  O
  O78      1.0000 0.33518  0.04796  0.09764  Biso   1.000  O
  O79      1.0000 0.16482  0.54796  0.40236  Biso   1.000  O
  O80      1.0000 0.83518  0.54796  0.09764  Biso   1.000  O
  N41      1.0000 0.69960  0.29960  0.78588  Biso   1.000  N
  N42      1.0000 0.30040  0.29960  0.71412  Biso   1.000  N
  N43      1.0000 0.19960  0.79960  0.78588  Biso   1.000  N
  N44      1.0000 0.80040  0.79960  0.71412  Biso   1.000  N
  N45      1.0000 0.30040  0.70040  0.21412  Biso   1.000  N
  N46      1.0000 0.69960  0.70040  0.28588  Biso   1.000  N
  N47      1.0000 0.80040  0.20040  0.21412  Biso   1.000  N
  N48      1.0000 0.19960  0.20040  0.28588  Biso   1.000  N
  C49      1.0000 0.47994  0.50730  0.66603  Biso   1.000  C
  C50      1.0000 0.52006  0.50730  0.83397  Biso   1.000  C
  C51      1.0000 0.97994  0.00730  0.66603  Biso   1.000  C
  C52      1.0000 0.02006  0.00730  0.83397  Biso   1.000  C
  C53      1.0000 0.52006  0.49270  0.33397  Biso   1.000  C
  C54      1.0000 0.47994  0.49270  0.16603  Biso   1.000  C
  C55      1.0000 0.02006  0.99270  0.33397  Biso   1.000  C
  C56      1.0000 0.97994  0.99270  0.16603  Biso   1.000  C
  H41      1.0000 0.43260  0.53210  0.64730  Biso   1.000  H
  H42      1.0000 0.56740  0.53210  0.85270  Biso   1.000  H
  H43      1.0000 0.93260  0.03210  0.64730  Biso   1.000  H
  H44      1.0000 0.06740  0.03210  0.85270  Biso   1.000  H
  H45      1.0000 0.56740  0.46790  0.35270  Biso   1.000  H
  H46      1.0000 0.43260  0.46790  0.14730  Biso   1.000  H
  H47      1.0000 0.06740  0.96790  0.35270  Biso   1.000  H
  H48      1.0000 0.93260  0.96790  0.14730  Biso   1.000  H
  O81      1.0000 0.37670  0.86160  0.70812  Biso   1.000  O
  O82      1.0000 0.62330  0.86160  0.79188  Biso   1.000  O
  O83      1.0000 0.87670  0.36160  0.70812  Biso   1.000  O
  O84      1.0000 0.12330  0.36160  0.79188  Biso   1.000  O
  O85      1.0000 0.62330  0.13840  0.29188  Biso   1.000  O
  O86      1.0000 0.37670  0.13840  0.20812  Biso   1.000  O
  O87      1.0000 0.12330  0.63840  0.29188  Biso   1.000  O
  O88      1.0000 0.87670  0.63840  0.20812  Biso   1.000  O
  C57      1.0000 0.61919  0.43290  0.72667  Biso   1.000  C
  C58      1.0000 0.38081  0.43290  0.77333  Biso   1.000  C
  C59      1.0000 0.11919  0.93290  0.72667  Biso   1.000  C
  C60      1.0000 0.88081  0.93290  0.77333  Biso   1.000  C
  C61      1.0000 0.38081  0.56710  0.27333  Biso   1.000  C
  C62      1.0000 0.61919  0.56710  0.22667  Biso   1.000  C
  C63      1.0000 0.88081  0.06710  0.27333  Biso   1.000  C
  C64      1.0000 0.11919  0.06710  0.22667  Biso   1.000  C
  O89      1.0000 0.25538  0.85153  0.48816  Biso   1.000  O
  O90      1.0000 0.74462  0.85153  0.01184  Biso   1.000  O
  O91      1.0000 0.75538  0.35153  0.48816  Biso   1.000  O
  O92      1.0000 0.24462  0.35153  0.01184  Biso   1.000  O
  O93      1.0000 0.74462  0.14847  0.51184  Biso   1.000  O
  O94      1.0000 0.25538  0.14847  0.98816  Biso   1.000  O
  O95      1.0000 0.24462  0.64847  0.51184  Biso   1.000  O
  O96      1.0000 0.75538  0.64847  0.98816  Biso   1.000  O
  C65      1.0000 0.60910  0.53810  0.72063  Biso   1.000  C
  C66      1.0000 0.39090  0.53810  0.77937  Biso   1.000  C
  C67      1.0000 0.10910  0.03810  0.72063  Biso   1.000  C
  C68      1.0000 0.89090  0.03810  0.77937  Biso   1.000  C
  C69      1.0000 0.39090  0.46190  0.27937  Biso   1.000  C
  C70      1.0000 0.60910  0.46190  0.22063  Biso   1.000  C
  C71      1.0000 0.89090  0.96190  0.27937  Biso   1.000  C
  C72      1.0000 0.10910  0.96190  0.22063  Biso   1.000  C
  H49      1.0000 0.64820  0.58320  0.73670  Biso   1.000  H
  H50      1.0000 0.35180  0.58320  0.76330  Biso   1.000  H
  H51      1.0000 0.14820  0.08320  0.73670  Biso   1.000  H
  H52      1.0000 0.85180  0.08320  0.76330  Biso   1.000  H
  H53      1.0000 0.35180  0.41680  0.26330  Biso   1.000  H
  H54      1.0000 0.64820  0.41680  0.23670  Biso   1.000  H
  H55      1.0000 0.85180  0.91680  0.26330  Biso   1.000  H
  H56      1.0000 0.14820  0.91680  0.23670  Biso   1.000  H
  O97      1.0000 0.39630  0.60510  0.54103  Biso   1.000  O
  O98      1.0000 0.60370  0.60510  0.95897  Biso   1.000  O
  O99      1.0000 0.89630  0.10510  0.54103  Biso   1.000  O
  O100     1.0000 0.10370  0.10510  0.95897  Biso   1.000  O
  O101     1.0000 0.60370  0.39490  0.45897  Biso   1.000  O
  O102     1.0000 0.39630  0.39490  0.04103  Biso   1.000  O
  O103     1.0000 0.10370  0.89490  0.45897  Biso   1.000  O
  O104     1.0000 0.89630  0.89490  0.04103  Biso   1.000  O
  C73      1.0000 0.52404  0.68760  0.67960  Biso   1.000  C
  C74      1.0000 0.47596  0.68760  0.82040  Biso   1.000  C
  C75      1.0000 0.02404  0.18760  0.67960  Biso   1.000  C
  C76      1.0000 0.97596  0.18760  0.82040  Biso   1.000  C
  C77      1.0000 0.47596  0.31240  0.32040  Biso   1.000  C
  C78      1.0000 0.52404  0.31240  0.17960  Biso   1.000  C
  C79      1.0000 0.97596  0.81240  0.32040  Biso   1.000  C
  C80      1.0000 0.02404  0.81240  0.17960  Biso   1.000  C
  C81      1.0000 0.49326  0.40280  0.67082  Biso   1.000  C
  C82      1.0000 0.50674  0.40280  0.82918  Biso   1.000  C
  C83      1.0000 0.99326  0.90280  0.67082  Biso   1.000  C
  C84      1.0000 0.00674  0.90280  0.82918  Biso   1.000  C
  C85      1.0000 0.50674  0.59720  0.32918  Biso   1.000  C
  C86      1.0000 0.49326  0.59720  0.17082  Biso   1.000  C
  C87      1.0000 0.00674  0.09720  0.32918  Biso   1.000  C
  C88      1.0000 0.99326  0.09720  0.17082  Biso   1.000  C
  O105     1.0000 0.32498  0.71950  0.44178  Biso   1.000  O
  O106     1.0000 0.67502  0.71950  0.05822  Biso   1.000  O
  O107     1.0000 0.82498  0.21950  0.44178  Biso   1.000  O
  O108     1.0000 0.17502  0.21950  0.05822  Biso   1.000  O
  O109     1.0000 0.67502  0.28050  0.55822  Biso   1.000  O
  O110     1.0000 0.32498  0.28050  0.94178  Biso   1.000  O
  O111     1.0000 0.17502  0.78050  0.55822  Biso   1.000  O
  O112     1.0000 0.82498  0.78050  0.94178  Biso   1.000  O
  O113     1.0000 0.33902  0.93010  0.43932  Biso   1.000  O
  O114     1.0000 0.66098  0.93010  0.06068  Biso   1.000  O
  O115     1.0000 0.83902  0.43010  0.43932  Biso   1.000  O
  O116     1.0000 0.16098  0.43010  0.06068  Biso   1.000  O
  O117     1.0000 0.66098  0.06990  0.56068  Biso   1.000  O
  O118     1.0000 0.33902  0.06990  0.93932  Biso   1.000  O
  O119     1.0000 0.16098  0.56990  0.56068  Biso   1.000  O
  O120     1.0000 0.83902  0.56990  0.93932  Biso   1.000  O
  O121     1.0000 0.26739  0.82080  0.32986  Biso   1.000  O
  O122     1.0000 0.73261  0.82080  0.17014  Biso   1.000  O
  O123     1.0000 0.76739  0.32080  0.32986  Biso   1.000  O
  O124     1.0000 0.23261  0.32080  0.17014  Biso   1.000  O
  O125     1.0000 0.73261  0.17920  0.67014  Biso   1.000  O
  O126     1.0000 0.26739  0.17920  0.82986  Biso   1.000  O
  O127     1.0000 0.23261  0.67920  0.67014  Biso   1.000  O
  O128     1.0000 0.76739  0.67920  0.82986  Biso   1.000  O
  O129     1.0000 0.17526  0.76141  0.39578  Biso   1.000  O
  O130     1.0000 0.82474  0.76141  0.10422  Biso   1.000  O
  O131     1.0000 0.67526  0.26141  0.39578  Biso   1.000  O
  O132     1.0000 0.32474  0.26141  0.10422  Biso   1.000  O
  O133     1.0000 0.82474  0.23859  0.60422  Biso   1.000  O
  O134     1.0000 0.17526  0.23859  0.89578  Biso   1.000  O
  O135     1.0000 0.32474  0.73859  0.60422  Biso   1.000  O
  O136     1.0000 0.67526  0.73859  0.89578  Biso   1.000  O
  O137     1.0000 0.39835  0.82283  0.54994  Biso   1.000  O
  O138     1.0000 0.60165  0.82283  0.95006  Biso   1.000  O
  O139     1.0000 0.89835  0.32283  0.54994  Biso   1.000  O
  O140     1.0000 0.10165  0.32283  0.95006  Biso   1.000  O
  O141     1.0000 0.60165  0.17717  0.45006  Biso   1.000  O
  O142     1.0000 0.39835  0.17717  0.04994  Biso   1.000  O
  O143     1.0000 0.10165  0.67717  0.45006  Biso   1.000  O
  O144     1.0000 0.89835  0.67717  0.04994  Biso   1.000  O
  O145     1.0000 0.00000  0.60360  0.75000  Biso   1.000  O
  O146     1.0000 0.50000  0.10360  0.75000  Biso   1.000  O
  O147     1.0000 0.00000  0.39640  0.25000  Biso   1.000  O
  O148     1.0000 0.50000  0.89640  0.25000  Biso   1.000  O
  O149     1.0000 0.94640  0.67690  0.89630  Biso   1.000  O
  O150     1.0000 0.05360  0.67690  0.60370  Biso   1.000  O
  O151     1.0000 0.44640  0.17690  0.89630  Biso   1.000  O
  O152     1.0000 0.55360  0.17690  0.60370  Biso   1.000  O
  O153     1.0000 0.05360  0.32310  0.10370  Biso   1.000  O
  O154     1.0000 0.94640  0.32310  0.39630  Biso   1.000  O
  O155     1.0000 0.55360  0.82310  0.10370  Biso   1.000  O
  O156     1.0000 0.44640  0.82310  0.39630  Biso   1.000  O
  O157     1.0000 0.21000  0.03300  0.61650  Biso   1.000  O
  O158     1.0000 0.79000  0.03300  0.88350  Biso   1.000  O
  O159     1.0000 0.71000  0.53300  0.61650  Biso   1.000  O
  O160     1.0000 0.29000  0.53300  0.88350  Biso   1.000  O
  O161     1.0000 0.79000  0.96700  0.38350  Biso   1.000  O
  O162     1.0000 0.21000  0.96700  0.11650  Biso   1.000  O
  O163     1.0000 0.29000  0.46700  0.38350  Biso   1.000  O
  O164     1.0000 0.71000  0.46700  0.11650  Biso   1.000  O
  O165     1.0000 0.04530  0.23250  0.51440  Biso   1.000  O
  O166     1.0000 0.95470  0.23250  0.98560  Biso   1.000  O
  O167     1.0000 0.54530  0.73250  0.51440  Biso   1.000  O
  O168     1.0000 0.45470  0.73250  0.98560  Biso   1.000  O
  O169     1.0000 0.95470  0.76750  0.48560  Biso   1.000  O
  O170     1.0000 0.04530  0.76750  0.01440  Biso   1.000  O
  O171     1.0000 0.45470  0.26750  0.48560  Biso   1.000  O
  O172     1.0000 0.54530  0.26750  0.01440  Biso   1.000  O
