data_image0
_cell_length_a       8.0952
_cell_length_b       13.957
_cell_length_c       14.1416
_cell_angle_alpha    93.925
_cell_angle_beta     91.488
_cell_angle_gamma    103.777

_symmetry_space_group_name_H-M    "P 1"
_symmetry_int_tables_number       1

loop_
  _symmetry_equiv_pos_as_xyz
  'x, y, z'

loop_
  _atom_site_label
  _atom_site_occupancy
  _atom_site_fract_x
  _atom_site_fract_y
  _atom_site_fract_z
  _atom_site_thermal_displace_type
  _atom_site_B_iso_or_equiv
  _atom_site_type_symbol
  Cu1      1.0000 0.22179  0.13212  0.33186  Biso   1.000  Cu
  Cu2      1.0000 0.77821  0.86788  0.66814  Biso   1.000  Cu
  O1       1.0000 0.36470  0.25793  0.37261  Biso   1.000  O
  O2       1.0000 0.63530  0.74207  0.62739  Biso   1.000  O
  O3       1.0000 0.14760  0.27967  0.45626  Biso   1.000  O
  O4       1.0000 0.85240  0.72033  0.54374  Biso   1.000  O
  O5       1.0000 0.43040  0.09956  0.23849  Biso   1.000  O
  O6       1.0000 0.56960  0.90044  0.76151  Biso   1.000  O
  O7       1.0000 0.34890  0.93628  0.23495  Biso   1.000  O
  O8       1.0000 0.65110  0.06372  0.76505  Biso   1.000  O
  O9       1.0000 0.20410  0.75175  0.18840  Biso   1.000  O
  O10      1.0000 0.79590  0.24825  0.81160  Biso   1.000  O
  H1       1.0000 0.25400  0.81100  0.20600  Biso   1.000  H
  H2       1.0000 0.74600  0.18900  0.79400  Biso   1.000  H
  O11      1.0000 0.25550  0.72344  0.33843  Biso   1.000  O
  O12      1.0000 0.74450  0.27656  0.66157  Biso   1.000  O
  O13      1.0000 0.69690  0.25521  0.24618  Biso   1.000  O
  O14      1.0000 0.30310  0.74479  0.75382  Biso   1.000  O
  H3       1.0000 0.61400  0.20540  0.24200  Biso   1.000  H
  H4       1.0000 0.38600  0.79460  0.75800  Biso   1.000  H
  O15      1.0000 0.57380  0.31995  0.13282  Biso   1.000  O
  O16      1.0000 0.42620  0.68005  0.86718  Biso   1.000  O
  N1       1.0000 0.11010  0.16966  0.21283  Biso   1.000  N
  N2       1.0000 0.88990  0.83034  0.78717  Biso   1.000  N
  N3       1.0000 0.05310  0.01088  0.29813  Biso   1.000  N
  N4       1.0000 0.94690  0.98912  0.70187  Biso   1.000  N
  N5       1.0000 0.25130  0.05599  0.44482  Biso   1.000  N
  N6       1.0000 0.74870  0.94401  0.55518  Biso   1.000  N
  C1       1.0000 0.29360  0.30856  0.43008  Biso   1.000  C
  C2       1.0000 0.70640  0.69144  0.56992  Biso   1.000  C
  C3       1.0000 0.40120  0.40809  0.46680  Biso   1.000  C
  C4       1.0000 0.59880  0.59191  0.53320  Biso   1.000  C
  C5       1.0000 0.57520  0.43206  0.45393  Biso   1.000  C
  C6       1.0000 0.42480  0.56794  0.54607  Biso   1.000  C
  H5       1.0000 0.62590  0.38610  0.42320  Biso   1.000  H
  H6       1.0000 0.37410  0.61390  0.57680  Biso   1.000  H
  C7       1.0000 0.32720  0.47626  0.51341  Biso   1.000  C
  C8       1.0000 0.67280  0.52374  0.48659  Biso   1.000  C
  H7       1.0000 0.21080  0.46020  0.52280  Biso   1.000  H
  H8       1.0000 0.78920  0.53980  0.47720  Biso   1.000  H
  C9       1.0000 0.40800  0.01388  0.19648  Biso   1.000  C
  C10      1.0000 0.59200  0.98612  0.80352  Biso   1.000  C
  C11      1.0000 0.45500  0.00686  0.09451  Biso   1.000  C
  C12      1.0000 0.54500  0.99314  0.90549  Biso   1.000  C
  C13      1.0000 0.48230  0.08976  0.04183  Biso   1.000  C
  C14      1.0000 0.51770  0.91024  0.95817  Biso   1.000  C
  H9       1.0000 0.47010  0.14990  0.06970  Biso   1.000  H
  H10      1.0000 0.52990  0.85010  0.93030  Biso   1.000  H
  C15      1.0000 0.47250  0.91703  0.05152  Biso   1.000  C
  C16      1.0000 0.52750  0.08297  0.94848  Biso   1.000  C
  H11      1.0000 0.45360  0.86130  0.08590  Biso   1.000  H
  H12      1.0000 0.54640  0.13870  0.91410  Biso   1.000  H
  C17      1.0000 0.15130  0.25602  0.17377  Biso   1.000  C
  C18      1.0000 0.84870  0.74398  0.82623  Biso   1.000  C
  H13      1.0000 0.23060  0.30840  0.20560  Biso   1.000  H
  H14      1.0000 0.76940  0.69160  0.79440  Biso   1.000  H
  C19      1.0000 0.08000  0.27010  0.08760  Biso   1.000  C
  C20      1.0000 0.92000  0.72990  0.91240  Biso   1.000  C
  H15      1.0000 0.11160  0.33100  0.06160  Biso   1.000  H
  H16      1.0000 0.88840  0.66900  0.93840  Biso   1.000  H
  C21      1.0000 0.96200  0.19340  0.04060  Biso   1.000  C
  C22      1.0000 0.03800  0.80660  0.95940  Biso   1.000  C
  H17      1.0000 0.91200  0.20170  0.98280  Biso   1.000  H
  H18      1.0000 0.08800  0.79830  0.01720  Biso   1.000  H
  C23      1.0000 0.91850  0.10341  0.08046  Biso   1.000  C
  C24      1.0000 0.08150  0.89659  0.91954  Biso   1.000  C
  H19      1.0000 0.83960  0.05030  0.04950  Biso   1.000  H
  H20      1.0000 0.16040  0.94970  0.95050  Biso   1.000  H
  C25      1.0000 0.99350  0.09362  0.16653  Biso   1.000  C
  C26      1.0000 0.00650  0.90638  0.83347  Biso   1.000  C
  C27      1.0000 0.95900  0.00151  0.21704  Biso   1.000  C
  C28      1.0000 0.04100  0.99849  0.78296  Biso   1.000  C
  C29      1.0000 0.84620  0.91331  0.18814  Biso   1.000  C
  C30      1.0000 0.15380  0.08669  0.81186  Biso   1.000  C
  H21      1.0000 0.78170  0.90750  0.13170  Biso   1.000  H
  H22      1.0000 0.21830  0.09250  0.86830  Biso   1.000  H
  C31      1.0000 0.82810  0.83184  0.24367  Biso   1.000  C
  C32      1.0000 0.17190  0.16816  0.75633  Biso   1.000  C
  C33      1.0000 0.92970  0.84489  0.32800  Biso   1.000  C
  C34      1.0000 0.07030  0.15511  0.67200  Biso   1.000  C
  H23      1.0000 0.92190  0.79290  0.36670  Biso   1.000  H
  H24      1.0000 0.07810  0.20710  0.63330  Biso   1.000  H
  C35      1.0000 0.04080  0.93504  0.35295  Biso   1.000  C
  C36      1.0000 0.95920  0.06496  0.64705  Biso   1.000  C
  C37      1.0000 0.15680  0.96121  0.43834  Biso   1.000  C
  C38      1.0000 0.84320  0.03879  0.56166  Biso   1.000  C
  C39      1.0000 0.16900  0.89720  0.50697  Biso   1.000  C
  C40      1.0000 0.83100  0.10280  0.49303  Biso   1.000  C
  H25      1.0000 0.10400  0.83230  0.50140  Biso   1.000  H
  H26      1.0000 0.89600  0.16770  0.49860  Biso   1.000  H
  C41      1.0000 0.28150  0.93270  0.58490  Biso   1.000  C
  C42      1.0000 0.71850  0.06730  0.41510  Biso   1.000  C
  H27      1.0000 0.29200  0.89130  0.63230  Biso   1.000  H
  H28      1.0000 0.70800  0.10870  0.36770  Biso   1.000  H
  C43      1.0000 0.37610  0.02800  0.59152  Biso   1.000  C
  C44      1.0000 0.62390  0.97200  0.40848  Biso   1.000  C
  H29      1.0000 0.45160  0.05210  0.64310  Biso   1.000  H
  H30      1.0000 0.54840  0.94790  0.35690  Biso   1.000  H
  C45      1.0000 0.35800  0.08801  0.52058  Biso   1.000  C
  C46      1.0000 0.64200  0.91199  0.47942  Biso   1.000  C
  H31      1.0000 0.42210  0.15310  0.52540  Biso   1.000  H
  H32      1.0000 0.57790  0.84690  0.47460  Biso   1.000  H
  C47      1.0000 0.70650  0.73689  0.21396  Biso   1.000  C
  C48      1.0000 0.29350  0.26311  0.78604  Biso   1.000  C
  C49      1.0000 0.65100  0.71261  0.11902  Biso   1.000  C
  C50      1.0000 0.34900  0.28739  0.88098  Biso   1.000  C
  H33      1.0000 0.69220  0.75650  0.07370  Biso   1.000  H
  H34      1.0000 0.30780  0.24350  0.92630  Biso   1.000  H
  C51      1.0000 0.53640  0.62480  0.09170  Biso   1.000  C
  C52      1.0000 0.46360  0.37520  0.90830  Biso   1.000  C
  H35      1.0000 0.50130  0.60980  0.02820  Biso   1.000  H
  H36      1.0000 0.49870  0.39020  0.97180  Biso   1.000  H
  C53      1.0000 0.47310  0.55880  0.15760  Biso   1.000  C
  C54      1.0000 0.52690  0.44120  0.84240  Biso   1.000  C
  H37      1.0000 0.39580  0.49940  0.13870  Biso   1.000  H
  H38      1.0000 0.60420  0.50060  0.86130  Biso   1.000  H
  C55      1.0000 0.52530  0.58150  0.25170  Biso   1.000  C
  C56      1.0000 0.47470  0.41850  0.74830  Biso   1.000  C
  H39      1.0000 0.48270  0.53720  0.29650  Biso   1.000  H
  H40      1.0000 0.51730  0.46280  0.70350  Biso   1.000  H
  C57      1.0000 0.64040  0.66956  0.27981  Biso   1.000  C
  C58      1.0000 0.35960  0.33044  0.72019  Biso   1.000  C
  H41      1.0000 0.67420  0.68420  0.34360  Biso   1.000  H
  H42      1.0000 0.32580  0.31580  0.65640  Biso   1.000  H
  C59      1.0000 0.18910  0.69582  0.26161  Biso   1.000  C
  C60      1.0000 0.81090  0.30418  0.73839  Biso   1.000  C
  C61      1.0000 0.07120  0.59596  0.23867  Biso   1.000  C
  C62      1.0000 0.92880  0.40404  0.76133  Biso   1.000  C
  C63      1.0000 0.97610  0.57260  0.15410  Biso   1.000  C
  C64      1.0000 0.02390  0.42740  0.84590  Biso   1.000  C
  H43      1.0000 0.99340  0.61700  0.10720  Biso   1.000  H
  H44      1.0000 0.00660  0.38300  0.89280  Biso   1.000  H
  C65      1.0000 0.85620  0.48444  0.13870  Biso   1.000  C
  C66      1.0000 0.14380  0.51556  0.86130  Biso   1.000  C
  H45      1.0000 0.79110  0.47040  0.08200  Biso   1.000  H
  H46      1.0000 0.20890  0.52960  0.91800  Biso   1.000  H
  C67      1.0000 0.83150  0.41617  0.20703  Biso   1.000  C
  C68      1.0000 0.16850  0.58383  0.79297  Biso   1.000  C
  C69      1.0000 0.93350  0.43708  0.29000  Biso   1.000  C
  C70      1.0000 0.06650  0.56292  0.71000  Biso   1.000  C
  H47      1.0000 0.92300  0.39040  0.33480  Biso   1.000  H
  H48      1.0000 0.07700  0.60960  0.66520  Biso   1.000  H
  C71      1.0000 0.05020  0.52693  0.30600  Biso   1.000  C
  C72      1.0000 0.94980  0.47307  0.69400  Biso   1.000  C
  H49      1.0000 0.11550  0.54130  0.36260  Biso   1.000  H
  H50      1.0000 0.88450  0.45870  0.63740  Biso   1.000  H
  C73      1.0000 0.68800  0.32603  0.19068  Biso   1.000  C
  C74      1.0000 0.31200  0.67397  0.80932  Biso   1.000  C
