data_image0
_cell_length_a       16.679
_cell_length_b       9.153
_cell_length_c       12.937
_cell_angle_alpha    90
_cell_angle_beta     90
_cell_angle_gamma    90

_symmetry_space_group_name_H-M    "P 1"
_symmetry_int_tables_number       1

loop_
  _symmetry_equiv_pos_as_xyz
  'x, y, z'

loop_
  _atom_site_label
  _atom_site_occupancy
  _atom_site_fract_x
  _atom_site_fract_y
  _atom_site_fract_z
  _atom_site_thermal_displace_type
  _atom_site_B_iso_or_equiv
  _atom_site_type_symbol
  Cu1      1.0000 0.00000  0.77503  0.63742  Biso   1.000  Cu
  Cu2      1.0000 0.00000  0.22497  0.13742  Biso   1.000  Cu
  Cu3      1.0000 0.50000  0.27503  0.63742  Biso   1.000  Cu
  Cu4      1.0000 0.50000  0.72497  0.13742  Biso   1.000  Cu
  N1       1.0000 0.87643  0.78071  0.65484  Biso   1.000  N
  N2       1.0000 0.12357  0.21929  0.15484  Biso   1.000  N
  N3       1.0000 0.87643  0.21929  0.15484  Biso   1.000  N
  N4       1.0000 0.12357  0.78071  0.65484  Biso   1.000  N
  N5       1.0000 0.37643  0.28071  0.65484  Biso   1.000  N
  N6       1.0000 0.62357  0.71929  0.15484  Biso   1.000  N
  N7       1.0000 0.37643  0.71929  0.15484  Biso   1.000  N
  N8       1.0000 0.62357  0.28071  0.65484  Biso   1.000  N
  C1       1.0000 0.83291  0.69800  0.59302  Biso   1.000  C
  C2       1.0000 0.16709  0.30200  0.09302  Biso   1.000  C
  C3       1.0000 0.83291  0.30200  0.09302  Biso   1.000  C
  C4       1.0000 0.16709  0.69800  0.59302  Biso   1.000  C
  C5       1.0000 0.33291  0.19800  0.59302  Biso   1.000  C
  C6       1.0000 0.66709  0.80200  0.09302  Biso   1.000  C
  C7       1.0000 0.33291  0.80200  0.09302  Biso   1.000  C
  C8       1.0000 0.66709  0.19800  0.59302  Biso   1.000  C
  H1       1.0000 0.85930  0.63660  0.54690  Biso   1.000  H
  H2       1.0000 0.14070  0.36340  0.04690  Biso   1.000  H
  H3       1.0000 0.85930  0.36340  0.04690  Biso   1.000  H
  H4       1.0000 0.14070  0.63660  0.54690  Biso   1.000  H
  H5       1.0000 0.35930  0.13660  0.54690  Biso   1.000  H
  H6       1.0000 0.64070  0.86340  0.04690  Biso   1.000  H
  H7       1.0000 0.35930  0.86340  0.04690  Biso   1.000  H
  H8       1.0000 0.64070  0.13660  0.54690  Biso   1.000  H
  C9       1.0000 0.74873  0.69810  0.59338  Biso   1.000  C
  C10      1.0000 0.25127  0.30190  0.09338  Biso   1.000  C
  C11      1.0000 0.74873  0.30190  0.09338  Biso   1.000  C
  C12      1.0000 0.25127  0.69810  0.59338  Biso   1.000  C
  C13      1.0000 0.24873  0.19810  0.59338  Biso   1.000  C
  C14      1.0000 0.75127  0.80190  0.09338  Biso   1.000  C
  C15      1.0000 0.24873  0.80190  0.09338  Biso   1.000  C
  C16      1.0000 0.75127  0.19810  0.59338  Biso   1.000  C
  H9       1.0000 0.72050  0.63870  0.54770  Biso   1.000  H
  H10      1.0000 0.27950  0.36130  0.04770  Biso   1.000  H
  H11      1.0000 0.72050  0.36130  0.04770  Biso   1.000  H
  H12      1.0000 0.27950  0.63870  0.54770  Biso   1.000  H
  H13      1.0000 0.22050  0.13870  0.54770  Biso   1.000  H
  H14      1.0000 0.77950  0.86130  0.04770  Biso   1.000  H
  H15      1.0000 0.22050  0.86130  0.04770  Biso   1.000  H
  H16      1.0000 0.77950  0.13870  0.54770  Biso   1.000  H
  C17      1.0000 0.70924  0.78430  0.65999  Biso   1.000  C
  C18      1.0000 0.29076  0.21570  0.15999  Biso   1.000  C
  C19      1.0000 0.70924  0.21570  0.15999  Biso   1.000  C
  C20      1.0000 0.29076  0.78430  0.65999  Biso   1.000  C
  C21      1.0000 0.20924  0.28430  0.65999  Biso   1.000  C
  C22      1.0000 0.79076  0.71570  0.15999  Biso   1.000  C
  C23      1.0000 0.20924  0.71570  0.15999  Biso   1.000  C
  C24      1.0000 0.79076  0.28430  0.65999  Biso   1.000  C
  H17      1.0000 0.65350  0.78680  0.65970  Biso   1.000  H
  H18      1.0000 0.34650  0.21320  0.15970  Biso   1.000  H
  H19      1.0000 0.65350  0.21320  0.15970  Biso   1.000  H
  H20      1.0000 0.34650  0.78680  0.65970  Biso   1.000  H
  H21      1.0000 0.15350  0.28680  0.65970  Biso   1.000  H
  H22      1.0000 0.84650  0.71320  0.15970  Biso   1.000  H
  H23      1.0000 0.15350  0.71320  0.15970  Biso   1.000  H
  H24      1.0000 0.84650  0.28680  0.65970  Biso   1.000  H
  C25      1.0000 0.75265  0.87090  0.73028  Biso   1.000  C
  C26      1.0000 0.24735  0.12910  0.23028  Biso   1.000  C
  C27      1.0000 0.75265  0.12910  0.23028  Biso   1.000  C
  C28      1.0000 0.24735  0.87090  0.73028  Biso   1.000  C
  C29      1.0000 0.25265  0.37090  0.73028  Biso   1.000  C
  C30      1.0000 0.74735  0.62910  0.23028  Biso   1.000  C
  C31      1.0000 0.25265  0.62910  0.23028  Biso   1.000  C
  C32      1.0000 0.74735  0.37090  0.73028  Biso   1.000  C
  C33      1.0000 0.71432  0.96300  0.80320  Biso   1.000  C
  C34      1.0000 0.28568  0.03700  0.30320  Biso   1.000  C
  C35      1.0000 0.71432  0.03700  0.30320  Biso   1.000  C
  C36      1.0000 0.28568  0.96300  0.80320  Biso   1.000  C
  C37      1.0000 0.21432  0.46300  0.80320  Biso   1.000  C
  C38      1.0000 0.78568  0.53700  0.30320  Biso   1.000  C
  C39      1.0000 0.21432  0.53700  0.30320  Biso   1.000  C
  C40      1.0000 0.78568  0.46300  0.80320  Biso   1.000  C
  H25      1.0000 0.65860  0.96730  0.80520  Biso   1.000  H
  H26      1.0000 0.34140  0.03270  0.30520  Biso   1.000  H
  H27      1.0000 0.65860  0.03270  0.30520  Biso   1.000  H
  H28      1.0000 0.34140  0.96730  0.80520  Biso   1.000  H
  H29      1.0000 0.15860  0.46730  0.80520  Biso   1.000  H
  H30      1.0000 0.84140  0.53270  0.30520  Biso   1.000  H
  H31      1.0000 0.15860  0.53270  0.30520  Biso   1.000  H
  H32      1.0000 0.84140  0.46730  0.80520  Biso   1.000  H
  C41      1.0000 0.75757  0.04400  0.86960  Biso   1.000  C
  C42      1.0000 0.24243  0.95600  0.36960  Biso   1.000  C
  C43      1.0000 0.75757  0.95600  0.36960  Biso   1.000  C
  C44      1.0000 0.24243  0.04400  0.86960  Biso   1.000  C
  C45      1.0000 0.25757  0.54400  0.86960  Biso   1.000  C
  C46      1.0000 0.74243  0.45600  0.36960  Biso   1.000  C
  C47      1.0000 0.25757  0.45600  0.36960  Biso   1.000  C
  C48      1.0000 0.74243  0.54400  0.86960  Biso   1.000  C
  H33      1.0000 0.73180  0.10350  0.91750  Biso   1.000  H
  H34      1.0000 0.26820  0.89650  0.41750  Biso   1.000  H
  H35      1.0000 0.73180  0.89650  0.41750  Biso   1.000  H
  H36      1.0000 0.26820  0.10350  0.91750  Biso   1.000  H
  H37      1.0000 0.23180  0.60350  0.91750  Biso   1.000  H
  H38      1.0000 0.76820  0.39650  0.41750  Biso   1.000  H
  H39      1.0000 0.23180  0.39650  0.41750  Biso   1.000  H
  H40      1.0000 0.76820  0.60350  0.91750  Biso   1.000  H
  C49      1.0000 0.84193  0.03880  0.86650  Biso   1.000  C
  C50      1.0000 0.15807  0.96120  0.36650  Biso   1.000  C
  C51      1.0000 0.84193  0.96120  0.36650  Biso   1.000  C
  C52      1.0000 0.15807  0.03880  0.86650  Biso   1.000  C
  C53      1.0000 0.34193  0.53880  0.86650  Biso   1.000  C
  C54      1.0000 0.65807  0.46120  0.36650  Biso   1.000  C
  C55      1.0000 0.34193  0.46120  0.36650  Biso   1.000  C
  C56      1.0000 0.65807  0.53880  0.86650  Biso   1.000  C
  H41      1.0000 0.87170  0.09500  0.91250  Biso   1.000  H
  H42      1.0000 0.12830  0.90500  0.41250  Biso   1.000  H
  H43      1.0000 0.87170  0.90500  0.41250  Biso   1.000  H
  H44      1.0000 0.12830  0.09500  0.91250  Biso   1.000  H
  H45      1.0000 0.37170  0.59500  0.91250  Biso   1.000  H
  H46      1.0000 0.62830  0.40500  0.41250  Biso   1.000  H
  H47      1.0000 0.37170  0.40500  0.41250  Biso   1.000  H
  H48      1.0000 0.62830  0.59500  0.91250  Biso   1.000  H
  C57      1.0000 0.88000  0.95300  0.79744  Biso   1.000  C
  C58      1.0000 0.12000  0.04700  0.29744  Biso   1.000  C
  C59      1.0000 0.88000  0.04700  0.29744  Biso   1.000  C
  C60      1.0000 0.12000  0.95300  0.79744  Biso   1.000  C
  C61      1.0000 0.38000  0.45300  0.79744  Biso   1.000  C
  C62      1.0000 0.62000  0.54700  0.29744  Biso   1.000  C
  C63      1.0000 0.38000  0.54700  0.29744  Biso   1.000  C
  C64      1.0000 0.62000  0.45300  0.79744  Biso   1.000  C
  H49      1.0000 0.93570  0.95050  0.79680  Biso   1.000  H
  H50      1.0000 0.06430  0.04950  0.29680  Biso   1.000  H
  H51      1.0000 0.93570  0.04950  0.29680  Biso   1.000  H
  H52      1.0000 0.06430  0.95050  0.79680  Biso   1.000  H
  H53      1.0000 0.43570  0.45050  0.79680  Biso   1.000  H
  H54      1.0000 0.56430  0.54950  0.29680  Biso   1.000  H
  H55      1.0000 0.43570  0.54950  0.29680  Biso   1.000  H
  H56      1.0000 0.56430  0.45050  0.79680  Biso   1.000  H
  C65      1.0000 0.83705  0.86740  0.72650  Biso   1.000  C
  C66      1.0000 0.16295  0.13260  0.22650  Biso   1.000  C
  C67      1.0000 0.83705  0.13260  0.22650  Biso   1.000  C
  C68      1.0000 0.16295  0.86740  0.72650  Biso   1.000  C
  C69      1.0000 0.33705  0.36740  0.72650  Biso   1.000  C
  C70      1.0000 0.66295  0.63260  0.22650  Biso   1.000  C
  C71      1.0000 0.33705  0.63260  0.22650  Biso   1.000  C
  C72      1.0000 0.66295  0.36740  0.72650  Biso   1.000  C
  N9       1.0000 0.00000  0.57860  0.69910  Biso   1.000  N
  N10      1.0000 0.00000  0.42140  0.19910  Biso   1.000  N
  N11      1.0000 0.50000  0.07860  0.69910  Biso   1.000  N
  N12      1.0000 0.50000  0.92140  0.19910  Biso   1.000  N
  N13      1.0000 0.00000  0.34550  0.78550  Biso   1.000  N
  N14      1.0000 0.00000  0.65450  0.28550  Biso   1.000  N
  N15      1.0000 0.50000  0.84550  0.78550  Biso   1.000  N
  N16      1.0000 0.50000  0.15450  0.28550  Biso   1.000  N
  N17      1.0000 0.00000  0.70910  0.47240  Biso   1.000  N
  N18      1.0000 0.00000  0.29090  0.97240  Biso   1.000  N
  N19      1.0000 0.50000  0.20910  0.47240  Biso   1.000  N
  N20      1.0000 0.50000  0.79090  0.97240  Biso   1.000  N
  C73      1.0000 0.00000  0.47500  0.74450  Biso   1.000  C
  C74      1.0000 0.00000  0.52500  0.24450  Biso   1.000  C
  C75      1.0000 0.50000  0.97500  0.74450  Biso   1.000  C
  C76      1.0000 0.50000  0.02500  0.24450  Biso   1.000  C
  C77      1.0000 0.00000  0.67480  0.38670  Biso   1.000  C
  C78      1.0000 0.00000  0.32520  0.88670  Biso   1.000  C
  C79      1.0000 0.50000  0.17480  0.38670  Biso   1.000  C
  C80      1.0000 0.50000  0.82520  0.88670  Biso   1.000  C
  N21      1.0000 0.00000  0.98081  0.60286  Biso   1.000  N
  N22      1.0000 0.00000  0.01919  0.10286  Biso   1.000  N
  N23      1.0000 0.50000  0.48081  0.60286  Biso   1.000  N
  N24      1.0000 0.50000  0.51919  0.10286  Biso   1.000  N
  N25      1.0000 0.97142  0.22459  0.52639  Biso   1.000  N
  N26      1.0000 0.02858  0.77541  0.02639  Biso   1.000  N
  N27      1.0000 0.97142  0.77541  0.02639  Biso   1.000  N
  N28      1.0000 0.02858  0.22459  0.52639  Biso   1.000  N
  N29      1.0000 0.47142  0.72459  0.52639  Biso   1.000  N
  N30      1.0000 0.52858  0.27541  0.02639  Biso   1.000  N
  N31      1.0000 0.47142  0.27541  0.02639  Biso   1.000  N
  N32      1.0000 0.52858  0.72459  0.52639  Biso   1.000  N
  N33      1.0000 0.08073  0.38775  0.45125  Biso   1.000  N
  N34      1.0000 0.91927  0.61225  0.95125  Biso   1.000  N
  N35      1.0000 0.08073  0.61225  0.95125  Biso   1.000  N
  N36      1.0000 0.91927  0.38775  0.45125  Biso   1.000  N
  N37      1.0000 0.58073  0.88775  0.45125  Biso   1.000  N
  N38      1.0000 0.41927  0.11225  0.95125  Biso   1.000  N
  N39      1.0000 0.58073  0.11225  0.95125  Biso   1.000  N
  N40      1.0000 0.41927  0.88775  0.45125  Biso   1.000  N
  C81      1.0000 0.00000  0.09770  0.56360  Biso   1.000  C
  C82      1.0000 0.00000  0.90230  0.06360  Biso   1.000  C
  C83      1.0000 0.50000  0.59770  0.56360  Biso   1.000  C
  C84      1.0000 0.50000  0.40230  0.06360  Biso   1.000  C
  C85      1.0000 0.03113  0.30470  0.48440  Biso   1.000  C
  C86      1.0000 0.96887  0.69530  0.98440  Biso   1.000  C
  C87      1.0000 0.03113  0.69530  0.98440  Biso   1.000  C
  C88      1.0000 0.96887  0.30470  0.48440  Biso   1.000  C
  C89      1.0000 0.53113  0.80470  0.48440  Biso   1.000  C
  C90      1.0000 0.46887  0.19530  0.98440  Biso   1.000  C
  C91      1.0000 0.53113  0.19530  0.98440  Biso   1.000  C
  C92      1.0000 0.46887  0.80470  0.48440  Biso   1.000  C
