data_image0
_cell_length_a       19.717
_cell_length_b       9.799
_cell_length_c       13.57
_cell_angle_alpha    90
_cell_angle_beta     90
_cell_angle_gamma    90

_symmetry_space_group_name_H-M    "P 1"
_symmetry_int_tables_number       1

loop_
  _symmetry_equiv_pos_as_xyz
  'x, y, z'

loop_
  _atom_site_label
  _atom_site_occupancy
  _atom_site_fract_x
  _atom_site_fract_y
  _atom_site_fract_z
  _atom_site_thermal_displace_type
  _atom_site_B_iso_or_equiv
  _atom_site_type_symbol
  Cu1      1.0000 0.94854  0.85873  0.99999  Biso   1.000  Cu
  Cu2      1.0000 0.05146  0.14127  0.49999  Biso   1.000  Cu
  Cu3      1.0000 0.44854  0.14127  0.99999  Biso   1.000  Cu
  Cu4      1.0000 0.55146  0.85873  0.49999  Biso   1.000  Cu
  Cu5      1.0000 0.84866  0.35682  0.80203  Biso   1.000  Cu
  Cu6      1.0000 0.15134  0.64318  0.30203  Biso   1.000  Cu
  Cu7      1.0000 0.34866  0.64318  0.80203  Biso   1.000  Cu
  Cu8      1.0000 0.65134  0.35682  0.30203  Biso   1.000  Cu
  S1       1.0000 0.83783  0.28750  0.99609  Biso   1.000  S
  S2       1.0000 0.16217  0.71250  0.49609  Biso   1.000  S
  S3       1.0000 0.33783  0.71250  0.99609  Biso   1.000  S
  S4       1.0000 0.66217  0.28750  0.49609  Biso   1.000  S
  N1       1.0000 0.91140  0.04330  0.99000  Biso   1.000  N
  N2       1.0000 0.08860  0.95670  0.49000  Biso   1.000  N
  N3       1.0000 0.41140  0.95670  0.99000  Biso   1.000  N
  N4       1.0000 0.58860  0.04330  0.49000  Biso   1.000  N
  C1       1.0000 0.88050  0.14340  0.99160  Biso   1.000  C
  C2       1.0000 0.11950  0.85660  0.49160  Biso   1.000  C
  C3       1.0000 0.38050  0.85660  0.99160  Biso   1.000  C
  C4       1.0000 0.61950  0.14340  0.49160  Biso   1.000  C
  S5       1.0000 0.74628  0.63090  0.06130  Biso   1.000  S
  S6       1.0000 0.25372  0.36910  0.56130  Biso   1.000  S
  S7       1.0000 0.24628  0.36910  0.06130  Biso   1.000  S
  S8       1.0000 0.75372  0.63090  0.56130  Biso   1.000  S
  N5       1.0000 0.85890  0.77980  0.00670  Biso   1.000  N
  N6       1.0000 0.14110  0.22020  0.50670  Biso   1.000  N
  N7       1.0000 0.35890  0.22020  0.00670  Biso   1.000  N
  N8       1.0000 0.64110  0.77980  0.50670  Biso   1.000  N
  C5       1.0000 0.81170  0.71850  0.03070  Biso   1.000  C
  C6       1.0000 0.18830  0.28150  0.53070  Biso   1.000  C
  C7       1.0000 0.31170  0.28150  0.03070  Biso   1.000  C
  C8       1.0000 0.68830  0.71850  0.53070  Biso   1.000  C
  S9       1.0000 0.95302  0.88250  0.22310  Biso   1.000  S
  S10      1.0000 0.04698  0.11750  0.72310  Biso   1.000  S
  S11      1.0000 0.45302  0.11750  0.22310  Biso   1.000  S
  S12      1.0000 0.54698  0.88250  0.72310  Biso   1.000  S
  N9       1.0000 0.06280  0.72320  0.27770  Biso   1.000  N
  N10      1.0000 0.93720  0.27680  0.77770  Biso   1.000  N
  N11      1.0000 0.56280  0.27680  0.27770  Biso   1.000  N
  N12      1.0000 0.43720  0.72320  0.77770  Biso   1.000  N
  C9       1.0000 0.01620  0.78850  0.25540  Biso   1.000  C
  C10      1.0000 0.98380  0.21150  0.75540  Biso   1.000  C
  C11      1.0000 0.51620  0.21150  0.25540  Biso   1.000  C
  C12      1.0000 0.48380  0.78850  0.75540  Biso   1.000  C
  S13      1.0000 0.95985  0.78170  0.78510  Biso   1.000  S
  S14      1.0000 0.04015  0.21830  0.28510  Biso   1.000  S
  S15      1.0000 0.45985  0.21830  0.78510  Biso   1.000  S
  S16      1.0000 0.54015  0.78170  0.28510  Biso   1.000  S
  N13      1.0000 0.88700  0.54060  0.81050  Biso   1.000  N
  N14      1.0000 0.11300  0.45940  0.31050  Biso   1.000  N
  N15      1.0000 0.38700  0.45940  0.81050  Biso   1.000  N
  N16      1.0000 0.61300  0.54060  0.31050  Biso   1.000  N
  C13      1.0000 0.91940  0.64120  0.79840  Biso   1.000  C
  C14      1.0000 0.08060  0.35880  0.29840  Biso   1.000  C
  C15      1.0000 0.41940  0.35880  0.79840  Biso   1.000  C
  C16      1.0000 0.58060  0.64120  0.29840  Biso   1.000  C
  N17      1.0000 0.04490  0.92270  0.99380  Biso   1.000  N
  N18      1.0000 0.95510  0.07730  0.49380  Biso   1.000  N
  N19      1.0000 0.54490  0.07730  0.99380  Biso   1.000  N
  N20      1.0000 0.45510  0.92270  0.49380  Biso   1.000  N
  C17      1.0000 0.09170  0.82260  0.00450  Biso   1.000  C
  C18      1.0000 0.90830  0.17740  0.50450  Biso   1.000  C
  C19      1.0000 0.59170  0.17740  0.00450  Biso   1.000  C
  C20      1.0000 0.40830  0.82260  0.50450  Biso   1.000  C
  C21      1.0000 0.15900  0.85130  0.00120  Biso   1.000  C
  C22      1.0000 0.84100  0.14870  0.50120  Biso   1.000  C
  C23      1.0000 0.65900  0.14870  0.00120  Biso   1.000  C
  C24      1.0000 0.34100  0.85130  0.50120  Biso   1.000  C
  H1       1.0000 0.19020  0.78090  0.00860  Biso   1.000  H
  H2       1.0000 0.80980  0.21910  0.50860  Biso   1.000  H
  H3       1.0000 0.69020  0.21910  0.00860  Biso   1.000  H
  H4       1.0000 0.30980  0.78090  0.50860  Biso   1.000  H
  C25      1.0000 0.18230  0.98390  0.98690  Biso   1.000  C
  C26      1.0000 0.81770  0.01610  0.48690  Biso   1.000  C
  C27      1.0000 0.68230  0.01610  0.98690  Biso   1.000  C
  C28      1.0000 0.31770  0.98390  0.48690  Biso   1.000  C
  H5       1.0000 0.22840  0.00360  0.98410  Biso   1.000  H
  H6       1.0000 0.77160  0.99640  0.48410  Biso   1.000  H
  H7       1.0000 0.72840  0.99640  0.98410  Biso   1.000  H
  H8       1.0000 0.27160  0.00360  0.48410  Biso   1.000  H
  C29      1.0000 0.13410  0.08440  0.97700  Biso   1.000  C
  C30      1.0000 0.86590  0.91560  0.47700  Biso   1.000  C
  C31      1.0000 0.63410  0.91560  0.97700  Biso   1.000  C
  C32      1.0000 0.36590  0.08440  0.47700  Biso   1.000  C
  H9       1.0000 0.14670  0.17470  0.96690  Biso   1.000  H
  H10      1.0000 0.85330  0.82530  0.46690  Biso   1.000  H
  H11      1.0000 0.64670  0.82530  0.96690  Biso   1.000  H
  H12      1.0000 0.35330  0.17470  0.46690  Biso   1.000  H
  C33      1.0000 0.06660  0.04840  0.98240  Biso   1.000  C
  C34      1.0000 0.93340  0.95160  0.48240  Biso   1.000  C
  C35      1.0000 0.56660  0.95160  0.98240  Biso   1.000  C
  C36      1.0000 0.43340  0.04840  0.48240  Biso   1.000  C
  H13      1.0000 0.03440  0.11740  0.97770  Biso   1.000  H
  H14      1.0000 0.96560  0.88260  0.47770  Biso   1.000  H
  H15      1.0000 0.53440  0.88260  0.97770  Biso   1.000  H
  H16      1.0000 0.46560  0.11740  0.47770  Biso   1.000  H
  N21      1.0000 0.99520  0.67860  0.02040  Biso   1.000  N
  N22      1.0000 0.00480  0.32140  0.52040  Biso   1.000  N
  N23      1.0000 0.49520  0.32140  0.02040  Biso   1.000  N
  N24      1.0000 0.50480  0.67860  0.52040  Biso   1.000  N
  C37      1.0000 0.06350  0.68560  0.02130  Biso   1.000  C
  C38      1.0000 0.93650  0.31440  0.52130  Biso   1.000  C
  C39      1.0000 0.56350  0.31440  0.02130  Biso   1.000  C
  C40      1.0000 0.43650  0.68560  0.52130  Biso   1.000  C
  C41      1.0000 0.10380  0.57290  0.03810  Biso   1.000  C
  C42      1.0000 0.89620  0.42710  0.53810  Biso   1.000  C
  C43      1.0000 0.60380  0.42710  0.03810  Biso   1.000  C
  C44      1.0000 0.39620  0.57290  0.53810  Biso   1.000  C
  H17      1.0000 0.15080  0.57930  0.03620  Biso   1.000  H
  H18      1.0000 0.84920  0.42070  0.53620  Biso   1.000  H
  H19      1.0000 0.65080  0.42070  0.03620  Biso   1.000  H
  H20      1.0000 0.34920  0.57930  0.53620  Biso   1.000  H
  C45      1.0000 0.07140  0.44770  0.05840  Biso   1.000  C
  C46      1.0000 0.92860  0.55230  0.55840  Biso   1.000  C
  C47      1.0000 0.57140  0.55230  0.05840  Biso   1.000  C
  C48      1.0000 0.42860  0.44770  0.55840  Biso   1.000  C
  H21      1.0000 0.09690  0.37030  0.07260  Biso   1.000  H
  H22      1.0000 0.90310  0.62970  0.57260  Biso   1.000  H
  H23      1.0000 0.59690  0.62970  0.07260  Biso   1.000  H
  H24      1.0000 0.40310  0.37030  0.57260  Biso   1.000  H
  C49      1.0000 0.00430  0.44130  0.05710  Biso   1.000  C
  C50      1.0000 0.99570  0.55870  0.55710  Biso   1.000  C
  C51      1.0000 0.50430  0.55870  0.05710  Biso   1.000  C
  C52      1.0000 0.49570  0.44130  0.55710  Biso   1.000  C
  H25      1.0000 0.98290  0.35830  0.06910  Biso   1.000  H
  H26      1.0000 0.01710  0.64170  0.56910  Biso   1.000  H
  H27      1.0000 0.48290  0.64170  0.06910  Biso   1.000  H
  H28      1.0000 0.51710  0.35830  0.56910  Biso   1.000  H
  C53      1.0000 0.96540  0.55630  0.03800  Biso   1.000  C
  C54      1.0000 0.03460  0.44370  0.53800  Biso   1.000  C
  C55      1.0000 0.46540  0.44370  0.03800  Biso   1.000  C
  C56      1.0000 0.53460  0.55630  0.53800  Biso   1.000  C
  H29      1.0000 0.91830  0.54940  0.03730  Biso   1.000  H
  H30      1.0000 0.08170  0.45060  0.53730  Biso   1.000  H
  H31      1.0000 0.41830  0.45060  0.03730  Biso   1.000  H
  H32      1.0000 0.58170  0.54940  0.53730  Biso   1.000  H
  N25      1.0000 0.80070  0.18310  0.76580  Biso   1.000  N
  N26      1.0000 0.19930  0.81690  0.26580  Biso   1.000  N
  N27      1.0000 0.30070  0.81690  0.76580  Biso   1.000  N
  N28      1.0000 0.69930  0.18310  0.26580  Biso   1.000  N
  C57      1.0000 0.73260  0.19390  0.75400  Biso   1.000  C
  C58      1.0000 0.26740  0.80610  0.25400  Biso   1.000  C
  C59      1.0000 0.23260  0.80610  0.75400  Biso   1.000  C
  C60      1.0000 0.76740  0.19390  0.25400  Biso   1.000  C
  C61      1.0000 0.69440  0.08050  0.72700  Biso   1.000  C
  C62      1.0000 0.30560  0.91950  0.22700  Biso   1.000  C
  C63      1.0000 0.19440  0.91950  0.72700  Biso   1.000  C
  C64      1.0000 0.80560  0.08050  0.22700  Biso   1.000  C
  H33      1.0000 0.64840  0.09030  0.71370  Biso   1.000  H
  H34      1.0000 0.35160  0.90970  0.21370  Biso   1.000  H
  H35      1.0000 0.14840  0.90970  0.71370  Biso   1.000  H
  H36      1.0000 0.85160  0.09030  0.21370  Biso   1.000  H
  C65      1.0000 0.72350  0.95690  0.72020  Biso   1.000  C
  C66      1.0000 0.27650  0.04310  0.22020  Biso   1.000  C
  C67      1.0000 0.22350  0.04310  0.72020  Biso   1.000  C
  C68      1.0000 0.77650  0.95690  0.22020  Biso   1.000  C
  H37      1.0000 0.69730  0.88040  0.70610  Biso   1.000  H
  H38      1.0000 0.30270  0.11960  0.20610  Biso   1.000  H
  H39      1.0000 0.19730  0.11960  0.70610  Biso   1.000  H
  H40      1.0000 0.80270  0.88040  0.20610  Biso   1.000  H
  C69      1.0000 0.79200  0.94420  0.73410  Biso   1.000  C
  C70      1.0000 0.20800  0.05580  0.23410  Biso   1.000  C
  C71      1.0000 0.29200  0.05580  0.73410  Biso   1.000  C
  C72      1.0000 0.70800  0.94420  0.23410  Biso   1.000  C
  H41      1.0000 0.81280  0.85960  0.72750  Biso   1.000  H
  H42      1.0000 0.18720  0.14040  0.22750  Biso   1.000  H
  H43      1.0000 0.31280  0.14040  0.72750  Biso   1.000  H
  H44      1.0000 0.68720  0.85960  0.22750  Biso   1.000  H
  C73      1.0000 0.83030  0.05950  0.75840  Biso   1.000  C
  C74      1.0000 0.16970  0.94050  0.25840  Biso   1.000  C
  C75      1.0000 0.33030  0.94050  0.75840  Biso   1.000  C
  C76      1.0000 0.66970  0.05950  0.25840  Biso   1.000  C
  H45      1.0000 0.87660  0.05090  0.76950  Biso   1.000  H
  H46      1.0000 0.12340  0.94910  0.26950  Biso   1.000  H
  H47      1.0000 0.37660  0.94910  0.76950  Biso   1.000  H
  H48      1.0000 0.62340  0.05090  0.26950  Biso   1.000  H
  N29      1.0000 0.75330  0.42630  0.79390  Biso   1.000  N
  N30      1.0000 0.24670  0.57370  0.29390  Biso   1.000  N
  N31      1.0000 0.25330  0.57370  0.79390  Biso   1.000  N
  N32      1.0000 0.74670  0.42630  0.29390  Biso   1.000  N
  C77      1.0000 0.70500  0.33240  0.76840  Biso   1.000  C
  C78      1.0000 0.29500  0.66760  0.26840  Biso   1.000  C
  C79      1.0000 0.20500  0.66760  0.76840  Biso   1.000  C
  C80      1.0000 0.79500  0.33240  0.26840  Biso   1.000  C
  C81      1.0000 0.63710  0.36700  0.76310  Biso   1.000  C
  C82      1.0000 0.36290  0.63300  0.26310  Biso   1.000  C
  C83      1.0000 0.13710  0.63300  0.76310  Biso   1.000  C
  C84      1.0000 0.86290  0.36700  0.26310  Biso   1.000  C
  H49      1.0000 0.60500  0.30090  0.74750  Biso   1.000  H
  H50      1.0000 0.39500  0.69910  0.24750  Biso   1.000  H
  H51      1.0000 0.10500  0.69910  0.74750  Biso   1.000  H
  H52      1.0000 0.89500  0.30090  0.24750  Biso   1.000  H
  C85      1.0000 0.61750  0.49610  0.78050  Biso   1.000  C
  C86      1.0000 0.38250  0.50390  0.28050  Biso   1.000  C
  C87      1.0000 0.11750  0.50390  0.78050  Biso   1.000  C
  C88      1.0000 0.88250  0.49610  0.28050  Biso   1.000  C
  H53      1.0000 0.57190  0.51980  0.77750  Biso   1.000  H
  H54      1.0000 0.42810  0.48020  0.27750  Biso   1.000  H
  H55      1.0000 0.07190  0.48020  0.77750  Biso   1.000  H
  H56      1.0000 0.92810  0.51980  0.27750  Biso   1.000  H
  C89      1.0000 0.66670  0.59460  0.80310  Biso   1.000  C
  C90      1.0000 0.33330  0.40540  0.30310  Biso   1.000  C
  C91      1.0000 0.16670  0.40540  0.80310  Biso   1.000  C
  C92      1.0000 0.83330  0.59460  0.30310  Biso   1.000  C
  H57      1.0000 0.65430  0.68520  0.81300  Biso   1.000  H
  H58      1.0000 0.34570  0.31480  0.31300  Biso   1.000  H
  H59      1.0000 0.15430  0.31480  0.81300  Biso   1.000  H
  H60      1.0000 0.84570  0.68520  0.31300  Biso   1.000  H
  C93      1.0000 0.73400  0.55530  0.81070  Biso   1.000  C
  C94      1.0000 0.26600  0.44470  0.31070  Biso   1.000  C
  C95      1.0000 0.23400  0.44470  0.81070  Biso   1.000  C
  C96      1.0000 0.76600  0.55530  0.31070  Biso   1.000  C
  H61      1.0000 0.76650  0.61990  0.82790  Biso   1.000  H
  H62      1.0000 0.23350  0.38010  0.32790  Biso   1.000  H
  H63      1.0000 0.26650  0.38010  0.82790  Biso   1.000  H
  H64      1.0000 0.73350  0.61990  0.32790  Biso   1.000  H
