data_image0
_cell_length_a       8.954
_cell_length_b       11.64
_cell_length_c       9.676
_cell_angle_alpha    90
_cell_angle_beta     90
_cell_angle_gamma    90

_symmetry_space_group_name_H-M    "P 1"
_symmetry_int_tables_number       1

loop_
  _symmetry_equiv_pos_as_xyz
  'x, y, z'

loop_
  _atom_site_label
  _atom_site_occupancy
  _atom_site_fract_x
  _atom_site_fract_y
  _atom_site_fract_z
  _atom_site_thermal_displace_type
  _atom_site_B_iso_or_equiv
  _atom_site_type_symbol
  Cu1      1.0000 0.18780  0.19540  0.25000  Biso   1.000  Cu
  Cu2      1.0000 0.81220  0.80460  0.75000  Biso   1.000  Cu
  Cu3      1.0000 0.68780  0.30460  0.25000  Biso   1.000  Cu
  Cu4      1.0000 0.31220  0.69540  0.75000  Biso   1.000  Cu
  C1       1.0000 0.35140  0.02160  0.12080  Biso   1.000  C
  C2       1.0000 0.64860  0.97840  0.62080  Biso   1.000  C
  C3       1.0000 0.85140  0.47840  0.37920  Biso   1.000  C
  C4       1.0000 0.14860  0.52160  0.87920  Biso   1.000  C
  C5       1.0000 0.64860  0.97840  0.87920  Biso   1.000  C
  C6       1.0000 0.35140  0.02160  0.37920  Biso   1.000  C
  C7       1.0000 0.14860  0.52160  0.62080  Biso   1.000  C
  C8       1.0000 0.85140  0.47840  0.12080  Biso   1.000  C
  C9       1.0000 0.25330  0.06720  0.00740  Biso   1.000  C
  C10      1.0000 0.74670  0.93280  0.50740  Biso   1.000  C
  C11      1.0000 0.75330  0.43280  0.49260  Biso   1.000  C
  C12      1.0000 0.24670  0.56720  0.99260  Biso   1.000  C
  C13      1.0000 0.74670  0.93280  0.99260  Biso   1.000  C
  C14      1.0000 0.25330  0.06720  0.49260  Biso   1.000  C
  C15      1.0000 0.24670  0.56720  0.50740  Biso   1.000  C
  C16      1.0000 0.75330  0.43280  0.00740  Biso   1.000  C
  C17      1.0000 0.35570  0.38220  0.25000  Biso   1.000  C
  C18      1.0000 0.64430  0.61780  0.75000  Biso   1.000  C
  C19      1.0000 0.85570  0.11780  0.25000  Biso   1.000  C
  C20      1.0000 0.14430  0.88220  0.75000  Biso   1.000  C
  H1       1.0000 0.27800  0.23900  0.01100  Biso   1.000  H
  H2       1.0000 0.72200  0.76100  0.51100  Biso   1.000  H
  H3       1.0000 0.77800  0.26100  0.48900  Biso   1.000  H
  H4       1.0000 0.22200  0.73900  0.98900  Biso   1.000  H
  H5       1.0000 0.72200  0.76100  0.98900  Biso   1.000  H
  H6       1.0000 0.27800  0.23900  0.48900  Biso   1.000  H
  H7       1.0000 0.22200  0.73900  0.51100  Biso   1.000  H
  H8       1.0000 0.77800  0.26100  0.01100  Biso   1.000  H
  H9       1.0000 0.11100  0.20100  0.00200  Biso   1.000  H
  H10      1.0000 0.88900  0.79900  0.50200  Biso   1.000  H
  H11      1.0000 0.61100  0.29900  0.49800  Biso   1.000  H
  H12      1.0000 0.38900  0.70100  0.99800  Biso   1.000  H
  H13      1.0000 0.88900  0.79900  0.99800  Biso   1.000  H
  H14      1.0000 0.11100  0.20100  0.49800  Biso   1.000  H
  H15      1.0000 0.38900  0.70100  0.50200  Biso   1.000  H
  H16      1.0000 0.61100  0.29900  0.00200  Biso   1.000  H
  H17      1.0000 0.18600  0.97800  0.25000  Biso   1.000  H
  H18      1.0000 0.81400  0.02200  0.75000  Biso   1.000  H
  H19      1.0000 0.68600  0.52200  0.25000  Biso   1.000  H
  H20      1.0000 0.31400  0.47800  0.75000  Biso   1.000  H
  H21      1.0000 0.44500  0.06800  0.12500  Biso   1.000  H
  H22      1.0000 0.55500  0.93200  0.62500  Biso   1.000  H
  H23      1.0000 0.94500  0.43200  0.37500  Biso   1.000  H
  H24      1.0000 0.05500  0.56800  0.87500  Biso   1.000  H
  H25      1.0000 0.55500  0.93200  0.87500  Biso   1.000  H
  H26      1.0000 0.44500  0.06800  0.37500  Biso   1.000  H
  H27      1.0000 0.05500  0.56800  0.62500  Biso   1.000  H
  H28      1.0000 0.94500  0.43200  0.12500  Biso   1.000  H
  H29      1.0000 0.37400  0.93700  0.10100  Biso   1.000  H
  H30      1.0000 0.62600  0.06300  0.60100  Biso   1.000  H
  H31      1.0000 0.87400  0.56300  0.39900  Biso   1.000  H
  H32      1.0000 0.12600  0.43700  0.89900  Biso   1.000  H
  H33      1.0000 0.62600  0.06300  0.89900  Biso   1.000  H
  H34      1.0000 0.37400  0.93700  0.39900  Biso   1.000  H
  H35      1.0000 0.12600  0.43700  0.60100  Biso   1.000  H
  H36      1.0000 0.87400  0.56300  0.10100  Biso   1.000  H
  H37      1.0000 0.31000  0.06800  0.91700  Biso   1.000  H
  H38      1.0000 0.69000  0.93200  0.41700  Biso   1.000  H
  H39      1.0000 0.81000  0.43200  0.58300  Biso   1.000  H
  H40      1.0000 0.19000  0.56800  0.08300  Biso   1.000  H
  H41      1.0000 0.69000  0.93200  0.08300  Biso   1.000  H
  H42      1.0000 0.31000  0.06800  0.58300  Biso   1.000  H
  H43      1.0000 0.19000  0.56800  0.41700  Biso   1.000  H
  H44      1.0000 0.81000  0.43200  0.91700  Biso   1.000  H
  H45      1.0000 0.16300  0.01600  0.99600  Biso   1.000  H
  H46      1.0000 0.83700  0.98400  0.49600  Biso   1.000  H
  H47      1.0000 0.66300  0.48400  0.50400  Biso   1.000  H
  H48      1.0000 0.33700  0.51600  0.00400  Biso   1.000  H
  H49      1.0000 0.83700  0.98400  0.00400  Biso   1.000  H
  H50      1.0000 0.16300  0.01600  0.50400  Biso   1.000  H
  H51      1.0000 0.33700  0.51600  0.49600  Biso   1.000  H
  H52      1.0000 0.66300  0.48400  0.99600  Biso   1.000  H
  H53      1.0000 0.40000  0.46300  0.25000  Biso   1.000  H
  H54      1.0000 0.60000  0.53700  0.75000  Biso   1.000  H
  H55      1.0000 0.90000  0.03700  0.25000  Biso   1.000  H
  H56      1.0000 0.10000  0.96300  0.75000  Biso   1.000  H
  N1       1.0000 0.20530  0.18510  0.04340  Biso   1.000  N
  N2       1.0000 0.79470  0.81490  0.54340  Biso   1.000  N
  N3       1.0000 0.70530  0.31490  0.45660  Biso   1.000  N
  N4       1.0000 0.29470  0.68510  0.95660  Biso   1.000  N
  N5       1.0000 0.79470  0.81490  0.95660  Biso   1.000  N
  N6       1.0000 0.20530  0.18510  0.45660  Biso   1.000  N
  N7       1.0000 0.29470  0.68510  0.54340  Biso   1.000  N
  N8       1.0000 0.70530  0.31490  0.04340  Biso   1.000  N
  N9       1.0000 0.26650  0.03240  0.25000  Biso   1.000  N
  N10      1.0000 0.73350  0.96760  0.75000  Biso   1.000  N
  N11      1.0000 0.76650  0.46760  0.25000  Biso   1.000  N
  N12      1.0000 0.23350  0.53240  0.75000  Biso   1.000  N
  O1       1.0000 0.21560  0.36890  0.25000  Biso   1.000  O
  O2       1.0000 0.78440  0.63110  0.75000  Biso   1.000  O
  O3       1.0000 0.71560  0.13110  0.25000  Biso   1.000  O
  O4       1.0000 0.28440  0.86890  0.75000  Biso   1.000  O
  O5       1.0000 0.94570  0.20010  0.25000  Biso   1.000  O
  O6       1.0000 0.05430  0.79990  0.75000  Biso   1.000  O
  O7       1.0000 0.44570  0.29990  0.25000  Biso   1.000  O
  O8       1.0000 0.55430  0.70010  0.75000  Biso   1.000  O
  C21      1.0000 0.03120  0.78790  0.25000  Biso   1.000  C
  C22      1.0000 0.96880  0.21210  0.75000  Biso   1.000  C
  C23      1.0000 0.53120  0.71210  0.25000  Biso   1.000  C
  C24      1.0000 0.46880  0.28790  0.75000  Biso   1.000  C
  H57      1.0000 0.94900  0.72600  0.25000  Biso   1.000  H
  H58      1.0000 0.05100  0.27400  0.75000  Biso   1.000  H
  H59      1.0000 0.44900  0.77400  0.25000  Biso   1.000  H
  H60      1.0000 0.55100  0.22600  0.75000  Biso   1.000  H
  O9       1.0000 0.07190  0.82080  0.13600  Biso   1.000  O
  O10      1.0000 0.92810  0.17920  0.63600  Biso   1.000  O
  O11      1.0000 0.57190  0.67920  0.36400  Biso   1.000  O
  O12      1.0000 0.42810  0.32080  0.86400  Biso   1.000  O
  O13      1.0000 0.92810  0.17920  0.86400  Biso   1.000  O
  O14      1.0000 0.07190  0.82080  0.36400  Biso   1.000  O
  O15      1.0000 0.42810  0.32080  0.63600  Biso   1.000  O
  O16      1.0000 0.57190  0.67920  0.13600  Biso   1.000  O
