data_image0
_cell_length_a       23.644
_cell_length_b       11.6083
_cell_length_c       18.18
_cell_angle_alpha    90
_cell_angle_beta     119.007
_cell_angle_gamma    90

_symmetry_space_group_name_H-M    "P 1"
_symmetry_int_tables_number       1

loop_
  _symmetry_equiv_pos_as_xyz
  'x, y, z'

loop_
  _atom_site_label
  _atom_site_occupancy
  _atom_site_fract_x
  _atom_site_fract_y
  _atom_site_fract_z
  _atom_site_thermal_displace_type
  _atom_site_B_iso_or_equiv
  _atom_site_type_symbol
  Cu1      1.0000 0.19309  0.68359  0.25217  Biso   1.000  Cu
  Cu2      1.0000 0.80691  0.68359  0.24783  Biso   1.000  Cu
  Cu3      1.0000 0.69309  0.18359  0.25217  Biso   1.000  Cu
  Cu4      1.0000 0.30691  0.18359  0.24783  Biso   1.000  Cu
  Cu5      1.0000 0.80691  0.31641  0.74783  Biso   1.000  Cu
  Cu6      1.0000 0.19309  0.31641  0.75217  Biso   1.000  Cu
  Cu7      1.0000 0.30691  0.81641  0.74783  Biso   1.000  Cu
  Cu8      1.0000 0.69309  0.81641  0.75217  Biso   1.000  Cu
  Cu9      1.0000 0.31428  0.62869  0.22579  Biso   1.000  Cu
  Cu10     1.0000 0.68572  0.62869  0.27421  Biso   1.000  Cu
  Cu11     1.0000 0.81428  0.12869  0.22579  Biso   1.000  Cu
  Cu12     1.0000 0.18572  0.12869  0.27421  Biso   1.000  Cu
  Cu13     1.0000 0.68572  0.37131  0.77421  Biso   1.000  Cu
  Cu14     1.0000 0.31428  0.37131  0.72579  Biso   1.000  Cu
  Cu15     1.0000 0.18572  0.87131  0.77421  Biso   1.000  Cu
  Cu16     1.0000 0.81428  0.87131  0.72579  Biso   1.000  Cu
  O1       1.0000 0.23503  0.83611  0.63557  Biso   1.000  O
  O2       1.0000 0.76497  0.83611  0.86443  Biso   1.000  O
  O3       1.0000 0.73503  0.33611  0.63557  Biso   1.000  O
  O4       1.0000 0.26497  0.33611  0.86443  Biso   1.000  O
  O5       1.0000 0.76497  0.16389  0.36443  Biso   1.000  O
  O6       1.0000 0.23503  0.16389  0.13557  Biso   1.000  O
  O7       1.0000 0.26497  0.66389  0.36443  Biso   1.000  O
  O8       1.0000 0.73503  0.66389  0.13557  Biso   1.000  O
  O9       1.0000 0.22830  0.57616  0.20112  Biso   1.000  O
  O10      1.0000 0.77170  0.57616  0.29888  Biso   1.000  O
  O11      1.0000 0.72830  0.07616  0.20112  Biso   1.000  O
  O12      1.0000 0.27170  0.07616  0.29888  Biso   1.000  O
  O13      1.0000 0.77170  0.42384  0.79888  Biso   1.000  O
  O14      1.0000 0.22830  0.42384  0.70112  Biso   1.000  O
  O15      1.0000 0.27170  0.92384  0.79888  Biso   1.000  O
  O16      1.0000 0.72830  0.92384  0.70112  Biso   1.000  O
  N1       1.0000 0.27595  0.62317  0.10294  Biso   1.000  N
  N2       1.0000 0.72405  0.62317  0.39706  Biso   1.000  N
  N3       1.0000 0.77595  0.12317  0.10294  Biso   1.000  N
  N4       1.0000 0.22405  0.12317  0.39706  Biso   1.000  N
  N5       1.0000 0.72405  0.37683  0.89706  Biso   1.000  N
  N6       1.0000 0.27595  0.37683  0.60294  Biso   1.000  N
  N7       1.0000 0.22405  0.87683  0.89706  Biso   1.000  N
  N8       1.0000 0.77595  0.87683  0.60294  Biso   1.000  N
  O17      1.0000 0.14878  0.75326  0.30923  Biso   1.000  O
  O18      1.0000 0.85122  0.75326  0.19077  Biso   1.000  O
  O19      1.0000 0.64878  0.25326  0.30923  Biso   1.000  O
  O20      1.0000 0.35122  0.25326  0.19077  Biso   1.000  O
  O21      1.0000 0.85122  0.24674  0.69077  Biso   1.000  O
  O22      1.0000 0.14878  0.24674  0.80923  Biso   1.000  O
  O23      1.0000 0.35122  0.74674  0.69077  Biso   1.000  O
  O24      1.0000 0.64878  0.74674  0.80923  Biso   1.000  O
  N9       1.0000 0.11545  0.67155  0.14040  Biso   1.000  N
  N10      1.0000 0.88455  0.67155  0.35960  Biso   1.000  N
  N11      1.0000 0.61545  0.17155  0.14040  Biso   1.000  N
  N12      1.0000 0.38455  0.17155  0.35960  Biso   1.000  N
  N13      1.0000 0.88455  0.32845  0.85960  Biso   1.000  N
  N14      1.0000 0.11545  0.32845  0.64040  Biso   1.000  N
  N15      1.0000 0.38455  0.82845  0.85960  Biso   1.000  N
  N16      1.0000 0.61545  0.82845  0.64040  Biso   1.000  N
  O25      1.0000 0.15069  0.87778  0.65493  Biso   1.000  O
  O26      1.0000 0.84931  0.87778  0.84507  Biso   1.000  O
  O27      1.0000 0.65069  0.37778  0.65493  Biso   1.000  O
  O28      1.0000 0.34931  0.37778  0.84507  Biso   1.000  O
  O29      1.0000 0.84931  0.12222  0.34507  Biso   1.000  O
  O30      1.0000 0.15069  0.12222  0.15493  Biso   1.000  O
  O31      1.0000 0.34931  0.62222  0.34507  Biso   1.000  O
  O32      1.0000 0.65069  0.62222  0.15493  Biso   1.000  O
  O33      1.0000 0.39353  0.70418  0.24188  Biso   1.000  O
  O34      1.0000 0.60647  0.70418  0.25812  Biso   1.000  O
  O35      1.0000 0.89353  0.20418  0.24188  Biso   1.000  O
  O36      1.0000 0.10647  0.20418  0.25812  Biso   1.000  O
  O37      1.0000 0.60647  0.29582  0.75812  Biso   1.000  O
  O38      1.0000 0.39353  0.29582  0.74188  Biso   1.000  O
  O39      1.0000 0.10647  0.79582  0.75812  Biso   1.000  O
  O40      1.0000 0.89353  0.79582  0.74188  Biso   1.000  O
  C1       1.0000 0.13829  0.86046  0.31255  Biso   1.000  C
  C2       1.0000 0.86171  0.86046  0.18745  Biso   1.000  C
  C3       1.0000 0.63829  0.36046  0.31255  Biso   1.000  C
  C4       1.0000 0.36171  0.36046  0.18745  Biso   1.000  C
  C5       1.0000 0.86171  0.13954  0.68745  Biso   1.000  C
  C6       1.0000 0.13829  0.13954  0.81255  Biso   1.000  C
  C7       1.0000 0.36171  0.63954  0.68745  Biso   1.000  C
  C8       1.0000 0.63829  0.63954  0.81255  Biso   1.000  C
  C9       1.0000 0.50000  0.81600  0.25000  Biso   1.000  C
  C10      1.0000 0.00000  0.31600  0.25000  Biso   1.000  C
  C11      1.0000 0.50000  0.18400  0.75000  Biso   1.000  C
  C12      1.0000 0.00000  0.68400  0.75000  Biso   1.000  C
  O41      1.0000 0.14060  0.93482  0.26508  Biso   1.000  O
  O42      1.0000 0.85940  0.93482  0.23492  Biso   1.000  O
  O43      1.0000 0.64060  0.43482  0.26508  Biso   1.000  O
  O44      1.0000 0.35940  0.43482  0.23492  Biso   1.000  O
  O45      1.0000 0.85940  0.06518  0.73492  Biso   1.000  O
  O46      1.0000 0.14060  0.06518  0.76508  Biso   1.000  O
  O47      1.0000 0.35940  0.56518  0.73492  Biso   1.000  O
  O48      1.0000 0.64060  0.56518  0.76508  Biso   1.000  O
  C13      1.0000 0.11986  0.89471  0.37792  Biso   1.000  C
  C14      1.0000 0.88014  0.89471  0.12208  Biso   1.000  C
  C15      1.0000 0.61986  0.39471  0.37792  Biso   1.000  C
  C16      1.0000 0.38014  0.39471  0.12208  Biso   1.000  C
  C17      1.0000 0.88014  0.10529  0.62208  Biso   1.000  C
  C18      1.0000 0.11986  0.10529  0.87792  Biso   1.000  C
  C19      1.0000 0.38014  0.60529  0.62208  Biso   1.000  C
  C20      1.0000 0.61986  0.60529  0.87792  Biso   1.000  C
  O49      1.0000 0.35463  0.86831  0.26318  Biso   1.000  O
  O50      1.0000 0.64537  0.86831  0.23682  Biso   1.000  O
  O51      1.0000 0.85463  0.36831  0.26318  Biso   1.000  O
  O52      1.0000 0.14537  0.36831  0.23682  Biso   1.000  O
  O53      1.0000 0.64537  0.13169  0.73682  Biso   1.000  O
  O54      1.0000 0.35463  0.13169  0.76318  Biso   1.000  O
  O55      1.0000 0.14537  0.63169  0.73682  Biso   1.000  O
  O56      1.0000 0.85463  0.63169  0.76318  Biso   1.000  O
  C21      1.0000 0.08480  0.96799  0.49564  Biso   1.000  C
  C22      1.0000 0.91520  0.96799  0.00436  Biso   1.000  C
  C23      1.0000 0.58480  0.46799  0.49564  Biso   1.000  C
  C24      1.0000 0.41520  0.46799  0.00436  Biso   1.000  C
  C25      1.0000 0.91520  0.03201  0.50436  Biso   1.000  C
  C26      1.0000 0.08480  0.03201  0.99564  Biso   1.000  C
  C27      1.0000 0.41520  0.53201  0.50436  Biso   1.000  C
  C28      1.0000 0.58480  0.53201  0.99564  Biso   1.000  C
  H1       1.0000 0.07270  0.99090  0.53510  Biso   1.000  H
  H2       1.0000 0.92730  0.99090  0.96490  Biso   1.000  H
  H3       1.0000 0.57270  0.49090  0.53510  Biso   1.000  H
  H4       1.0000 0.42730  0.49090  0.96490  Biso   1.000  H
  H5       1.0000 0.92730  0.00910  0.46490  Biso   1.000  H
  H6       1.0000 0.07270  0.00910  0.03510  Biso   1.000  H
  H7       1.0000 0.42730  0.50910  0.46490  Biso   1.000  H
  H8       1.0000 0.57270  0.50910  0.03510  Biso   1.000  H
  O57      1.0000 0.21785  0.84417  0.20087  Biso   1.000  O
  O58      1.0000 0.78215  0.84417  0.29913  Biso   1.000  O
  O59      1.0000 0.71785  0.34417  0.20087  Biso   1.000  O
  O60      1.0000 0.28215  0.34417  0.29913  Biso   1.000  O
  O61      1.0000 0.78215  0.15583  0.79913  Biso   1.000  O
  O62      1.0000 0.21785  0.15583  0.70087  Biso   1.000  O
  O63      1.0000 0.28215  0.65583  0.79913  Biso   1.000  O
  O64      1.0000 0.71785  0.65583  0.70087  Biso   1.000  O
  H9       1.0000 0.19730  0.89930  0.20370  Biso   1.000  H
  H10      1.0000 0.80270  0.89930  0.29630  Biso   1.000  H
  H11      1.0000 0.69730  0.39930  0.20370  Biso   1.000  H
  H12      1.0000 0.30270  0.39930  0.29630  Biso   1.000  H
  H13      1.0000 0.80270  0.10070  0.79630  Biso   1.000  H
  H14      1.0000 0.19730  0.10070  0.70370  Biso   1.000  H
  H15      1.0000 0.30270  0.60070  0.79630  Biso   1.000  H
  H16      1.0000 0.69730  0.60070  0.70370  Biso   1.000  H
  H17      1.0000 0.25570  0.86040  0.22110  Biso   1.000  H
  H18      1.0000 0.74430  0.86040  0.27890  Biso   1.000  H
  H19      1.0000 0.75570  0.36040  0.22110  Biso   1.000  H
  H20      1.0000 0.24430  0.36040  0.27890  Biso   1.000  H
  H21      1.0000 0.74430  0.13960  0.77890  Biso   1.000  H
  H22      1.0000 0.25570  0.13960  0.72110  Biso   1.000  H
  H23      1.0000 0.24430  0.63960  0.77890  Biso   1.000  H
  H24      1.0000 0.75570  0.63960  0.72110  Biso   1.000  H
  C29      1.0000 0.39504  0.81263  0.25292  Biso   1.000  C
  C30      1.0000 0.60496  0.81263  0.24708  Biso   1.000  C
  C31      1.0000 0.89504  0.31263  0.25292  Biso   1.000  C
  C32      1.0000 0.10496  0.31263  0.24708  Biso   1.000  C
  C33      1.0000 0.60496  0.18737  0.74708  Biso   1.000  C
  C34      1.0000 0.39504  0.18737  0.75292  Biso   1.000  C
  C35      1.0000 0.10496  0.68737  0.74708  Biso   1.000  C
  C36      1.0000 0.89504  0.68737  0.75292  Biso   1.000  C
  C37      1.0000 0.28288  0.62120  0.97677  Biso   1.000  C
  C38      1.0000 0.71712  0.62120  0.52323  Biso   1.000  C
  C39      1.0000 0.78288  0.12120  0.97677  Biso   1.000  C
  C40      1.0000 0.21712  0.12120  0.52323  Biso   1.000  C
  C41      1.0000 0.71712  0.37880  0.02323  Biso   1.000  C
  C42      1.0000 0.28288  0.37880  0.47677  Biso   1.000  C
  C43      1.0000 0.21712  0.87880  0.02323  Biso   1.000  C
  C44      1.0000 0.78288  0.87880  0.47677  Biso   1.000  C
  H25      1.0000 0.30370  0.64430  0.94710  Biso   1.000  H
  H26      1.0000 0.69630  0.64430  0.55290  Biso   1.000  H
  H27      1.0000 0.80370  0.14430  0.94710  Biso   1.000  H
  H28      1.0000 0.19630  0.14430  0.55290  Biso   1.000  H
  H29      1.0000 0.69630  0.35570  0.05290  Biso   1.000  H
  H30      1.0000 0.30370  0.35570  0.44710  Biso   1.000  H
  H31      1.0000 0.19630  0.85570  0.05290  Biso   1.000  H
  H32      1.0000 0.80370  0.85570  0.44710  Biso   1.000  H
  C45      1.0000 0.12234  0.60647  0.08507  Biso   1.000  C
  C46      1.0000 0.87766  0.60647  0.41493  Biso   1.000  C
  C47      1.0000 0.62234  0.10647  0.08507  Biso   1.000  C
  C48      1.0000 0.37766  0.10647  0.41493  Biso   1.000  C
  C49      1.0000 0.87766  0.39353  0.91493  Biso   1.000  C
  C50      1.0000 0.12234  0.39353  0.58507  Biso   1.000  C
  C51      1.0000 0.37766  0.89353  0.91493  Biso   1.000  C
  C52      1.0000 0.62234  0.89353  0.58507  Biso   1.000  C
  C53      1.0000 0.21994  0.56605  0.06477  Biso   1.000  C
  C54      1.0000 0.78006  0.56605  0.43523  Biso   1.000  C
  C55      1.0000 0.71994  0.06605  0.06477  Biso   1.000  C
  C56      1.0000 0.28006  0.06605  0.43523  Biso   1.000  C
  C57      1.0000 0.78006  0.43395  0.93523  Biso   1.000  C
  C58      1.0000 0.21994  0.43395  0.56477  Biso   1.000  C
  C59      1.0000 0.28006  0.93395  0.93523  Biso   1.000  C
  C60      1.0000 0.71994  0.93395  0.56477  Biso   1.000  C
  C61      1.0000 0.15396  0.85474  0.45983  Biso   1.000  C
  C62      1.0000 0.84604  0.85474  0.04017  Biso   1.000  C
  C63      1.0000 0.65396  0.35474  0.45983  Biso   1.000  C
  C64      1.0000 0.34604  0.35474  0.04017  Biso   1.000  C
  C65      1.0000 0.84604  0.14526  0.54017  Biso   1.000  C
  C66      1.0000 0.15396  0.14526  0.95983  Biso   1.000  C
  C67      1.0000 0.34604  0.64526  0.54017  Biso   1.000  C
  C68      1.0000 0.65396  0.64526  0.95983  Biso   1.000  C
  H33      1.0000 0.18740  0.80190  0.47500  Biso   1.000  H
  H34      1.0000 0.81260  0.80190  0.02500  Biso   1.000  H
  H35      1.0000 0.68740  0.30190  0.47500  Biso   1.000  H
  H36      1.0000 0.31260  0.30190  0.02500  Biso   1.000  H
  H37      1.0000 0.81260  0.19810  0.52500  Biso   1.000  H
  H38      1.0000 0.18740  0.19810  0.97500  Biso   1.000  H
  H39      1.0000 0.31260  0.69810  0.52500  Biso   1.000  H
  H40      1.0000 0.68740  0.69810  0.97500  Biso   1.000  H
  O65      1.0000 0.99984  0.07950  0.39562  Biso   1.000  O
  O66      1.0000 0.00016  0.07950  0.10438  Biso   1.000  O
  O67      1.0000 0.49984  0.57950  0.39562  Biso   1.000  O
  O68      1.0000 0.50016  0.57950  0.10438  Biso   1.000  O
  O69      1.0000 0.00016  0.92050  0.60438  Biso   1.000  O
  O70      1.0000 0.99984  0.92050  0.89562  Biso   1.000  O
  O71      1.0000 0.50016  0.42050  0.60438  Biso   1.000  O
  O72      1.0000 0.49984  0.42050  0.89562  Biso   1.000  O
  H41      1.0000 0.97530  0.08040  0.34470  Biso   1.000  H
  H42      1.0000 0.02470  0.08040  0.15530  Biso   1.000  H
  H43      1.0000 0.47530  0.58040  0.34470  Biso   1.000  H
  H44      1.0000 0.52470  0.58040  0.15530  Biso   1.000  H
  H45      1.0000 0.02470  0.91960  0.65530  Biso   1.000  H
  H46      1.0000 0.97530  0.91960  0.84470  Biso   1.000  H
  H47      1.0000 0.52470  0.41960  0.65530  Biso   1.000  H
  H48      1.0000 0.47530  0.41960  0.84470  Biso   1.000  H
  C69      1.0000 0.06951  0.97380  0.35580  Biso   1.000  C
  C70      1.0000 0.93049  0.97380  0.14420  Biso   1.000  C
  C71      1.0000 0.56951  0.47380  0.35580  Biso   1.000  C
  C72      1.0000 0.43049  0.47380  0.14420  Biso   1.000  C
  C73      1.0000 0.93049  0.02620  0.64420  Biso   1.000  C
  C74      1.0000 0.06951  0.02620  0.85580  Biso   1.000  C
  C75      1.0000 0.43049  0.52620  0.64420  Biso   1.000  C
  C76      1.0000 0.56951  0.52620  0.85580  Biso   1.000  C
  C77      1.0000 0.05041  0.00666  0.41339  Biso   1.000  C
  C78      1.0000 0.94959  0.00666  0.08661  Biso   1.000  C
  C79      1.0000 0.55041  0.50666  0.41339  Biso   1.000  C
  C80      1.0000 0.44959  0.50666  0.08661  Biso   1.000  C
  C81      1.0000 0.94959  0.99334  0.58661  Biso   1.000  C
  C82      1.0000 0.05041  0.99334  0.91339  Biso   1.000  C
  C83      1.0000 0.44959  0.49334  0.58661  Biso   1.000  C
  C84      1.0000 0.55041  0.49334  0.91339  Biso   1.000  C
  C85      1.0000 0.05888  0.72530  0.11715  Biso   1.000  C
  C86      1.0000 0.94112  0.72530  0.38285  Biso   1.000  C
  C87      1.0000 0.55888  0.22530  0.11715  Biso   1.000  C
  C88      1.0000 0.44112  0.22530  0.38285  Biso   1.000  C
  C89      1.0000 0.94112  0.27470  0.88285  Biso   1.000  C
  C90      1.0000 0.05888  0.27470  0.61715  Biso   1.000  C
  C91      1.0000 0.44112  0.77470  0.88285  Biso   1.000  C
  C92      1.0000 0.55888  0.77470  0.61715  Biso   1.000  C
  H49      1.0000 0.05470  0.77100  0.15630  Biso   1.000  H
  H50      1.0000 0.94530  0.77100  0.34370  Biso   1.000  H
  H51      1.0000 0.55470  0.27100  0.15630  Biso   1.000  H
  H52      1.0000 0.44530  0.27100  0.34370  Biso   1.000  H
  H53      1.0000 0.94530  0.22900  0.84370  Biso   1.000  H
  H54      1.0000 0.05470  0.22900  0.65630  Biso   1.000  H
  H55      1.0000 0.44530  0.72900  0.84370  Biso   1.000  H
  H56      1.0000 0.55470  0.72900  0.65630  Biso   1.000  H
  C93      1.0000 0.45006  0.87557  0.25181  Biso   1.000  C
  C94      1.0000 0.54994  0.87557  0.24819  Biso   1.000  C
  C95      1.0000 0.95006  0.37557  0.25181  Biso   1.000  C
  C96      1.0000 0.04994  0.37557  0.24819  Biso   1.000  C
  C97      1.0000 0.54994  0.12443  0.74819  Biso   1.000  C
  C98      1.0000 0.45006  0.12443  0.75181  Biso   1.000  C
  C99      1.0000 0.04994  0.62443  0.74819  Biso   1.000  C
  C100     1.0000 0.95006  0.62443  0.75181  Biso   1.000  C
  C101     1.0000 0.22708  0.55750  0.93863  Biso   1.000  C
  C102     1.0000 0.77292  0.55750  0.56137  Biso   1.000  C
  C103     1.0000 0.72708  0.05750  0.93863  Biso   1.000  C
  C104     1.0000 0.27292  0.05750  0.56137  Biso   1.000  C
  C105     1.0000 0.77292  0.44250  0.06137  Biso   1.000  C
  C106     1.0000 0.22708  0.44250  0.43863  Biso   1.000  C
  C107     1.0000 0.27292  0.94250  0.06137  Biso   1.000  C
  C108     1.0000 0.72708  0.94250  0.43863  Biso   1.000  C
  H57      1.0000 0.21060  0.53460  0.88290  Biso   1.000  H
  H58      1.0000 0.78940  0.53460  0.61710  Biso   1.000  H
  H59      1.0000 0.71060  0.03460  0.88290  Biso   1.000  H
  H60      1.0000 0.28940  0.03460  0.61710  Biso   1.000  H
  H61      1.0000 0.78940  0.46540  0.11710  Biso   1.000  H
  H62      1.0000 0.21060  0.46540  0.38290  Biso   1.000  H
  H63      1.0000 0.28940  0.96540  0.11710  Biso   1.000  H
  H64      1.0000 0.71060  0.96540  0.38290  Biso   1.000  H
  C109     1.0000 0.18750  0.54277  0.11842  Biso   1.000  C
  C110     1.0000 0.81250  0.54277  0.38158  Biso   1.000  C
  C111     1.0000 0.68750  0.04277  0.11842  Biso   1.000  C
  C112     1.0000 0.31250  0.04277  0.38158  Biso   1.000  C
  C113     1.0000 0.81250  0.45723  0.88158  Biso   1.000  C
  C114     1.0000 0.18750  0.45723  0.61842  Biso   1.000  C
  C115     1.0000 0.31250  0.95723  0.88158  Biso   1.000  C
  C116     1.0000 0.68750  0.95723  0.61842  Biso   1.000  C
  C117     1.0000 0.30723  0.65009  0.06017  Biso   1.000  C
  C118     1.0000 0.69277  0.65009  0.43983  Biso   1.000  C
  C119     1.0000 0.80723  0.15009  0.06017  Biso   1.000  C
  C120     1.0000 0.19277  0.15009  0.43983  Biso   1.000  C
  C121     1.0000 0.69277  0.34991  0.93983  Biso   1.000  C
  C122     1.0000 0.30723  0.34991  0.56017  Biso   1.000  C
  C123     1.0000 0.19277  0.84991  0.93983  Biso   1.000  C
  C124     1.0000 0.80723  0.84991  0.56017  Biso   1.000  C
  H65      1.0000 0.34640  0.68930  0.08760  Biso   1.000  H
  H66      1.0000 0.65360  0.68930  0.41240  Biso   1.000  H
  H67      1.0000 0.84640  0.18930  0.08760  Biso   1.000  H
  H68      1.0000 0.15360  0.18930  0.41240  Biso   1.000  H
  H69      1.0000 0.65360  0.31070  0.91240  Biso   1.000  H
  H70      1.0000 0.34640  0.31070  0.58760  Biso   1.000  H
  H71      1.0000 0.15360  0.81070  0.91240  Biso   1.000  H
  H72      1.0000 0.84640  0.81070  0.58760  Biso   1.000  H
  C125     1.0000 0.19528  0.52730  0.98265  Biso   1.000  C
  C126     1.0000 0.80472  0.52730  0.51735  Biso   1.000  C
  C127     1.0000 0.69528  0.02730  0.98265  Biso   1.000  C
  C128     1.0000 0.30472  0.02730  0.51735  Biso   1.000  C
  C129     1.0000 0.80472  0.47270  0.01735  Biso   1.000  C
  C130     1.0000 0.19528  0.47270  0.48265  Biso   1.000  C
  C131     1.0000 0.30472  0.97270  0.01735  Biso   1.000  C
  C132     1.0000 0.69528  0.97270  0.48265  Biso   1.000  C
  H73      1.0000 0.15820  0.48200  0.95780  Biso   1.000  H
  H74      1.0000 0.84180  0.48200  0.54220  Biso   1.000  H
  H75      1.0000 0.65820  0.98200  0.95780  Biso   1.000  H
  H76      1.0000 0.34180  0.98200  0.54220  Biso   1.000  H
  H77      1.0000 0.84180  0.51800  0.04220  Biso   1.000  H
  H78      1.0000 0.15820  0.51800  0.45780  Biso   1.000  H
  H79      1.0000 0.34180  0.01800  0.04220  Biso   1.000  H
  H80      1.0000 0.65820  0.01800  0.45780  Biso   1.000  H
  C133     1.0000 0.07195  0.59240  0.00481  Biso   1.000  C
  C134     1.0000 0.92805  0.59240  0.49519  Biso   1.000  C
  C135     1.0000 0.57195  0.09240  0.00481  Biso   1.000  C
  C136     1.0000 0.42805  0.09240  0.49519  Biso   1.000  C
  C137     1.0000 0.92805  0.40760  0.99519  Biso   1.000  C
  C138     1.0000 0.07195  0.40760  0.50481  Biso   1.000  C
  C139     1.0000 0.42805  0.90760  0.99519  Biso   1.000  C
  C140     1.0000 0.57195  0.90760  0.50481  Biso   1.000  C
  H81      1.0000 0.07690  0.54620  0.96650  Biso   1.000  H
  H82      1.0000 0.92310  0.54620  0.53350  Biso   1.000  H
  H83      1.0000 0.57690  0.04620  0.96650  Biso   1.000  H
  H84      1.0000 0.42310  0.04620  0.53350  Biso   1.000  H
  H85      1.0000 0.92310  0.45380  0.03350  Biso   1.000  H
  H86      1.0000 0.07690  0.45380  0.46650  Biso   1.000  H
  H87      1.0000 0.42310  0.95380  0.03350  Biso   1.000  H
  H88      1.0000 0.57690  0.95380  0.46650  Biso   1.000  H
  C141     1.0000 0.01377  0.64780  0.98147  Biso   1.000  C
  C142     1.0000 0.98623  0.64780  0.51853  Biso   1.000  C
  C143     1.0000 0.51377  0.14780  0.98147  Biso   1.000  C
  C144     1.0000 0.48623  0.14780  0.51853  Biso   1.000  C
  C145     1.0000 0.98623  0.35220  0.01853  Biso   1.000  C
  C146     1.0000 0.01377  0.35220  0.48147  Biso   1.000  C
  C147     1.0000 0.48623  0.85220  0.01853  Biso   1.000  C
  C148     1.0000 0.51377  0.85220  0.48147  Biso   1.000  C
  H89      1.0000 0.97930  0.63890  0.92740  Biso   1.000  H
  H90      1.0000 0.02070  0.63890  0.57260  Biso   1.000  H
  H91      1.0000 0.47930  0.13890  0.92740  Biso   1.000  H
  H92      1.0000 0.52070  0.13890  0.57260  Biso   1.000  H
  H93      1.0000 0.02070  0.36110  0.07260  Biso   1.000  H
  H94      1.0000 0.97930  0.36110  0.42740  Biso   1.000  H
  H95      1.0000 0.52070  0.86110  0.07260  Biso   1.000  H
  H96      1.0000 0.47930  0.86110  0.42740  Biso   1.000  H
  C149     1.0000 0.44979  0.99450  0.25120  Biso   1.000  C
  C150     1.0000 0.55021  0.99450  0.24880  Biso   1.000  C
  C151     1.0000 0.94979  0.49450  0.25120  Biso   1.000  C
  C152     1.0000 0.05021  0.49450  0.24880  Biso   1.000  C
  C153     1.0000 0.55021  0.00550  0.74880  Biso   1.000  C
  C154     1.0000 0.44979  0.00550  0.75120  Biso   1.000  C
  C155     1.0000 0.05021  0.50550  0.74880  Biso   1.000  C
  C156     1.0000 0.94979  0.50550  0.75120  Biso   1.000  C
  C157     1.0000 0.00752  0.71520  0.03824  Biso   1.000  C
  C158     1.0000 0.99248  0.71520  0.46176  Biso   1.000  C
  C159     1.0000 0.50752  0.21520  0.03824  Biso   1.000  C
  C160     1.0000 0.49248  0.21520  0.46176  Biso   1.000  C
  C161     1.0000 0.99248  0.28480  0.96176  Biso   1.000  C
  C162     1.0000 0.00752  0.28480  0.53824  Biso   1.000  C
  C163     1.0000 0.49248  0.78480  0.96176  Biso   1.000  C
  C164     1.0000 0.50752  0.78480  0.53824  Biso   1.000  C
  H97      1.0000 0.96900  0.75360  0.02350  Biso   1.000  H
  H98      1.0000 0.03100  0.75360  0.47650  Biso   1.000  H
  H99      1.0000 0.46900  0.25360  0.02350  Biso   1.000  H
  H100     1.0000 0.53100  0.25360  0.47650  Biso   1.000  H
  H101     1.0000 0.03100  0.24640  0.97650  Biso   1.000  H
  H102     1.0000 0.96900  0.24640  0.52350  Biso   1.000  H
  H103     1.0000 0.53100  0.74640  0.97650  Biso   1.000  H
  H104     1.0000 0.46900  0.74640  0.52350  Biso   1.000  H
  O73      1.0000 0.47718  0.16850  0.21420  Biso   1.000  O
  O74      1.0000 0.52282  0.16850  0.28580  Biso   1.000  O
  O75      1.0000 0.97718  0.66850  0.21420  Biso   1.000  O
  O76      1.0000 0.02282  0.66850  0.28580  Biso   1.000  O
  O77      1.0000 0.52282  0.83150  0.78580  Biso   1.000  O
  O78      1.0000 0.47718  0.83150  0.71420  Biso   1.000  O
  O79      1.0000 0.02282  0.33150  0.78580  Biso   1.000  O
  O80      1.0000 0.97718  0.33150  0.71420  Biso   1.000  O
  H105     1.0000 0.44070  0.18970  0.20780  Biso   1.000  H
  H106     1.0000 0.55930  0.18970  0.29220  Biso   1.000  H
  H107     1.0000 0.94070  0.68970  0.20780  Biso   1.000  H
  H108     1.0000 0.05930  0.68970  0.29220  Biso   1.000  H
  H109     1.0000 0.55930  0.81030  0.79220  Biso   1.000  H
  H110     1.0000 0.44070  0.81030  0.70780  Biso   1.000  H
  H111     1.0000 0.05930  0.31030  0.79220  Biso   1.000  H
  H112     1.0000 0.94070  0.31030  0.70780  Biso   1.000  H
  C165     1.0000 0.48398  0.05310  0.22860  Biso   1.000  C
  C166     1.0000 0.51602  0.05310  0.27140  Biso   1.000  C
  C167     1.0000 0.98398  0.55310  0.22860  Biso   1.000  C
  C168     1.0000 0.01602  0.55310  0.27140  Biso   1.000  C
  C169     1.0000 0.51602  0.94690  0.77140  Biso   1.000  C
  C170     1.0000 0.48398  0.94690  0.72860  Biso   1.000  C
  C171     1.0000 0.01602  0.44690  0.77140  Biso   1.000  C
  C172     1.0000 0.98398  0.44690  0.72860  Biso   1.000  C
  H113     1.0000 0.50000  0.73600  0.25000  Biso   1.000  H
  H114     1.0000 0.00000  0.23600  0.25000  Biso   1.000  H
  H115     1.0000 0.50000  0.26400  0.75000  Biso   1.000  H
  H116     1.0000 0.00000  0.76400  0.75000  Biso   1.000  H
  H117     1.0000 0.05000  0.00700  0.30210  Biso   1.000  H
  H118     1.0000 0.95000  0.00700  0.19790  Biso   1.000  H
  H119     1.0000 0.55000  0.50700  0.30210  Biso   1.000  H
  H120     1.0000 0.45000  0.50700  0.19790  Biso   1.000  H
  H121     1.0000 0.95000  0.99300  0.69790  Biso   1.000  H
  H122     1.0000 0.05000  0.99300  0.80210  Biso   1.000  H
  H123     1.0000 0.45000  0.49300  0.69790  Biso   1.000  H
  H124     1.0000 0.55000  0.49300  0.80210  Biso   1.000  H
  O81      1.0000 0.17493  0.42365  0.11060  Biso   1.000  O
  O82      1.0000 0.82507  0.42365  0.38940  Biso   1.000  O
  O83      1.0000 0.67493  0.92365  0.11060  Biso   1.000  O
  O84      1.0000 0.32507  0.92365  0.38940  Biso   1.000  O
  O85      1.0000 0.82507  0.57635  0.88940  Biso   1.000  O
  O86      1.0000 0.17493  0.57635  0.61060  Biso   1.000  O
  O87      1.0000 0.32507  0.07635  0.88940  Biso   1.000  O
  O88      1.0000 0.67493  0.07635  0.61060  Biso   1.000  O
  H125     1.0000 0.16590  0.40280  0.14670  Biso   1.000  H
  H126     1.0000 0.83410  0.40280  0.35330  Biso   1.000  H
  H127     1.0000 0.66590  0.90280  0.14670  Biso   1.000  H
  H128     1.0000 0.33410  0.90280  0.35330  Biso   1.000  H
  H129     1.0000 0.83410  0.59720  0.85330  Biso   1.000  H
  H130     1.0000 0.16590  0.59720  0.64670  Biso   1.000  H
  H131     1.0000 0.33410  0.09720  0.85330  Biso   1.000  H
  H132     1.0000 0.66590  0.09720  0.64670  Biso   1.000  H
  C173     1.0000 0.13739  0.89499  0.51925  Biso   1.000  C
  C174     1.0000 0.86261  0.89499  0.98075  Biso   1.000  C
  C175     1.0000 0.63739  0.39499  0.51925  Biso   1.000  C
  C176     1.0000 0.36261  0.39499  0.98075  Biso   1.000  C
  C177     1.0000 0.86261  0.10501  0.48075  Biso   1.000  C
  C178     1.0000 0.13739  0.10501  0.01925  Biso   1.000  C
  C179     1.0000 0.36261  0.60501  0.48075  Biso   1.000  C
  C180     1.0000 0.63739  0.60501  0.01925  Biso   1.000  C
  C181     1.0000 0.17763  0.86621  0.61063  Biso   1.000  C
  C182     1.0000 0.82237  0.86621  0.88937  Biso   1.000  C
  C183     1.0000 0.67763  0.36621  0.61063  Biso   1.000  C
  C184     1.0000 0.32237  0.36621  0.88937  Biso   1.000  C
  C185     1.0000 0.82237  0.13379  0.38937  Biso   1.000  C
  C186     1.0000 0.17763  0.13379  0.11063  Biso   1.000  C
  C187     1.0000 0.32237  0.63379  0.38937  Biso   1.000  C
  C188     1.0000 0.67763  0.63379  0.11063  Biso   1.000  C
  H133     1.0000 0.42170  0.03000  0.25200  Biso   1.000  H
  H134     1.0000 0.57830  0.03000  0.24800  Biso   1.000  H
  H135     1.0000 0.92170  0.53000  0.25200  Biso   1.000  H
  H136     1.0000 0.07830  0.53000  0.24800  Biso   1.000  H
  H137     1.0000 0.57830  0.97000  0.74800  Biso   1.000  H
  H138     1.0000 0.42170  0.97000  0.75200  Biso   1.000  H
  H139     1.0000 0.07830  0.47000  0.74800  Biso   1.000  H
  H140     1.0000 0.92170  0.47000  0.75200  Biso   1.000  H
