data_image0
_cell_length_a       23.809
_cell_length_b       11.5102
_cell_length_c       18.1434
_cell_angle_alpha    90
_cell_angle_beta     119.925
_cell_angle_gamma    90

_symmetry_space_group_name_H-M    "P 1"
_symmetry_int_tables_number       1

loop_
  _symmetry_equiv_pos_as_xyz
  'x, y, z'

loop_
  _atom_site_label
  _atom_site_occupancy
  _atom_site_fract_x
  _atom_site_fract_y
  _atom_site_fract_z
  _atom_site_thermal_displace_type
  _atom_site_B_iso_or_equiv
  _atom_site_type_symbol
  Cu1      1.0000 0.19704  0.31710  0.25387  Biso   1.000  Cu
  Cu2      1.0000 0.80296  0.31710  0.24613  Biso   1.000  Cu
  Cu3      1.0000 0.69704  0.81710  0.25387  Biso   1.000  Cu
  Cu4      1.0000 0.30296  0.81710  0.24613  Biso   1.000  Cu
  Cu5      1.0000 0.80296  0.68290  0.74613  Biso   1.000  Cu
  Cu6      1.0000 0.19704  0.68290  0.75387  Biso   1.000  Cu
  Cu7      1.0000 0.30296  0.18290  0.74613  Biso   1.000  Cu
  Cu8      1.0000 0.69704  0.18290  0.75387  Biso   1.000  Cu
  Cu9      1.0000 0.31712  0.37228  0.22759  Biso   1.000  Cu
  Cu10     1.0000 0.68288  0.37228  0.27241  Biso   1.000  Cu
  Cu11     1.0000 0.81712  0.87228  0.22759  Biso   1.000  Cu
  Cu12     1.0000 0.18288  0.87228  0.27241  Biso   1.000  Cu
  Cu13     1.0000 0.68288  0.62772  0.77241  Biso   1.000  Cu
  Cu14     1.0000 0.31712  0.62772  0.72759  Biso   1.000  Cu
  Cu15     1.0000 0.18288  0.12772  0.77241  Biso   1.000  Cu
  Cu16     1.0000 0.81712  0.12772  0.72759  Biso   1.000  Cu
  O1       1.0000 0.23088  0.42563  0.20231  Biso   1.000  O
  O2       1.0000 0.76912  0.42563  0.29769  Biso   1.000  O
  O3       1.0000 0.73088  0.92563  0.20231  Biso   1.000  O
  O4       1.0000 0.26912  0.92563  0.29769  Biso   1.000  O
  O5       1.0000 0.76912  0.57437  0.79769  Biso   1.000  O
  O6       1.0000 0.23088  0.57437  0.70231  Biso   1.000  O
  O7       1.0000 0.26912  0.07437  0.79769  Biso   1.000  O
  O8       1.0000 0.73088  0.07437  0.70231  Biso   1.000  O
  O9       1.0000 0.17562  0.57833  0.11039  Biso   1.000  O
  O10      1.0000 0.82438  0.57833  0.38961  Biso   1.000  O
  O11      1.0000 0.67562  0.07833  0.11039  Biso   1.000  O
  O12      1.0000 0.32438  0.07833  0.38961  Biso   1.000  O
  O13      1.0000 0.82438  0.42167  0.88961  Biso   1.000  O
  O14      1.0000 0.17562  0.42167  0.61039  Biso   1.000  O
  O15      1.0000 0.32438  0.92167  0.88961  Biso   1.000  O
  O16      1.0000 0.67562  0.92167  0.61039  Biso   1.000  O
  H1       1.0000 0.15850  0.59600  0.13850  Biso   1.000  H
  H2       1.0000 0.84150  0.59600  0.36150  Biso   1.000  H
  H3       1.0000 0.65850  0.09600  0.13850  Biso   1.000  H
  H4       1.0000 0.34150  0.09600  0.36150  Biso   1.000  H
  H5       1.0000 0.84150  0.40400  0.86150  Biso   1.000  H
  H6       1.0000 0.15850  0.40400  0.63850  Biso   1.000  H
  H7       1.0000 0.34150  0.90400  0.86150  Biso   1.000  H
  H8       1.0000 0.65850  0.90400  0.63850  Biso   1.000  H
  O17      1.0000 0.22943  0.16255  0.63370  Biso   1.000  O
  O18      1.0000 0.77057  0.16255  0.86630  Biso   1.000  O
  O19      1.0000 0.72943  0.66255  0.63370  Biso   1.000  O
  O20      1.0000 0.27057  0.66255  0.86630  Biso   1.000  O
  O21      1.0000 0.77057  0.83745  0.36630  Biso   1.000  O
  O22      1.0000 0.22943  0.83745  0.13370  Biso   1.000  O
  O23      1.0000 0.27057  0.33745  0.36630  Biso   1.000  O
  O24      1.0000 0.72943  0.33745  0.13370  Biso   1.000  O
  O25      1.0000 0.14490  0.12073  0.65053  Biso   1.000  O
  O26      1.0000 0.85510  0.12073  0.84947  Biso   1.000  O
  O27      1.0000 0.64490  0.62073  0.65053  Biso   1.000  O
  O28      1.0000 0.35510  0.62073  0.84947  Biso   1.000  O
  O29      1.0000 0.85510  0.87927  0.34947  Biso   1.000  O
  O30      1.0000 0.14490  0.87927  0.15053  Biso   1.000  O
  O31      1.0000 0.35510  0.37927  0.34947  Biso   1.000  O
  O32      1.0000 0.64490  0.37927  0.15053  Biso   1.000  O
  O33      1.0000 0.15478  0.24923  0.31247  Biso   1.000  O
  O34      1.0000 0.84522  0.24923  0.18753  Biso   1.000  O
  O35      1.0000 0.65478  0.74923  0.31247  Biso   1.000  O
  O36      1.0000 0.34522  0.74923  0.18753  Biso   1.000  O
  O37      1.0000 0.84522  0.75077  0.68753  Biso   1.000  O
  O38      1.0000 0.15478  0.75077  0.81247  Biso   1.000  O
  O39      1.0000 0.34522  0.25077  0.68753  Biso   1.000  O
  O40      1.0000 0.65478  0.25077  0.81247  Biso   1.000  O
  O41      1.0000 0.14594  0.06721  0.26573  Biso   1.000  O
  O42      1.0000 0.85406  0.06721  0.23427  Biso   1.000  O
  O43      1.0000 0.64594  0.56721  0.26573  Biso   1.000  O
  O44      1.0000 0.35406  0.56721  0.23427  Biso   1.000  O
  O45      1.0000 0.85406  0.93279  0.73427  Biso   1.000  O
  O46      1.0000 0.14594  0.93279  0.76573  Biso   1.000  O
  O47      1.0000 0.35406  0.43279  0.73427  Biso   1.000  O
  O48      1.0000 0.64594  0.43279  0.76573  Biso   1.000  O
  O49      1.0000 0.39304  0.28951  0.24053  Biso   1.000  O
  O50      1.0000 0.60696  0.28951  0.25947  Biso   1.000  O
  O51      1.0000 0.89304  0.78951  0.24053  Biso   1.000  O
  O52      1.0000 0.10696  0.78951  0.25947  Biso   1.000  O
  O53      1.0000 0.60696  0.71049  0.75947  Biso   1.000  O
  O54      1.0000 0.39304  0.71049  0.74053  Biso   1.000  O
  O55      1.0000 0.10696  0.21049  0.75947  Biso   1.000  O
  O56      1.0000 0.89304  0.21049  0.74053  Biso   1.000  O
  O57      1.0000 0.35708  0.12516  0.26644  Biso   1.000  O
  O58      1.0000 0.64292  0.12516  0.23356  Biso   1.000  O
  O59      1.0000 0.85708  0.62516  0.26644  Biso   1.000  O
  O60      1.0000 0.14292  0.62516  0.23356  Biso   1.000  O
  O61      1.0000 0.64292  0.87484  0.73356  Biso   1.000  O
  O62      1.0000 0.35708  0.87484  0.76644  Biso   1.000  O
  O63      1.0000 0.14292  0.37484  0.73356  Biso   1.000  O
  O64      1.0000 0.85708  0.37484  0.76644  Biso   1.000  O
  O65      1.0000 0.22102  0.15722  0.20042  Biso   1.000  O
  O66      1.0000 0.77898  0.15722  0.29958  Biso   1.000  O
  O67      1.0000 0.72102  0.65722  0.20042  Biso   1.000  O
  O68      1.0000 0.27898  0.65722  0.29958  Biso   1.000  O
  O69      1.0000 0.77898  0.84278  0.79958  Biso   1.000  O
  O70      1.0000 0.22102  0.84278  0.70042  Biso   1.000  O
  O71      1.0000 0.27898  0.34278  0.79958  Biso   1.000  O
  O72      1.0000 0.72102  0.34278  0.70042  Biso   1.000  O
  N1       1.0000 0.11822  0.32763  0.14046  Biso   1.000  N
  N2       1.0000 0.88178  0.32763  0.35954  Biso   1.000  N
  N3       1.0000 0.61822  0.82763  0.14046  Biso   1.000  N
  N4       1.0000 0.38178  0.82763  0.35954  Biso   1.000  N
  N5       1.0000 0.88178  0.67237  0.85954  Biso   1.000  N
  N6       1.0000 0.11822  0.67237  0.64046  Biso   1.000  N
  N7       1.0000 0.38178  0.17237  0.85954  Biso   1.000  N
  N8       1.0000 0.61822  0.17237  0.64046  Biso   1.000  N
  N9       1.0000 0.27568  0.37698  0.10235  Biso   1.000  N
  N10      1.0000 0.72432  0.37698  0.39765  Biso   1.000  N
  N11      1.0000 0.77568  0.87698  0.10235  Biso   1.000  N
  N12      1.0000 0.22432  0.87698  0.39765  Biso   1.000  N
  N13      1.0000 0.72432  0.62302  0.89765  Biso   1.000  N
  N14      1.0000 0.27568  0.62302  0.60235  Biso   1.000  N
  N15      1.0000 0.22432  0.12302  0.89765  Biso   1.000  N
  N16      1.0000 0.77568  0.12302  0.60235  Biso   1.000  N
  C1       1.0000 0.06194  0.27270  0.11676  Biso   1.000  C
  C2       1.0000 0.93806  0.27270  0.38324  Biso   1.000  C
  C3       1.0000 0.56194  0.77270  0.11676  Biso   1.000  C
  C4       1.0000 0.43806  0.77270  0.38324  Biso   1.000  C
  C5       1.0000 0.93806  0.72730  0.88324  Biso   1.000  C
  C6       1.0000 0.06194  0.72730  0.61676  Biso   1.000  C
  C7       1.0000 0.43806  0.22730  0.88324  Biso   1.000  C
  C8       1.0000 0.56194  0.22730  0.61676  Biso   1.000  C
  H9       1.0000 0.05830  0.22670  0.15630  Biso   1.000  H
  H10      1.0000 0.94170  0.22670  0.34370  Biso   1.000  H
  H11      1.0000 0.55830  0.72670  0.15630  Biso   1.000  H
  H12      1.0000 0.44170  0.72670  0.34370  Biso   1.000  H
  H13      1.0000 0.94170  0.77330  0.84370  Biso   1.000  H
  H14      1.0000 0.05830  0.77330  0.65630  Biso   1.000  H
  H15      1.0000 0.44170  0.27330  0.84370  Biso   1.000  H
  H16      1.0000 0.55830  0.27330  0.65630  Biso   1.000  H
  C9       1.0000 0.01013  0.28230  0.03689  Biso   1.000  C
  C10      1.0000 0.98987  0.28230  0.46311  Biso   1.000  C
  C11      1.0000 0.51013  0.78230  0.03689  Biso   1.000  C
  C12      1.0000 0.48987  0.78230  0.46311  Biso   1.000  C
  C13      1.0000 0.98987  0.71770  0.96311  Biso   1.000  C
  C14      1.0000 0.01013  0.71770  0.53689  Biso   1.000  C
  C15      1.0000 0.48987  0.21770  0.96311  Biso   1.000  C
  C16      1.0000 0.51013  0.21770  0.53689  Biso   1.000  C
  H17      1.0000 0.97190  0.24220  0.02150  Biso   1.000  H
  H18      1.0000 0.02810  0.24220  0.47850  Biso   1.000  H
  H19      1.0000 0.47190  0.74220  0.02150  Biso   1.000  H
  H20      1.0000 0.52810  0.74220  0.47850  Biso   1.000  H
  H21      1.0000 0.02810  0.75780  0.97850  Biso   1.000  H
  H22      1.0000 0.97190  0.75780  0.52150  Biso   1.000  H
  H23      1.0000 0.52810  0.25780  0.97850  Biso   1.000  H
  H24      1.0000 0.47190  0.25780  0.52150  Biso   1.000  H
  C17      1.0000 0.01550  0.35180  0.98015  Biso   1.000  C
  C18      1.0000 0.98450  0.35180  0.51985  Biso   1.000  C
  C19      1.0000 0.51550  0.85180  0.98015  Biso   1.000  C
  C20      1.0000 0.48450  0.85180  0.51985  Biso   1.000  C
  C21      1.0000 0.98450  0.64820  0.01985  Biso   1.000  C
  C22      1.0000 0.01550  0.64820  0.48015  Biso   1.000  C
  C23      1.0000 0.48450  0.14820  0.01985  Biso   1.000  C
  C24      1.0000 0.51550  0.14820  0.48015  Biso   1.000  C
  H25      1.0000 0.98030  0.36160  0.92570  Biso   1.000  H
  H26      1.0000 0.01970  0.36160  0.57430  Biso   1.000  H
  H27      1.0000 0.48030  0.86160  0.92570  Biso   1.000  H
  H28      1.0000 0.51970  0.86160  0.57430  Biso   1.000  H
  H29      1.0000 0.01970  0.63840  0.07430  Biso   1.000  H
  H30      1.0000 0.98030  0.63840  0.42570  Biso   1.000  H
  H31      1.0000 0.51970  0.13840  0.07430  Biso   1.000  H
  H32      1.0000 0.48030  0.13840  0.42570  Biso   1.000  H
  C25      1.0000 0.07289  0.40730  0.00343  Biso   1.000  C
  C26      1.0000 0.92711  0.40730  0.49657  Biso   1.000  C
  C27      1.0000 0.57289  0.90730  0.00343  Biso   1.000  C
  C28      1.0000 0.42711  0.90730  0.49657  Biso   1.000  C
  C29      1.0000 0.92711  0.59270  0.99657  Biso   1.000  C
  C30      1.0000 0.07289  0.59270  0.50343  Biso   1.000  C
  C31      1.0000 0.42711  0.09270  0.99657  Biso   1.000  C
  C32      1.0000 0.57289  0.09270  0.50343  Biso   1.000  C
  H33      1.0000 0.07710  0.45390  0.96460  Biso   1.000  H
  H34      1.0000 0.92290  0.45390  0.53540  Biso   1.000  H
  H35      1.0000 0.57710  0.95390  0.96460  Biso   1.000  H
  H36      1.0000 0.42290  0.95390  0.53540  Biso   1.000  H
  H37      1.0000 0.92290  0.54610  0.03540  Biso   1.000  H
  H38      1.0000 0.07710  0.54610  0.46460  Biso   1.000  H
  H39      1.0000 0.42290  0.04610  0.03540  Biso   1.000  H
  H40      1.0000 0.57710  0.04610  0.46460  Biso   1.000  H
  C33      1.0000 0.12429  0.39350  0.08487  Biso   1.000  C
  C34      1.0000 0.87571  0.39350  0.41513  Biso   1.000  C
  C35      1.0000 0.62429  0.89350  0.08487  Biso   1.000  C
  C36      1.0000 0.37571  0.89350  0.41513  Biso   1.000  C
  C37      1.0000 0.87571  0.60650  0.91513  Biso   1.000  C
  C38      1.0000 0.12429  0.60650  0.58487  Biso   1.000  C
  C39      1.0000 0.37571  0.10650  0.91513  Biso   1.000  C
  C40      1.0000 0.62429  0.10650  0.58487  Biso   1.000  C
  C41      1.0000 0.18897  0.45836  0.11862  Biso   1.000  C
  C42      1.0000 0.81103  0.45836  0.38138  Biso   1.000  C
  C43      1.0000 0.68897  0.95836  0.11862  Biso   1.000  C
  C44      1.0000 0.31103  0.95836  0.38138  Biso   1.000  C
  C45      1.0000 0.81103  0.54164  0.88138  Biso   1.000  C
  C46      1.0000 0.18897  0.54164  0.61862  Biso   1.000  C
  C47      1.0000 0.31103  0.04164  0.88138  Biso   1.000  C
  C48      1.0000 0.68897  0.04164  0.61862  Biso   1.000  C
  C49      1.0000 0.22029  0.43639  0.06414  Biso   1.000  C
  C50      1.0000 0.77971  0.43639  0.43586  Biso   1.000  C
  C51      1.0000 0.72029  0.93639  0.06414  Biso   1.000  C
  C52      1.0000 0.27971  0.93639  0.43586  Biso   1.000  C
  C53      1.0000 0.77971  0.56361  0.93586  Biso   1.000  C
  C54      1.0000 0.22029  0.56361  0.56414  Biso   1.000  C
  C55      1.0000 0.27971  0.06361  0.93586  Biso   1.000  C
  C56      1.0000 0.72029  0.06361  0.56414  Biso   1.000  C
  C57      1.0000 0.19530  0.47720  0.98223  Biso   1.000  C
  C58      1.0000 0.80470  0.47720  0.51777  Biso   1.000  C
  C59      1.0000 0.69530  0.97720  0.98223  Biso   1.000  C
  C60      1.0000 0.30470  0.97720  0.51777  Biso   1.000  C
  C61      1.0000 0.80470  0.52280  0.01777  Biso   1.000  C
  C62      1.0000 0.19530  0.52280  0.48223  Biso   1.000  C
  C63      1.0000 0.30470  0.02280  0.01777  Biso   1.000  C
  C64      1.0000 0.69530  0.02280  0.48223  Biso   1.000  C
  H41      1.0000 0.15850  0.52380  0.95780  Biso   1.000  H
  H42      1.0000 0.84150  0.52380  0.54220  Biso   1.000  H
  H43      1.0000 0.65850  0.02380  0.95780  Biso   1.000  H
  H44      1.0000 0.34150  0.02380  0.54220  Biso   1.000  H
  H45      1.0000 0.84150  0.47620  0.04220  Biso   1.000  H
  H46      1.0000 0.15850  0.47620  0.45780  Biso   1.000  H
  H47      1.0000 0.34150  0.97620  0.04220  Biso   1.000  H
  H48      1.0000 0.65850  0.97620  0.45780  Biso   1.000  H
  C65      1.0000 0.22571  0.44770  0.93705  Biso   1.000  C
  C66      1.0000 0.77429  0.44770  0.56295  Biso   1.000  C
  C67      1.0000 0.72571  0.94770  0.93705  Biso   1.000  C
  C68      1.0000 0.27429  0.94770  0.56295  Biso   1.000  C
  C69      1.0000 0.77429  0.55230  0.06295  Biso   1.000  C
  C70      1.0000 0.22571  0.55230  0.43705  Biso   1.000  C
  C71      1.0000 0.27429  0.05230  0.06295  Biso   1.000  C
  C72      1.0000 0.72571  0.05230  0.43705  Biso   1.000  C
  H49      1.0000 0.20880  0.47240  0.88110  Biso   1.000  H
  H50      1.0000 0.79120  0.47240  0.61890  Biso   1.000  H
  H51      1.0000 0.70880  0.97240  0.88110  Biso   1.000  H
  H52      1.0000 0.29120  0.97240  0.61890  Biso   1.000  H
  H53      1.0000 0.79120  0.52760  0.11890  Biso   1.000  H
  H54      1.0000 0.20880  0.52760  0.38110  Biso   1.000  H
  H55      1.0000 0.29120  0.02760  0.11890  Biso   1.000  H
  H56      1.0000 0.70880  0.02760  0.38110  Biso   1.000  H
  C73      1.0000 0.28095  0.38170  0.97506  Biso   1.000  C
  C74      1.0000 0.71905  0.38170  0.52494  Biso   1.000  C
  C75      1.0000 0.78095  0.88170  0.97506  Biso   1.000  C
  C76      1.0000 0.21905  0.88170  0.52494  Biso   1.000  C
  C77      1.0000 0.71905  0.61830  0.02494  Biso   1.000  C
  C78      1.0000 0.28095  0.61830  0.47506  Biso   1.000  C
  C79      1.0000 0.21905  0.11830  0.02494  Biso   1.000  C
  C80      1.0000 0.78095  0.11830  0.47506  Biso   1.000  C
  H57      1.0000 0.30120  0.35890  0.94490  Biso   1.000  H
  H58      1.0000 0.69880  0.35890  0.55510  Biso   1.000  H
  H59      1.0000 0.80120  0.85890  0.94490  Biso   1.000  H
  H60      1.0000 0.19880  0.85890  0.55510  Biso   1.000  H
  H61      1.0000 0.69880  0.64110  0.05510  Biso   1.000  H
  H62      1.0000 0.30120  0.64110  0.44490  Biso   1.000  H
  H63      1.0000 0.19880  0.14110  0.05510  Biso   1.000  H
  H64      1.0000 0.80120  0.14110  0.44490  Biso   1.000  H
  C81      1.0000 0.30579  0.35010  0.05844  Biso   1.000  C
  C82      1.0000 0.69421  0.35010  0.44156  Biso   1.000  C
  C83      1.0000 0.80579  0.85010  0.05844  Biso   1.000  C
  C84      1.0000 0.19421  0.85010  0.44156  Biso   1.000  C
  C85      1.0000 0.69421  0.64990  0.94156  Biso   1.000  C
  C86      1.0000 0.30579  0.64990  0.55844  Biso   1.000  C
  C87      1.0000 0.19421  0.14990  0.94156  Biso   1.000  C
  C88      1.0000 0.80579  0.14990  0.55844  Biso   1.000  C
  H65      1.0000 0.34450  0.30900  0.08550  Biso   1.000  H
  H66      1.0000 0.65550  0.30900  0.41450  Biso   1.000  H
  H67      1.0000 0.84450  0.80900  0.08550  Biso   1.000  H
  H68      1.0000 0.15550  0.80900  0.41450  Biso   1.000  H
  H69      1.0000 0.65550  0.69100  0.91450  Biso   1.000  H
  H70      1.0000 0.34450  0.69100  0.58550  Biso   1.000  H
  H71      1.0000 0.15550  0.19100  0.91450  Biso   1.000  H
  H72      1.0000 0.84450  0.19100  0.58550  Biso   1.000  H
  C89      1.0000 0.12112  0.10503  0.37459  Biso   1.000  C
  C90      1.0000 0.87888  0.10503  0.12541  Biso   1.000  C
  C91      1.0000 0.62112  0.60503  0.37459  Biso   1.000  C
  C92      1.0000 0.37888  0.60503  0.12541  Biso   1.000  C
  C93      1.0000 0.87888  0.89497  0.62541  Biso   1.000  C
  C94      1.0000 0.12112  0.89497  0.87459  Biso   1.000  C
  C95      1.0000 0.37888  0.39497  0.62541  Biso   1.000  C
  C96      1.0000 0.62112  0.39497  0.87459  Biso   1.000  C
  C97      1.0000 0.07211  0.02310  0.34897  Biso   1.000  C
  C98      1.0000 0.92789  0.02310  0.15103  Biso   1.000  C
  C99      1.0000 0.57211  0.52310  0.34897  Biso   1.000  C
  C100     1.0000 0.42789  0.52310  0.15103  Biso   1.000  C
  C101     1.0000 0.92789  0.97690  0.65103  Biso   1.000  C
  C102     1.0000 0.07211  0.97690  0.84897  Biso   1.000  C
  C103     1.0000 0.42789  0.47690  0.65103  Biso   1.000  C
  C104     1.0000 0.57211  0.47690  0.84897  Biso   1.000  C
  H73      1.0000 0.05350  0.99180  0.29450  Biso   1.000  H
  H74      1.0000 0.94650  0.99180  0.20550  Biso   1.000  H
  H75      1.0000 0.55350  0.49180  0.29450  Biso   1.000  H
  H76      1.0000 0.44650  0.49180  0.20550  Biso   1.000  H
  H77      1.0000 0.94650  0.00820  0.70550  Biso   1.000  H
  H78      1.0000 0.05350  0.00820  0.79450  Biso   1.000  H
  H79      1.0000 0.44650  0.50820  0.70550  Biso   1.000  H
  H80      1.0000 0.55350  0.50820  0.79450  Biso   1.000  H
  C105     1.0000 0.05065  0.98740  0.40339  Biso   1.000  C
  C106     1.0000 0.94935  0.98740  0.09661  Biso   1.000  C
  C107     1.0000 0.55065  0.48740  0.40339  Biso   1.000  C
  C108     1.0000 0.44935  0.48740  0.09661  Biso   1.000  C
  C109     1.0000 0.94935  0.01260  0.59661  Biso   1.000  C
  C110     1.0000 0.05065  0.01260  0.90339  Biso   1.000  C
  C111     1.0000 0.44935  0.51260  0.59661  Biso   1.000  C
  C112     1.0000 0.55065  0.51260  0.90339  Biso   1.000  C
  H81      1.0000 0.01560  0.93710  0.38420  Biso   1.000  H
  H82      1.0000 0.98440  0.93710  0.11580  Biso   1.000  H
  H83      1.0000 0.51560  0.43710  0.38420  Biso   1.000  H
  H84      1.0000 0.48440  0.43710  0.11580  Biso   1.000  H
  H85      1.0000 0.98440  0.06290  0.61580  Biso   1.000  H
  H86      1.0000 0.01560  0.06290  0.88420  Biso   1.000  H
  H87      1.0000 0.48440  0.56290  0.61580  Biso   1.000  H
  H88      1.0000 0.51560  0.56290  0.88420  Biso   1.000  H
  C113     1.0000 0.08144  0.02680  0.48632  Biso   1.000  C
  C114     1.0000 0.91856  0.02680  0.01368  Biso   1.000  C
  C115     1.0000 0.58144  0.52680  0.48632  Biso   1.000  C
  C116     1.0000 0.41856  0.52680  0.01368  Biso   1.000  C
  C117     1.0000 0.91856  0.97320  0.51368  Biso   1.000  C
  C118     1.0000 0.08144  0.97320  0.98632  Biso   1.000  C
  C119     1.0000 0.41856  0.47320  0.51368  Biso   1.000  C
  C120     1.0000 0.58144  0.47320  0.98632  Biso   1.000  C
  H89      1.0000 0.06750  0.00200  0.52330  Biso   1.000  H
  H90      1.0000 0.93250  0.00200  0.97670  Biso   1.000  H
  H91      1.0000 0.56750  0.50200  0.52330  Biso   1.000  H
  H92      1.0000 0.43250  0.50200  0.97670  Biso   1.000  H
  H93      1.0000 0.93250  0.99800  0.47670  Biso   1.000  H
  H94      1.0000 0.06750  0.99800  0.02330  Biso   1.000  H
  H95      1.0000 0.43250  0.49800  0.47670  Biso   1.000  H
  H96      1.0000 0.56750  0.49800  0.02330  Biso   1.000  H
  C121     1.0000 0.13326  0.10344  0.51455  Biso   1.000  C
  C122     1.0000 0.86674  0.10344  0.98545  Biso   1.000  C
  C123     1.0000 0.63326  0.60344  0.51455  Biso   1.000  C
  C124     1.0000 0.36674  0.60344  0.98545  Biso   1.000  C
  C125     1.0000 0.86674  0.89656  0.48545  Biso   1.000  C
  C126     1.0000 0.13326  0.89656  0.01455  Biso   1.000  C
  C127     1.0000 0.36674  0.39656  0.48545  Biso   1.000  C
  C128     1.0000 0.63326  0.39656  0.01455  Biso   1.000  C
  C129     1.0000 0.15180  0.14560  0.45784  Biso   1.000  C
  C130     1.0000 0.84820  0.14560  0.04216  Biso   1.000  C
  C131     1.0000 0.65180  0.64560  0.45784  Biso   1.000  C
  C132     1.0000 0.34820  0.64560  0.04216  Biso   1.000  C
  C133     1.0000 0.84820  0.85440  0.54216  Biso   1.000  C
  C134     1.0000 0.15180  0.85440  0.95784  Biso   1.000  C
  C135     1.0000 0.34820  0.35440  0.54216  Biso   1.000  C
  C136     1.0000 0.65180  0.35440  0.95784  Biso   1.000  C
  H97      1.0000 0.18460  0.20070  0.47560  Biso   1.000  H
  H98      1.0000 0.81540  0.20070  0.02440  Biso   1.000  H
  H99      1.0000 0.68460  0.70070  0.47560  Biso   1.000  H
  H100     1.0000 0.31540  0.70070  0.02440  Biso   1.000  H
  H101     1.0000 0.81540  0.79930  0.52440  Biso   1.000  H
  H102     1.0000 0.18460  0.79930  0.97560  Biso   1.000  H
  H103     1.0000 0.31540  0.29930  0.52440  Biso   1.000  H
  H104     1.0000 0.68460  0.29930  0.97560  Biso   1.000  H
  C137     1.0000 0.14279  0.14164  0.31293  Biso   1.000  C
  C138     1.0000 0.85721  0.14164  0.18707  Biso   1.000  C
  C139     1.0000 0.64279  0.64164  0.31293  Biso   1.000  C
  C140     1.0000 0.35721  0.64164  0.18707  Biso   1.000  C
  C141     1.0000 0.85721  0.85836  0.68707  Biso   1.000  C
  C142     1.0000 0.14279  0.85836  0.81293  Biso   1.000  C
  C143     1.0000 0.35721  0.35836  0.68707  Biso   1.000  C
  C144     1.0000 0.64279  0.35836  0.81293  Biso   1.000  C
  C145     1.0000 0.17224  0.13235  0.60719  Biso   1.000  C
  C146     1.0000 0.82776  0.13235  0.89281  Biso   1.000  C
  C147     1.0000 0.67224  0.63235  0.60719  Biso   1.000  C
  C148     1.0000 0.32776  0.63235  0.89281  Biso   1.000  C
  C149     1.0000 0.82776  0.86765  0.39281  Biso   1.000  C
  C150     1.0000 0.17224  0.86765  0.10719  Biso   1.000  C
  C151     1.0000 0.32776  0.36765  0.39281  Biso   1.000  C
  C152     1.0000 0.67224  0.36765  0.10719  Biso   1.000  C
  C153     1.0000 0.44998  0.11800  0.25168  Biso   1.000  C
  C154     1.0000 0.55002  0.11800  0.24832  Biso   1.000  C
  C155     1.0000 0.94998  0.61800  0.25168  Biso   1.000  C
  C156     1.0000 0.05002  0.61800  0.24832  Biso   1.000  C
  C157     1.0000 0.55002  0.88200  0.74832  Biso   1.000  C
  C158     1.0000 0.44998  0.88200  0.75168  Biso   1.000  C
  C159     1.0000 0.05002  0.38200  0.74832  Biso   1.000  C
  C160     1.0000 0.94998  0.38200  0.75168  Biso   1.000  C
  C161     1.0000 0.45035  0.99770  0.25126  Biso   1.000  C
  C162     1.0000 0.54965  0.99770  0.24874  Biso   1.000  C
  C163     1.0000 0.95035  0.49770  0.25126  Biso   1.000  C
  C164     1.0000 0.04965  0.49770  0.24874  Biso   1.000  C
  C165     1.0000 0.54965  0.00230  0.74874  Biso   1.000  C
  C166     1.0000 0.45035  0.00230  0.75126  Biso   1.000  C
  C167     1.0000 0.04965  0.50230  0.74874  Biso   1.000  C
  C168     1.0000 0.95035  0.50230  0.75126  Biso   1.000  C
  H105     1.0000 0.41690  0.95690  0.25180  Biso   1.000  H
  H106     1.0000 0.58310  0.95690  0.24820  Biso   1.000  H
  H107     1.0000 0.91690  0.45690  0.25180  Biso   1.000  H
  H108     1.0000 0.08310  0.45690  0.24820  Biso   1.000  H
  H109     1.0000 0.58310  0.04310  0.74820  Biso   1.000  H
  H110     1.0000 0.41690  0.04310  0.75180  Biso   1.000  H
  H111     1.0000 0.08310  0.54310  0.74820  Biso   1.000  H
  H112     1.0000 0.91690  0.54310  0.75180  Biso   1.000  H
  C169     1.0000 0.50000  0.93840  0.25000  Biso   1.000  C
  C170     1.0000 0.00000  0.43840  0.25000  Biso   1.000  C
  C171     1.0000 0.50000  0.06160  0.75000  Biso   1.000  C
  C172     1.0000 0.00000  0.56160  0.75000  Biso   1.000  C
  H113     1.0000 0.50000  0.85760  0.25000  Biso   1.000  H
  H114     1.0000 0.00000  0.35760  0.25000  Biso   1.000  H
  H115     1.0000 0.50000  0.14240  0.75000  Biso   1.000  H
  H116     1.0000 0.00000  0.64240  0.75000  Biso   1.000  H
  C173     1.0000 0.50000  0.17740  0.25000  Biso   1.000  C
  C174     1.0000 0.00000  0.67740  0.25000  Biso   1.000  C
  C175     1.0000 0.50000  0.82260  0.75000  Biso   1.000  C
  C176     1.0000 0.00000  0.32260  0.75000  Biso   1.000  C
  H117     1.0000 0.50000  0.25820  0.25000  Biso   1.000  H
  H118     1.0000 0.00000  0.75820  0.25000  Biso   1.000  H
  H119     1.0000 0.50000  0.74180  0.75000  Biso   1.000  H
  H120     1.0000 0.00000  0.24180  0.75000  Biso   1.000  H
  C177     1.0000 0.39567  0.18140  0.25344  Biso   1.000  C
  C178     1.0000 0.60433  0.18140  0.24656  Biso   1.000  C
  C179     1.0000 0.89567  0.68140  0.25344  Biso   1.000  C
  C180     1.0000 0.10433  0.68140  0.24656  Biso   1.000  C
  C181     1.0000 0.60433  0.81860  0.74656  Biso   1.000  C
  C182     1.0000 0.39567  0.81860  0.75344  Biso   1.000  C
  C183     1.0000 0.10433  0.31860  0.74656  Biso   1.000  C
  C184     1.0000 0.89567  0.31860  0.75344  Biso   1.000  C
  H121     1.0000 0.25310  0.13700  0.22000  Biso   1.000  H
  H122     1.0000 0.74690  0.13700  0.28000  Biso   1.000  H
  H123     1.0000 0.75310  0.63700  0.22000  Biso   1.000  H
  H124     1.0000 0.24690  0.63700  0.28000  Biso   1.000  H
  H125     1.0000 0.74690  0.86300  0.78000  Biso   1.000  H
  H126     1.0000 0.25310  0.86300  0.72000  Biso   1.000  H
  H127     1.0000 0.24690  0.36300  0.78000  Biso   1.000  H
  H128     1.0000 0.75310  0.36300  0.72000  Biso   1.000  H
  H129     1.0000 0.20190  0.10700  0.21200  Biso   1.000  H
  H130     1.0000 0.79810  0.10700  0.28800  Biso   1.000  H
  H131     1.0000 0.70190  0.60700  0.21200  Biso   1.000  H
  H132     1.0000 0.29810  0.60700  0.28800  Biso   1.000  H
  H133     1.0000 0.79810  0.89300  0.78800  Biso   1.000  H
  H134     1.0000 0.20190  0.89300  0.71200  Biso   1.000  H
  H135     1.0000 0.29810  0.39300  0.78800  Biso   1.000  H
  H136     1.0000 0.70190  0.39300  0.71200  Biso   1.000  H
