data_image0
_cell_length_a       10.208
_cell_length_b       16.333
_cell_length_c       27.106
_cell_angle_alpha    90
_cell_angle_beta     94.515
_cell_angle_gamma    90

_symmetry_space_group_name_H-M    "P 1"
_symmetry_int_tables_number       1

loop_
  _symmetry_equiv_pos_as_xyz
  'x, y, z'

loop_
  _atom_site_label
  _atom_site_occupancy
  _atom_site_fract_x
  _atom_site_fract_y
  _atom_site_fract_z
  _atom_site_thermal_displace_type
  _atom_site_B_iso_or_equiv
  _atom_site_type_symbol
  C1       1.0000 0.63700  0.72320  0.41700  Biso   1.000  C
  C2       1.0000 0.36300  0.22320  0.08300  Biso   1.000  C
  C3       1.0000 0.36300  0.27680  0.58300  Biso   1.000  C
  C4       1.0000 0.63700  0.77680  0.91700  Biso   1.000  C
  H1       1.0000 0.71640  0.73360  0.43510  Biso   1.000  H
  H2       1.0000 0.28360  0.23360  0.06490  Biso   1.000  H
  H3       1.0000 0.28360  0.26640  0.56490  Biso   1.000  H
  H4       1.0000 0.71640  0.76640  0.93510  Biso   1.000  H
  C5       1.0000 0.55550  0.66440  0.43350  Biso   1.000  C
  C6       1.0000 0.44450  0.16440  0.06650  Biso   1.000  C
  C7       1.0000 0.44450  0.33560  0.56650  Biso   1.000  C
  C8       1.0000 0.55550  0.83560  0.93350  Biso   1.000  C
  H5       1.0000 0.57710  0.63630  0.46280  Biso   1.000  H
  H6       1.0000 0.42290  0.13630  0.03720  Biso   1.000  H
  H7       1.0000 0.42290  0.36370  0.53720  Biso   1.000  H
  H8       1.0000 0.57710  0.86370  0.96280  Biso   1.000  H
  C9       1.0000 0.43980  0.64800  0.40490  Biso   1.000  C
  C10      1.0000 0.56020  0.14800  0.09510  Biso   1.000  C
  C11      1.0000 0.56020  0.35200  0.59510  Biso   1.000  C
  C12      1.0000 0.43980  0.85200  0.90490  Biso   1.000  C
  H9       1.0000 0.38330  0.60750  0.41470  Biso   1.000  H
  H10      1.0000 0.61670  0.10750  0.08530  Biso   1.000  H
  H11      1.0000 0.61670  0.39250  0.58530  Biso   1.000  H
  H12      1.0000 0.38330  0.89250  0.91470  Biso   1.000  H
  C13      1.0000 0.40870  0.69130  0.36260  Biso   1.000  C
  C14      1.0000 0.59130  0.19130  0.13740  Biso   1.000  C
  C15      1.0000 0.59130  0.30870  0.63740  Biso   1.000  C
  C16      1.0000 0.40870  0.80870  0.86260  Biso   1.000  C
  H13      1.0000 0.33080  0.68100  0.34340  Biso   1.000  H
  H14      1.0000 0.66920  0.18100  0.15660  Biso   1.000  H
  H15      1.0000 0.66920  0.31900  0.65660  Biso   1.000  H
  H16      1.0000 0.33080  0.81900  0.84340  Biso   1.000  H
  C17      1.0000 0.49480  0.75070  0.34844  Biso   1.000  C
  C18      1.0000 0.50520  0.25070  0.15156  Biso   1.000  C
  C19      1.0000 0.50520  0.24930  0.65156  Biso   1.000  C
  C20      1.0000 0.49480  0.74930  0.84844  Biso   1.000  C
  C21      1.0000 0.47480  0.79910  0.29966  Biso   1.000  C
  C22      1.0000 0.52520  0.29910  0.20034  Biso   1.000  C
  C23      1.0000 0.52520  0.20090  0.70034  Biso   1.000  C
  C24      1.0000 0.47480  0.70090  0.79966  Biso   1.000  C
  C25      1.0000 0.33620  0.83320  0.29160  Biso   1.000  C
  C26      1.0000 0.66380  0.33320  0.20840  Biso   1.000  C
  C27      1.0000 0.66380  0.16680  0.70840  Biso   1.000  C
  C28      1.0000 0.33620  0.66680  0.79160  Biso   1.000  C
  C29      1.0000 0.22890  0.78750  0.27370  Biso   1.000  C
  C30      1.0000 0.77110  0.28750  0.22630  Biso   1.000  C
  C31      1.0000 0.77110  0.21250  0.72630  Biso   1.000  C
  C32      1.0000 0.22890  0.71250  0.77370  Biso   1.000  C
  H17      1.0000 0.23890  0.73400  0.26280  Biso   1.000  H
  H18      1.0000 0.76110  0.23400  0.23720  Biso   1.000  H
  H19      1.0000 0.76110  0.26600  0.73720  Biso   1.000  H
  H20      1.0000 0.23890  0.76600  0.76280  Biso   1.000  H
  C33      1.0000 0.10610  0.82370  0.27240  Biso   1.000  C
  C34      1.0000 0.89390  0.32370  0.22760  Biso   1.000  C
  C35      1.0000 0.89390  0.17630  0.72760  Biso   1.000  C
  C36      1.0000 0.10610  0.67630  0.77240  Biso   1.000  C
  H21      1.0000 0.03210  0.79570  0.25930  Biso   1.000  H
  H22      1.0000 0.96790  0.29570  0.24070  Biso   1.000  H
  H23      1.0000 0.96790  0.20430  0.74070  Biso   1.000  H
  H24      1.0000 0.03210  0.70430  0.75930  Biso   1.000  H
  C37      1.0000 0.09490  0.90190  0.29100  Biso   1.000  C
  C38      1.0000 0.90510  0.40190  0.20900  Biso   1.000  C
  C39      1.0000 0.90510  0.09810  0.70900  Biso   1.000  C
  C40      1.0000 0.09490  0.59810  0.79100  Biso   1.000  C
  H25      1.0000 0.01230  0.92510  0.29310  Biso   1.000  H
  H26      1.0000 0.98770  0.42510  0.20690  Biso   1.000  H
  H27      1.0000 0.98770  0.07490  0.70690  Biso   1.000  H
  H28      1.0000 0.01230  0.57490  0.79310  Biso   1.000  H
  C41      1.0000 0.20620  0.94540  0.30620  Biso   1.000  C
  C42      1.0000 0.79380  0.44540  0.19380  Biso   1.000  C
  C43      1.0000 0.79380  0.05460  0.69380  Biso   1.000  C
  C44      1.0000 0.20620  0.55460  0.80620  Biso   1.000  C
  H29      1.0000 0.19850  0.99880  0.31750  Biso   1.000  H
  H30      1.0000 0.80150  0.49880  0.18250  Biso   1.000  H
  H31      1.0000 0.80150  0.00120  0.68250  Biso   1.000  H
  H32      1.0000 0.19850  0.50120  0.81750  Biso   1.000  H
  C45      1.0000 0.52990  0.46260  0.32690  Biso   1.000  C
  C46      1.0000 0.47010  0.96260  0.17310  Biso   1.000  C
  C47      1.0000 0.47010  0.53740  0.67310  Biso   1.000  C
  C48      1.0000 0.52990  0.03740  0.82690  Biso   1.000  C
  H33      1.0000 0.46300  0.49710  0.31420  Biso   1.000  H
  H34      1.0000 0.53700  0.99710  0.18580  Biso   1.000  H
  H35      1.0000 0.53700  0.50290  0.68580  Biso   1.000  H
  H36      1.0000 0.46300  0.00290  0.81420  Biso   1.000  H
  C49      1.0000 0.65350  0.49300  0.33450  Biso   1.000  C
  C50      1.0000 0.34650  0.99300  0.16550  Biso   1.000  C
  C51      1.0000 0.34650  0.50700  0.66550  Biso   1.000  C
  C52      1.0000 0.65350  0.00700  0.83450  Biso   1.000  C
  H37      1.0000 0.67100  0.54800  0.32910  Biso   1.000  H
  H38      1.0000 0.32900  0.04800  0.17090  Biso   1.000  H
  H39      1.0000 0.32900  0.45200  0.67090  Biso   1.000  H
  H40      1.0000 0.67100  0.95200  0.82910  Biso   1.000  H
  C53      1.0000 0.75210  0.43980  0.35060  Biso   1.000  C
  C54      1.0000 0.24790  0.93980  0.14940  Biso   1.000  C
  C55      1.0000 0.24790  0.56020  0.64940  Biso   1.000  C
  C56      1.0000 0.75210  0.06020  0.85060  Biso   1.000  C
  H41      1.0000 0.83880  0.45790  0.35390  Biso   1.000  H
  H42      1.0000 0.16120  0.95790  0.14610  Biso   1.000  H
  H43      1.0000 0.16120  0.54210  0.64610  Biso   1.000  H
  H44      1.0000 0.83880  0.04210  0.85390  Biso   1.000  H
  C57      1.0000 0.72340  0.35930  0.36190  Biso   1.000  C
  C58      1.0000 0.27660  0.85930  0.13810  Biso   1.000  C
  C59      1.0000 0.27660  0.64070  0.63810  Biso   1.000  C
  C60      1.0000 0.72340  0.14070  0.86190  Biso   1.000  C
  H45      1.0000 0.78930  0.32370  0.37410  Biso   1.000  H
  H46      1.0000 0.21070  0.82370  0.12590  Biso   1.000  H
  H47      1.0000 0.21070  0.67630  0.62590  Biso   1.000  H
  H48      1.0000 0.78930  0.17630  0.87410  Biso   1.000  H
  C61      1.0000 0.59590  0.33350  0.35472  Biso   1.000  C
  C62      1.0000 0.40410  0.83350  0.14528  Biso   1.000  C
  C63      1.0000 0.40410  0.66650  0.64528  Biso   1.000  C
  C64      1.0000 0.59590  0.16650  0.85472  Biso   1.000  C
  C65      1.0000 0.55550  0.24400  0.36228  Biso   1.000  C
  C66      1.0000 0.44450  0.74400  0.13772  Biso   1.000  C
  C67      1.0000 0.44450  0.75600  0.63772  Biso   1.000  C
  C68      1.0000 0.55550  0.25600  0.86228  Biso   1.000  C
  C69      1.0000 0.59360  0.21030  0.41386  Biso   1.000  C
  C70      1.0000 0.40640  0.71030  0.08614  Biso   1.000  C
  C71      1.0000 0.40640  0.78970  0.58614  Biso   1.000  C
  C72      1.0000 0.59360  0.28970  0.91386  Biso   1.000  C
  C73      1.0000 0.72200  0.19290  0.43080  Biso   1.000  C
  C74      1.0000 0.27800  0.69290  0.06920  Biso   1.000  C
  C75      1.0000 0.27800  0.80710  0.56920  Biso   1.000  C
  C76      1.0000 0.72200  0.30710  0.93080  Biso   1.000  C
  H49      1.0000 0.79070  0.20360  0.41120  Biso   1.000  H
  H50      1.0000 0.20930  0.70360  0.08880  Biso   1.000  H
  H51      1.0000 0.20930  0.79640  0.58880  Biso   1.000  H
  H52      1.0000 0.79070  0.29640  0.91120  Biso   1.000  H
  C77      1.0000 0.74630  0.15900  0.47800  Biso   1.000  C
  C78      1.0000 0.25370  0.65900  0.02200  Biso   1.000  C
  C79      1.0000 0.25370  0.84100  0.52200  Biso   1.000  C
  C80      1.0000 0.74630  0.34100  0.97800  Biso   1.000  C
  H53      1.0000 0.83200  0.14740  0.49020  Biso   1.000  H
  H54      1.0000 0.16800  0.64740  0.00980  Biso   1.000  H
  H55      1.0000 0.16800  0.85260  0.50980  Biso   1.000  H
  H56      1.0000 0.83200  0.35260  0.99020  Biso   1.000  H
  C81      1.0000 0.64480  0.14290  0.50570  Biso   1.000  C
  C82      1.0000 0.35520  0.64290  0.99430  Biso   1.000  C
  C83      1.0000 0.35520  0.85710  0.49430  Biso   1.000  C
  C84      1.0000 0.64480  0.35710  0.00570  Biso   1.000  C
  H57      1.0000 0.65930  0.12070  0.53730  Biso   1.000  H
  H58      1.0000 0.34070  0.62070  0.96270  Biso   1.000  H
  H59      1.0000 0.34070  0.87930  0.46270  Biso   1.000  H
  H60      1.0000 0.65930  0.37930  0.03730  Biso   1.000  H
  C85      1.0000 0.52010  0.16030  0.48620  Biso   1.000  C
  C86      1.0000 0.47990  0.66030  0.01380  Biso   1.000  C
  C87      1.0000 0.47990  0.83970  0.51380  Biso   1.000  C
  C88      1.0000 0.52010  0.33970  0.98620  Biso   1.000  C
  H61      1.0000 0.45000  0.14860  0.50500  Biso   1.000  H
  H62      1.0000 0.55000  0.64860  0.99500  Biso   1.000  H
  H63      1.0000 0.55000  0.85140  0.49500  Biso   1.000  H
  H64      1.0000 0.45000  0.35140  0.00500  Biso   1.000  H
  C89      1.0000 0.86610  0.05260  0.26914  Biso   1.000  C
  C90      1.0000 0.13390  0.55260  0.23086  Biso   1.000  C
  C91      1.0000 0.13390  0.94740  0.73086  Biso   1.000  C
  C92      1.0000 0.86610  0.44740  0.76914  Biso   1.000  C
  C93      1.0000 0.88760  0.04640  0.21882  Biso   1.000  C
  C94      1.0000 0.11240  0.54640  0.28118  Biso   1.000  C
  C95      1.0000 0.11240  0.95360  0.78118  Biso   1.000  C
  C96      1.0000 0.88760  0.45360  0.71882  Biso   1.000  C
  C97      1.0000 0.98590  0.09390  0.20079  Biso   1.000  C
  C98      1.0000 0.01410  0.59390  0.29921  Biso   1.000  C
  C99      1.0000 0.01410  0.90610  0.79921  Biso   1.000  C
  C100     1.0000 0.98590  0.40610  0.70079  Biso   1.000  C
  H65      1.0000 0.99860  0.09140  0.16720  Biso   1.000  H
  H66      1.0000 0.00140  0.59140  0.33280  Biso   1.000  H
  H67      1.0000 0.00140  0.90860  0.83280  Biso   1.000  H
  H68      1.0000 0.99860  0.40860  0.66720  Biso   1.000  H
  C101     1.0000 0.06580  0.14500  0.23093  Biso   1.000  C
  C102     1.0000 0.93420  0.64500  0.26907  Biso   1.000  C
  C103     1.0000 0.93420  0.85500  0.76907  Biso   1.000  C
  C104     1.0000 0.06580  0.35500  0.73093  Biso   1.000  C
  C105     1.0000 0.04690  0.14870  0.28150  Biso   1.000  C
  C106     1.0000 0.95310  0.64870  0.21850  Biso   1.000  C
  C107     1.0000 0.95310  0.85130  0.71850  Biso   1.000  C
  C108     1.0000 0.04690  0.35130  0.78150  Biso   1.000  C
  C109     1.0000 0.94710  0.10300  0.29971  Biso   1.000  C
  C110     1.0000 0.05290  0.60300  0.20029  Biso   1.000  C
  C111     1.0000 0.05290  0.89700  0.70029  Biso   1.000  C
  C112     1.0000 0.94710  0.39700  0.79971  Biso   1.000  C
  H69      1.0000 0.93380  0.10600  0.33320  Biso   1.000  H
  H70      1.0000 0.06620  0.60600  0.16680  Biso   1.000  H
  H71      1.0000 0.06620  0.89400  0.66680  Biso   1.000  H
  H72      1.0000 0.93380  0.39400  0.83320  Biso   1.000  H
  C113     1.0000 0.76190  0.00280  0.29218  Biso   1.000  C
  C114     1.0000 0.23810  0.50280  0.20782  Biso   1.000  C
  C115     1.0000 0.23810  0.99720  0.70782  Biso   1.000  C
  C116     1.0000 0.76190  0.49720  0.79218  Biso   1.000  C
  C117     1.0000 0.13740  0.19960  0.31575  Biso   1.000  C
  C118     1.0000 0.86260  0.69960  0.18425  Biso   1.000  C
  C119     1.0000 0.86260  0.80040  0.68425  Biso   1.000  C
  C120     1.0000 0.13740  0.30040  0.81575  Biso   1.000  C
  C121     1.0000 0.81550  0.98420  0.18536  Biso   1.000  C
  C122     1.0000 0.18450  0.48420  0.31464  Biso   1.000  C
  C123     1.0000 0.18450  0.01580  0.81464  Biso   1.000  C
  C124     1.0000 0.81550  0.51580  0.68536  Biso   1.000  C
  C125     1.0000 0.17660  0.19130  0.20942  Biso   1.000  C
  C126     1.0000 0.82340  0.69130  0.29058  Biso   1.000  C
  C127     1.0000 0.82340  0.80870  0.79058  Biso   1.000  C
  C128     1.0000 0.17660  0.30870  0.70942  Biso   1.000  C
  C129     1.0000 0.01500  0.98550  0.45037  Biso   1.000  C
  C130     1.0000 0.98500  0.48550  0.04963  Biso   1.000  C
  C131     1.0000 0.98500  0.01450  0.54963  Biso   1.000  C
  C132     1.0000 0.01500  0.51450  0.95037  Biso   1.000  C
  H73      1.0000 0.02570  0.97580  0.41710  Biso   1.000  H
  H74      1.0000 0.97430  0.47580  0.08290  Biso   1.000  H
  H75      1.0000 0.97430  0.02420  0.58290  Biso   1.000  H
  H76      1.0000 0.02570  0.52420  0.91710  Biso   1.000  H
  C133     1.0000 0.90930  0.95130  0.47177  Biso   1.000  C
  C134     1.0000 0.09070  0.45130  0.02823  Biso   1.000  C
  C135     1.0000 0.09070  0.04870  0.52823  Biso   1.000  C
  C136     1.0000 0.90930  0.54870  0.97177  Biso   1.000  C
  C137     1.0000 0.89440  0.96570  0.52209  Biso   1.000  C
  C138     1.0000 0.10560  0.46570  0.97791  Biso   1.000  C
  C139     1.0000 0.10560  0.03430  0.47791  Biso   1.000  C
  C140     1.0000 0.89440  0.53430  0.02209  Biso   1.000  C
  C141     1.0000 0.80580  0.90920  0.43893  Biso   1.000  C
  C142     1.0000 0.19420  0.40920  0.06107  Biso   1.000  C
  C143     1.0000 0.19420  0.09080  0.56107  Biso   1.000  C
  C144     1.0000 0.80580  0.59080  0.93893  Biso   1.000  C
  C145     1.0000 0.78750  0.92620  0.54867  Biso   1.000  C
  C146     1.0000 0.21250  0.42620  0.95133  Biso   1.000  C
  C147     1.0000 0.21250  0.07380  0.45133  Biso   1.000  C
  C148     1.0000 0.78750  0.57380  0.04867  Biso   1.000  C
  N1       1.0000 0.60600  0.76640  0.37548  Biso   1.000  N
  N2       1.0000 0.39400  0.26640  0.12452  Biso   1.000  N
  N3       1.0000 0.39400  0.23360  0.62452  Biso   1.000  N
  N4       1.0000 0.60600  0.73360  0.87548  Biso   1.000  N
  N5       1.0000 0.32560  0.91190  0.30500  Biso   1.000  N
  N6       1.0000 0.67440  0.41190  0.19500  Biso   1.000  N
  N7       1.0000 0.67440  0.08810  0.69500  Biso   1.000  N
  N8       1.0000 0.32560  0.58810  0.80500  Biso   1.000  N
  N9       1.0000 0.50030  0.38410  0.33698  Biso   1.000  N
  N10      1.0000 0.49970  0.88410  0.16302  Biso   1.000  N
  N11      1.0000 0.49970  0.61590  0.66302  Biso   1.000  N
  N12      1.0000 0.50030  0.11590  0.83698  Biso   1.000  N
  N13      1.0000 0.49440  0.19340  0.44111  Biso   1.000  N
  N14      1.0000 0.50560  0.69340  0.05889  Biso   1.000  N
  N15      1.0000 0.50560  0.80660  0.55889  Biso   1.000  N
  N16      1.0000 0.49440  0.30660  0.94111  Biso   1.000  N
  O1       1.0000 0.56530  0.86316  0.30022  Biso   1.000  O
  O2       1.0000 0.43470  0.36316  0.19978  Biso   1.000  O
  O3       1.0000 0.43470  0.13684  0.69978  Biso   1.000  O
  O4       1.0000 0.56530  0.63684  0.80022  Biso   1.000  O
  O5       1.0000 0.49180  0.74480  0.26036  Biso   1.000  O
  O6       1.0000 0.50820  0.24480  0.23964  Biso   1.000  O
  O7       1.0000 0.50820  0.25520  0.73964  Biso   1.000  O
  O8       1.0000 0.49180  0.75520  0.76036  Biso   1.000  O
  H77      1.0000 0.56590  0.72510  0.26360  Biso   1.000  H
  H78      1.0000 0.43410  0.22510  0.23640  Biso   1.000  H
  H79      1.0000 0.43410  0.27490  0.73640  Biso   1.000  H
  H80      1.0000 0.56590  0.77490  0.76360  Biso   1.000  H
  O9       1.0000 0.41960  0.23636  0.35125  Biso   1.000  O
  O10      1.0000 0.58040  0.73636  0.14875  Biso   1.000  O
  O11      1.0000 0.58040  0.76364  0.64875  Biso   1.000  O
  O12      1.0000 0.41960  0.26364  0.85125  Biso   1.000  O
  O13      1.0000 0.62310  0.19390  0.33048  Biso   1.000  O
  O14      1.0000 0.37690  0.69390  0.16952  Biso   1.000  O
  O15      1.0000 0.37690  0.80610  0.66952  Biso   1.000  O
  O16      1.0000 0.62310  0.30610  0.83048  Biso   1.000  O
  H81      1.0000 0.60720  0.20920  0.30180  Biso   1.000  H
  H82      1.0000 0.39280  0.70920  0.19820  Biso   1.000  H
  H83      1.0000 0.39280  0.79080  0.69820  Biso   1.000  H
  H84      1.0000 0.60720  0.29080  0.80180  Biso   1.000  H
  O17      1.0000 0.64530  0.02560  0.28227  Biso   1.000  O
  O18      1.0000 0.35470  0.52560  0.21773  Biso   1.000  O
  O19      1.0000 0.35470  0.97440  0.71773  Biso   1.000  O
  O20      1.0000 0.64530  0.47440  0.78227  Biso   1.000  O
  O21      1.0000 0.80280  0.94710  0.32067  Biso   1.000  O
  O22      1.0000 0.19720  0.44710  0.17933  Biso   1.000  O
  O23      1.0000 0.19720  0.05290  0.67933  Biso   1.000  O
  O24      1.0000 0.80280  0.55290  0.82067  Biso   1.000  O
  O25      1.0000 0.17930  0.26512  0.29825  Biso   1.000  O
  O26      1.0000 0.82070  0.76512  0.20175  Biso   1.000  O
  O27      1.0000 0.82070  0.73488  0.70175  Biso   1.000  O
  O28      1.0000 0.17930  0.23488  0.79825  Biso   1.000  O
  O29      1.0000 0.16470  0.17230  0.35844  Biso   1.000  O
  O30      1.0000 0.83530  0.67230  0.14156  Biso   1.000  O
  O31      1.0000 0.83530  0.82770  0.64156  Biso   1.000  O
  O32      1.0000 0.16470  0.32770  0.85844  Biso   1.000  O
  O33      1.0000 0.80990  0.99470  0.14010  Biso   1.000  O
  O34      1.0000 0.19010  0.49470  0.35990  Biso   1.000  O
  O35      1.0000 0.19010  0.00530  0.85990  Biso   1.000  O
  O36      1.0000 0.80990  0.50530  0.64010  Biso   1.000  O
  O37      1.0000 0.76040  0.92747  0.20615  Biso   1.000  O
  O38      1.0000 0.23960  0.42747  0.29385  Biso   1.000  O
  O39      1.0000 0.23960  0.07253  0.79385  Biso   1.000  O
  O40      1.0000 0.76040  0.57253  0.70615  Biso   1.000  O
  O41      1.0000 0.14870  0.24970  0.18135  Biso   1.000  O
  O42      1.0000 0.85130  0.74970  0.31865  Biso   1.000  O
  O43      1.0000 0.85130  0.75030  0.81865  Biso   1.000  O
  O44      1.0000 0.14870  0.25030  0.68135  Biso   1.000  O
  O45      1.0000 0.28990  0.16322  0.22127  Biso   1.000  O
  O46      1.0000 0.71010  0.66322  0.27873  Biso   1.000  O
  O47      1.0000 0.71010  0.83678  0.77873  Biso   1.000  O
  O48      1.0000 0.28990  0.33678  0.72127  Biso   1.000  O
  O49      1.0000 0.51340  0.00740  0.38406  Biso   1.000  O
  O50      1.0000 0.48660  0.50740  0.11594  Biso   1.000  O
  O51      1.0000 0.48660  0.99260  0.61594  Biso   1.000  O
  O52      1.0000 0.51340  0.49260  0.88406  Biso   1.000  O
  H85      1.0000 0.58430  0.03920  0.39620  Biso   1.000  H
  H86      1.0000 0.41570  0.53920  0.10380  Biso   1.000  H
  H87      1.0000 0.41570  0.96080  0.60380  Biso   1.000  H
  H88      1.0000 0.58430  0.46080  0.89620  Biso   1.000  H
  H89      1.0000 0.45150  0.99010  0.40520  Biso   1.000  H
  H90      1.0000 0.54850  0.49010  0.09480  Biso   1.000  H
  H91      1.0000 0.54850  0.00990  0.59480  Biso   1.000  H
  H92      1.0000 0.45150  0.50990  0.90520  Biso   1.000  H
  O53      1.0000 0.39730  0.07976  0.29780  Biso   1.000  O
  O54      1.0000 0.60270  0.57976  0.20220  Biso   1.000  O
  O55      1.0000 0.60270  0.92024  0.70220  Biso   1.000  O
  O56      1.0000 0.39730  0.42024  0.79780  Biso   1.000  O
  H93      1.0000 0.44010  0.12550  0.28640  Biso   1.000  H
  H94      1.0000 0.55990  0.62550  0.21360  Biso   1.000  H
  H95      1.0000 0.55990  0.87450  0.71360  Biso   1.000  H
  H96      1.0000 0.44010  0.37450  0.78640  Biso   1.000  H
  H97      1.0000 0.31050  0.08380  0.30560  Biso   1.000  H
  H98      1.0000 0.68950  0.58380  0.19440  Biso   1.000  H
  H99      1.0000 0.68950  0.91620  0.69440  Biso   1.000  H
  H100     1.0000 0.31050  0.41620  0.80560  Biso   1.000  H
  O57      1.0000 0.84560  0.86240  0.40549  Biso   1.000  O
  O58      1.0000 0.15440  0.36240  0.09451  Biso   1.000  O
  O59      1.0000 0.15440  0.13760  0.59451  Biso   1.000  O
  O60      1.0000 0.84560  0.63760  0.90549  Biso   1.000  O
  O61      1.0000 0.69000  0.92470  0.44404  Biso   1.000  O
  O62      1.0000 0.31000  0.42470  0.05596  Biso   1.000  O
  O63      1.0000 0.31000  0.07530  0.55596  Biso   1.000  O
  O64      1.0000 0.69000  0.57530  0.94404  Biso   1.000  O
  O65      1.0000 0.77690  0.84790  0.54369  Biso   1.000  O
  O66      1.0000 0.22310  0.34790  0.95631  Biso   1.000  O
  O67      1.0000 0.22310  0.15210  0.45631  Biso   1.000  O
  O68      1.0000 0.77690  0.65210  0.04369  Biso   1.000  O
  O69      1.0000 0.72360  0.96850  0.57523  Biso   1.000  O
  O70      1.0000 0.27640  0.46850  0.92477  Biso   1.000  O
  O71      1.0000 0.27640  0.03150  0.42477  Biso   1.000  O
  O72      1.0000 0.72360  0.53150  0.07523  Biso   1.000  O
  O73      1.0000 0.25830  0.34310  0.41140  Biso   1.000  O
  O74      1.0000 0.74170  0.84310  0.08860  Biso   1.000  O
  O75      1.0000 0.74170  0.65690  0.58860  Biso   1.000  O
  O76      1.0000 0.25830  0.15690  0.91140  Biso   1.000  O
  H101     1.0000 0.20630  0.33370  0.42640  Biso   1.000  H
  H102     1.0000 0.79370  0.83370  0.07360  Biso   1.000  H
  H103     1.0000 0.79370  0.66630  0.57360  Biso   1.000  H
  H104     1.0000 0.20630  0.16630  0.92640  Biso   1.000  H
  H105     1.0000 0.29410  0.36410  0.42790  Biso   1.000  H
  H106     1.0000 0.70590  0.86410  0.07210  Biso   1.000  H
  H107     1.0000 0.70590  0.63590  0.57210  Biso   1.000  H
  H108     1.0000 0.29410  0.13590  0.92790  Biso   1.000  H
  Cu1      1.0000 0.49188  0.97310  0.30551  Biso   1.000  Cu
  Cu2      1.0000 0.50812  0.47310  0.19449  Biso   1.000  Cu
  Cu3      1.0000 0.50812  0.02690  0.69449  Biso   1.000  Cu
  Cu4      1.0000 0.49188  0.52690  0.80551  Biso   1.000  Cu
  Cu5      1.0000 0.71755  0.85116  0.34788  Biso   1.000  Cu
  Cu6      1.0000 0.28245  0.35116  0.15212  Biso   1.000  Cu
  Cu7      1.0000 0.28245  0.14884  0.65212  Biso   1.000  Cu
  Cu8      1.0000 0.71755  0.64884  0.84788  Biso   1.000  Cu
  Cu9      1.0000 0.32730  0.33208  0.32298  Biso   1.000  Cu
  Cu10     1.0000 0.67270  0.83208  0.17702  Biso   1.000  Cu
  Cu11     1.0000 0.67270  0.66792  0.67702  Biso   1.000  Cu
  Cu12     1.0000 0.32730  0.16792  0.82298  Biso   1.000  Cu
  Cu13     1.0000 0.31992  0.19585  0.40409  Biso   1.000  Cu
  Cu14     1.0000 0.68008  0.69585  0.09591  Biso   1.000  Cu
  Cu15     1.0000 0.68008  0.80415  0.59591  Biso   1.000  Cu
  Cu16     1.0000 0.31992  0.30415  0.90409  Biso   1.000  Cu
  O77      1.0000 0.07120  0.76200  0.39810  Biso   1.000  O
  O78      1.0000 0.92880  0.26200  0.10190  Biso   1.000  O
  O79      1.0000 0.92880  0.23800  0.60190  Biso   1.000  O
  O80      1.0000 0.07120  0.73800  0.89810  Biso   1.000  O
  O81      1.0000 0.02860  0.28310  0.45440  Biso   1.000  O
  O82      1.0000 0.97140  0.78310  0.04560  Biso   1.000  O
  O83      1.0000 0.97140  0.71690  0.54560  Biso   1.000  O
  O84      1.0000 0.02860  0.21690  0.95440  Biso   1.000  O
  O85      1.0000 0.54500  0.55340  0.54540  Biso   1.000  O
  O86      1.0000 0.45500  0.05340  0.95460  Biso   1.000  O
  O87      1.0000 0.45500  0.44660  0.45460  Biso   1.000  O
  O88      1.0000 0.54500  0.94660  0.04540  Biso   1.000  O
  O89      1.0000 0.89900  0.11430  0.06000  Biso   1.000  O
  O90      1.0000 0.10100  0.61430  0.44000  Biso   1.000  O
  O91      1.0000 0.10100  0.88570  0.94000  Biso   1.000  O
  O92      1.0000 0.89900  0.38570  0.56000  Biso   1.000  O
