data_image0
_cell_length_a       13.832
_cell_length_b       13.9122
_cell_length_c       14.6677
_cell_angle_alpha    90
_cell_angle_beta     117.72
_cell_angle_gamma    90

_symmetry_space_group_name_H-M    "P 1"
_symmetry_int_tables_number       1

loop_
  _symmetry_equiv_pos_as_xyz
  'x, y, z'

loop_
  _atom_site_label
  _atom_site_occupancy
  _atom_site_fract_x
  _atom_site_fract_y
  _atom_site_fract_z
  _atom_site_thermal_displace_type
  _atom_site_B_iso_or_equiv
  _atom_site_type_symbol
  C1       1.0000 0.00061  0.69601  0.88005  Biso   1.000  C
  C2       1.0000 0.49939  0.19601  0.61995  Biso   1.000  C
  C3       1.0000 0.99939  0.30399  0.11995  Biso   1.000  C
  C4       1.0000 0.50061  0.80399  0.38005  Biso   1.000  C
  H1       1.0000 0.05100  0.71790  0.85950  Biso   1.000  H
  H2       1.0000 0.44900  0.21790  0.64050  Biso   1.000  H
  H3       1.0000 0.94900  0.28210  0.14050  Biso   1.000  H
  H4       1.0000 0.55100  0.78210  0.35950  Biso   1.000  H
  C5       1.0000 0.94050  0.61019  0.84450  Biso   1.000  C
  C6       1.0000 0.55950  0.11019  0.65550  Biso   1.000  C
  C7       1.0000 0.05950  0.38981  0.15550  Biso   1.000  C
  C8       1.0000 0.44050  0.88981  0.34450  Biso   1.000  C
  H5       1.0000 0.94290  0.56740  0.79680  Biso   1.000  H
  H6       1.0000 0.55710  0.06740  0.70320  Biso   1.000  H
  H7       1.0000 0.05710  0.43260  0.20320  Biso   1.000  H
  H8       1.0000 0.44290  0.93260  0.29680  Biso   1.000  H
  C9       1.0000 0.87820  0.60230  0.89370  Biso   1.000  C
  C10      1.0000 0.62180  0.10230  0.60630  Biso   1.000  C
  C11      1.0000 0.12180  0.39770  0.10630  Biso   1.000  C
  C12      1.0000 0.37820  0.89770  0.39370  Biso   1.000  C
  H9       1.0000 0.83050  0.55240  0.88670  Biso   1.000  H
  H10      1.0000 0.66950  0.05240  0.61330  Biso   1.000  H
  H11      1.0000 0.16950  0.44760  0.11330  Biso   1.000  H
  H12      1.0000 0.33050  0.94760  0.38670  Biso   1.000  H
  C13      1.0000 0.89995  0.68494  0.95802  Biso   1.000  C
  C14      1.0000 0.60005  0.18494  0.54198  Biso   1.000  C
  C15      1.0000 0.10005  0.31506  0.04198  Biso   1.000  C
  C16      1.0000 0.39995  0.81506  0.45802  Biso   1.000  C
  C17      1.0000 0.85299  0.70876  0.02058  Biso   1.000  C
  C18      1.0000 0.64701  0.20876  0.47942  Biso   1.000  C
  C19      1.0000 0.14701  0.29124  0.97942  Biso   1.000  C
  C20      1.0000 0.35299  0.79124  0.52058  Biso   1.000  C
  C21      1.0000 0.86986  0.79416  0.07703  Biso   1.000  C
  C22      1.0000 0.63014  0.29416  0.42297  Biso   1.000  C
  C23      1.0000 0.13014  0.20584  0.92297  Biso   1.000  C
  C24      1.0000 0.36986  0.70584  0.57703  Biso   1.000  C
  C25      1.0000 0.82187  0.82131  0.13921  Biso   1.000  C
  C26      1.0000 0.67813  0.32131  0.36079  Biso   1.000  C
  C27      1.0000 0.17813  0.17869  0.86079  Biso   1.000  C
  C28      1.0000 0.32187  0.67869  0.63921  Biso   1.000  C
  H13      1.0000 0.77020  0.78650  0.14930  Biso   1.000  H
  H14      1.0000 0.72980  0.28650  0.35070  Biso   1.000  H
  H15      1.0000 0.22980  0.21350  0.85070  Biso   1.000  H
  H16      1.0000 0.27020  0.71350  0.64930  Biso   1.000  H
  C29      1.0000 0.86546  0.90876  0.18232  Biso   1.000  C
  C30      1.0000 0.63454  0.40876  0.31768  Biso   1.000  C
  C31      1.0000 0.13454  0.09124  0.81768  Biso   1.000  C
  C32      1.0000 0.36546  0.59124  0.68232  Biso   1.000  C
  H17      1.0000 0.84920  0.94480  0.22680  Biso   1.000  H
  H18      1.0000 0.65080  0.44480  0.27320  Biso   1.000  H
  H19      1.0000 0.15080  0.05520  0.77320  Biso   1.000  H
  H20      1.0000 0.34920  0.55520  0.72680  Biso   1.000  H
  C33      1.0000 0.94000  0.93279  0.14530  Biso   1.000  C
  C34      1.0000 0.56000  0.43279  0.35470  Biso   1.000  C
  C35      1.0000 0.06000  0.06721  0.85470  Biso   1.000  C
  C36      1.0000 0.44000  0.56721  0.64530  Biso   1.000  C
  H21      1.0000 0.98160  0.98870  0.16290  Biso   1.000  H
  H22      1.0000 0.51840  0.48870  0.33710  Biso   1.000  H
  H23      1.0000 0.01840  0.01130  0.83710  Biso   1.000  H
  H24      1.0000 0.48160  0.51130  0.66290  Biso   1.000  H
  C37      1.0000 0.78115  0.63398  0.03167  Biso   1.000  C
  C38      1.0000 0.71885  0.13398  0.46833  Biso   1.000  C
  C39      1.0000 0.21885  0.36602  0.96833  Biso   1.000  C
  C40      1.0000 0.28115  0.86602  0.53167  Biso   1.000  C
  C41      1.0000 0.66980  0.63082  0.97120  Biso   1.000  C
  C42      1.0000 0.83020  0.13082  0.52880  Biso   1.000  C
  C43      1.0000 0.33020  0.36918  0.02880  Biso   1.000  C
  C44      1.0000 0.16980  0.86918  0.47120  Biso   1.000  C
  H25      1.0000 0.63430  0.67850  0.92250  Biso   1.000  H
  H26      1.0000 0.86570  0.17850  0.57750  Biso   1.000  H
  H27      1.0000 0.36570  0.32150  0.07750  Biso   1.000  H
  H28      1.0000 0.13430  0.82150  0.42250  Biso   1.000  H
  C45      1.0000 0.61110  0.55570  0.98360  Biso   1.000  C
  C46      1.0000 0.88890  0.05570  0.51640  Biso   1.000  C
  C47      1.0000 0.38890  0.44430  0.01640  Biso   1.000  C
  C48      1.0000 0.11110  0.94430  0.48360  Biso   1.000  C
  H29      1.0000 0.53610  0.55410  0.94070  Biso   1.000  H
  H30      1.0000 0.96390  0.05410  0.55930  Biso   1.000  H
  H31      1.0000 0.46390  0.44590  0.05930  Biso   1.000  H
  H32      1.0000 0.03610  0.94590  0.44070  Biso   1.000  H
  C49      1.0000 0.76090  0.49160  0.11190  Biso   1.000  C
  C50      1.0000 0.73910  0.99160  0.38810  Biso   1.000  C
  C51      1.0000 0.23910  0.50840  0.88810  Biso   1.000  C
  C52      1.0000 0.26090  0.00840  0.61190  Biso   1.000  C
  H33      1.0000 0.79380  0.44460  0.16200  Biso   1.000  H
  H34      1.0000 0.70620  0.94460  0.33800  Biso   1.000  H
  H35      1.0000 0.20620  0.55540  0.83800  Biso   1.000  H
  H36      1.0000 0.29380  0.05540  0.66200  Biso   1.000  H
  C53      1.0000 0.82630  0.56310  0.10440  Biso   1.000  C
  C54      1.0000 0.67370  0.06310  0.39560  Biso   1.000  C
  C55      1.0000 0.17370  0.43690  0.89560  Biso   1.000  C
  C56      1.0000 0.32630  0.93690  0.60440  Biso   1.000  C
  H37      1.0000 0.90100  0.56300  0.14860  Biso   1.000  H
  H38      1.0000 0.59900  0.06300  0.35140  Biso   1.000  H
  H39      1.0000 0.09900  0.43700  0.85140  Biso   1.000  H
  H40      1.0000 0.40100  0.93700  0.64860  Biso   1.000  H
  C57      1.0000 0.23854  0.89921  0.99893  Biso   1.000  C
  C58      1.0000 0.26146  0.39921  0.50107  Biso   1.000  C
  C59      1.0000 0.76146  0.10079  0.00107  Biso   1.000  C
  C60      1.0000 0.73854  0.60079  0.49893  Biso   1.000  C
  C61      1.0000 0.30885  0.87271  0.95016  Biso   1.000  C
  C62      1.0000 0.19115  0.37271  0.54984  Biso   1.000  C
  C63      1.0000 0.69115  0.12729  0.04984  Biso   1.000  C
  C64      1.0000 0.80885  0.62729  0.45016  Biso   1.000  C
  C65      1.0000 0.32032  0.77654  0.93039  Biso   1.000  C
  C66      1.0000 0.17968  0.27654  0.56961  Biso   1.000  C
  C67      1.0000 0.67968  0.22346  0.06961  Biso   1.000  C
  C68      1.0000 0.82032  0.72346  0.43039  Biso   1.000  C
  H41      1.0000 0.28190  0.72880  0.94430  Biso   1.000  H
  H42      1.0000 0.21810  0.22880  0.55570  Biso   1.000  H
  H43      1.0000 0.71810  0.27120  0.05570  Biso   1.000  H
  H44      1.0000 0.78190  0.77120  0.44430  Biso   1.000  H
  C69      1.0000 0.38960  0.75316  0.88991  Biso   1.000  C
  C70      1.0000 0.11040  0.25316  0.61009  Biso   1.000  C
  C71      1.0000 0.61040  0.24684  0.11009  Biso   1.000  C
  C72      1.0000 0.88960  0.74684  0.38991  Biso   1.000  C
  H45      1.0000 0.39770  0.68850  0.87890  Biso   1.000  H
  H46      1.0000 0.10230  0.18850  0.62110  Biso   1.000  H
  H47      1.0000 0.60230  0.31150  0.12110  Biso   1.000  H
  H48      1.0000 0.89770  0.81150  0.37890  Biso   1.000  H
  C73      1.0000 0.43059  0.90969  0.88155  Biso   1.000  C
  C74      1.0000 0.06941  0.40969  0.61845  Biso   1.000  C
  C75      1.0000 0.56941  0.09031  0.11845  Biso   1.000  C
  C76      1.0000 0.93059  0.59031  0.38155  Biso   1.000  C
  H49      1.0000 0.46640  0.95610  0.86280  Biso   1.000  H
  H50      1.0000 0.03360  0.45610  0.63720  Biso   1.000  H
  H51      1.0000 0.53360  0.04390  0.13720  Biso   1.000  H
  H52      1.0000 0.96640  0.54390  0.36280  Biso   1.000  H
  C77      1.0000 0.36545  0.94069  0.92410  Biso   1.000  C
  C78      1.0000 0.13455  0.44069  0.57590  Biso   1.000  C
  C79      1.0000 0.63455  0.05931  0.07590  Biso   1.000  C
  C80      1.0000 0.86545  0.55931  0.42410  Biso   1.000  C
  H53      1.0000 0.35960  0.00580  0.93510  Biso   1.000  H
  H54      1.0000 0.14040  0.50580  0.56490  Biso   1.000  H
  H55      1.0000 0.64040  0.99420  0.06490  Biso   1.000  H
  H56      1.0000 0.85960  0.49420  0.43510  Biso   1.000  H
  C81      1.0000 0.27139  0.97526  0.06894  Biso   1.000  C
  C82      1.0000 0.22861  0.47526  0.43106  Biso   1.000  C
  C83      1.0000 0.72861  0.02474  0.93106  Biso   1.000  C
  C84      1.0000 0.77139  0.52474  0.56894  Biso   1.000  C
  H57      1.0000 0.33690  0.00590  0.08400  Biso   1.000  H
  H58      1.0000 0.16310  0.50590  0.41600  Biso   1.000  H
  H59      1.0000 0.66310  0.99410  0.91600  Biso   1.000  H
  H60      1.0000 0.83690  0.49410  0.58400  Biso   1.000  H
  C85      1.0000 0.21208  0.00816  0.11769  Biso   1.000  C
  C86      1.0000 0.28792  0.50816  0.38231  Biso   1.000  C
  C87      1.0000 0.78792  0.99184  0.88231  Biso   1.000  C
  C88      1.0000 0.71208  0.49184  0.61769  Biso   1.000  C
  C89      1.0000 0.25542  0.09286  0.18940  Biso   1.000  C
  C90      1.0000 0.24458  0.59286  0.31060  Biso   1.000  C
  C91      1.0000 0.74458  0.90714  0.81060  Biso   1.000  C
  C92      1.0000 0.75542  0.40714  0.68940  Biso   1.000  C
  C93      1.0000 0.33544  0.15324  0.18976  Biso   1.000  C
  C94      1.0000 0.16456  0.65324  0.31024  Biso   1.000  C
  C95      1.0000 0.66456  0.84676  0.81024  Biso   1.000  C
  C96      1.0000 0.83544  0.34676  0.68976  Biso   1.000  C
  H61      1.0000 0.36340  0.14330  0.14390  Biso   1.000  H
  H62      1.0000 0.13660  0.64330  0.35610  Biso   1.000  H
  H63      1.0000 0.63660  0.85670  0.85610  Biso   1.000  H
  H64      1.0000 0.86340  0.35670  0.64390  Biso   1.000  H
  C97      1.0000 0.37294  0.22832  0.25932  Biso   1.000  C
  C98      1.0000 0.12706  0.72832  0.24068  Biso   1.000  C
  C99      1.0000 0.62706  0.77168  0.74068  Biso   1.000  C
  C100     1.0000 0.87294  0.27168  0.75932  Biso   1.000  C
  H65      1.0000 0.42600  0.26840  0.25790  Biso   1.000  H
  H66      1.0000 0.07400  0.76840  0.24210  Biso   1.000  H
  H67      1.0000 0.57400  0.73160  0.74210  Biso   1.000  H
  H68      1.0000 0.92600  0.23160  0.75790  Biso   1.000  H
  C101     1.0000 0.26076  0.18872  0.32687  Biso   1.000  C
  C102     1.0000 0.23924  0.68872  0.17313  Biso   1.000  C
  C103     1.0000 0.73924  0.81128  0.67313  Biso   1.000  C
  C104     1.0000 0.76076  0.31128  0.82687  Biso   1.000  C
  H69      1.0000 0.23460  0.20030  0.37390  Biso   1.000  H
  H70      1.0000 0.26540  0.70030  0.12610  Biso   1.000  H
  H71      1.0000 0.76540  0.79970  0.62610  Biso   1.000  H
  H72      1.0000 0.73460  0.29970  0.87390  Biso   1.000  H
  C105     1.0000 0.21741  0.11231  0.25983  Biso   1.000  C
  C106     1.0000 0.28259  0.61231  0.24017  Biso   1.000  C
  C107     1.0000 0.78259  0.88769  0.74017  Biso   1.000  C
  C108     1.0000 0.71741  0.38769  0.75983  Biso   1.000  C
  H73      1.0000 0.16320  0.07430  0.26190  Biso   1.000  H
  H74      1.0000 0.33680  0.57430  0.23810  Biso   1.000  H
  H75      1.0000 0.83680  0.92570  0.73810  Biso   1.000  H
  H76      1.0000 0.66320  0.42570  0.76190  Biso   1.000  H
  N1       1.0000 0.97679  0.74198  0.94651  Biso   1.000  N
  N2       1.0000 0.52321  0.24198  0.55349  Biso   1.000  N
  N3       1.0000 0.02321  0.25802  0.05349  Biso   1.000  N
  N4       1.0000 0.47679  0.75802  0.44651  Biso   1.000  N
  N5       1.0000 0.94359  0.86547  0.08197  Biso   1.000  N
  N6       1.0000 0.55641  0.36547  0.41803  Biso   1.000  N
  N7       1.0000 0.05641  0.13453  0.91803  Biso   1.000  N
  N8       1.0000 0.44359  0.63453  0.58197  Biso   1.000  N
  N9       1.0000 0.65414  0.48630  0.05186  Biso   1.000  N
  N10      1.0000 0.84586  0.98630  0.44814  Biso   1.000  N
  N11      1.0000 0.34586  0.51370  0.94814  Biso   1.000  N
  N12      1.0000 0.15414  0.01370  0.55186  Biso   1.000  N
  N13      1.0000 0.44570  0.81756  0.86545  Biso   1.000  N
  N14      1.0000 0.05430  0.31756  0.63455  Biso   1.000  N
  N15      1.0000 0.55430  0.18244  0.13455  Biso   1.000  N
  N16      1.0000 0.94570  0.68244  0.36545  Biso   1.000  N
  N17      1.0000 0.33820  0.24705  0.32815  Biso   1.000  N
  N18      1.0000 0.16180  0.74705  0.17185  Biso   1.000  N
  N19      1.0000 0.66180  0.75295  0.67185  Biso   1.000  N
  N20      1.0000 0.83820  0.25295  0.82815  Biso   1.000  N
  O1       1.0000 0.15364  0.84799  0.97335  Biso   1.000  O
  O2       1.0000 0.34636  0.34799  0.52665  Biso   1.000  O
  O3       1.0000 0.84636  0.15201  0.02665  Biso   1.000  O
  O4       1.0000 0.65364  0.65201  0.47335  Biso   1.000  O
  O5       1.0000 0.12343  0.97227  0.10804  Biso   1.000  O
  O6       1.0000 0.37657  0.47227  0.39196  Biso   1.000  O
  O7       1.0000 0.87657  0.02773  0.89196  Biso   1.000  O
  O8       1.0000 0.62343  0.52773  0.60804  Biso   1.000  O
  Cu1      1.0000 0.05459  0.85231  0.03475  Biso   1.000  Cu
  Cu2      1.0000 0.44541  0.35231  0.46525  Biso   1.000  Cu
  Cu3      1.0000 0.94541  0.14769  0.96525  Biso   1.000  Cu
  Cu4      1.0000 0.55459  0.64769  0.53475  Biso   1.000  Cu
  C109     1.0000 0.55380  0.66170  0.18040  Biso   1.000  C
  C110     1.0000 0.94620  0.16170  0.31960  Biso   1.000  C
  C111     1.0000 0.44620  0.33830  0.81960  Biso   1.000  C
  C112     1.0000 0.05380  0.83830  0.68040  Biso   1.000  C
  H77      1.0000 0.54730  0.64620  0.24110  Biso   1.000  H
  H78      1.0000 0.95270  0.14620  0.25890  Biso   1.000  H
  H79      1.0000 0.45270  0.35380  0.75890  Biso   1.000  H
  H80      1.0000 0.04730  0.85380  0.74110  Biso   1.000  H
  H81      1.0000 0.61740  0.63100  0.18360  Biso   1.000  H
  H82      1.0000 0.88260  0.13100  0.31640  Biso   1.000  H
  H83      1.0000 0.38260  0.36900  0.81640  Biso   1.000  H
  H84      1.0000 0.11740  0.86900  0.68360  Biso   1.000  H
  H85      1.0000 0.49010  0.63960  0.12060  Biso   1.000  H
  H86      1.0000 0.00990  0.13960  0.37940  Biso   1.000  H
  H87      1.0000 0.50990  0.36040  0.87940  Biso   1.000  H
  H88      1.0000 0.99010  0.86040  0.62060  Biso   1.000  H
  C113     1.0000 0.56370  0.76520  0.17410  Biso   1.000  C
  C114     1.0000 0.93630  0.26520  0.32590  Biso   1.000  C
  C115     1.0000 0.43630  0.23480  0.82590  Biso   1.000  C
  C116     1.0000 0.06370  0.73480  0.67410  Biso   1.000  C
  N21      1.0000 0.57100  0.84553  0.17090  Biso   1.000  N
  N22      1.0000 0.92900  0.34553  0.32910  Biso   1.000  N
  N23      1.0000 0.42900  0.15447  0.82910  Biso   1.000  N
  N24      1.0000 0.07100  0.65447  0.67090  Biso   1.000  N
