data_image0
_cell_length_a       8.4564
_cell_length_b       29.9025
_cell_length_c       11.4789
_cell_angle_alpha    90
_cell_angle_beta     94.424
_cell_angle_gamma    90

_symmetry_space_group_name_H-M    "P 1"
_symmetry_int_tables_number       1

loop_
  _symmetry_equiv_pos_as_xyz
  'x, y, z'

loop_
  _atom_site_label
  _atom_site_occupancy
  _atom_site_fract_x
  _atom_site_fract_y
  _atom_site_fract_z
  _atom_site_thermal_displace_type
  _atom_site_B_iso_or_equiv
  _atom_site_type_symbol
  C1       1.0000 0.42840  0.92890  0.30920  Biso   1.000  C
  C2       1.0000 0.57160  0.42890  0.19080  Biso   1.000  C
  C3       1.0000 0.57160  0.07110  0.69080  Biso   1.000  C
  C4       1.0000 0.42840  0.57110  0.80920  Biso   1.000  C
  H1       1.0000 0.41690  0.95640  0.27140  Biso   1.000  H
  H2       1.0000 0.58310  0.45640  0.22860  Biso   1.000  H
  H3       1.0000 0.58310  0.04360  0.72860  Biso   1.000  H
  H4       1.0000 0.41690  0.54360  0.77140  Biso   1.000  H
  C5       1.0000 0.34900  0.88910  0.27040  Biso   1.000  C
  C6       1.0000 0.65100  0.38910  0.22960  Biso   1.000  C
  C7       1.0000 0.65100  0.11090  0.72960  Biso   1.000  C
  C8       1.0000 0.34900  0.61090  0.77040  Biso   1.000  C
  H5       1.0000 0.27870  0.88570  0.20470  Biso   1.000  H
  H6       1.0000 0.72130  0.38570  0.29530  Biso   1.000  H
  H7       1.0000 0.72130  0.11430  0.79530  Biso   1.000  H
  H8       1.0000 0.27870  0.61430  0.70470  Biso   1.000  H
  C9       1.0000 0.39790  0.85650  0.35080  Biso   1.000  C
  C10      1.0000 0.60210  0.35650  0.14920  Biso   1.000  C
  C11      1.0000 0.60210  0.14350  0.64920  Biso   1.000  C
  C12      1.0000 0.39790  0.64350  0.85080  Biso   1.000  C
  H9       1.0000 0.36560  0.82680  0.34970  Biso   1.000  H
  H10      1.0000 0.63440  0.32680  0.15030  Biso   1.000  H
  H11      1.0000 0.63440  0.17320  0.65030  Biso   1.000  H
  H12      1.0000 0.36560  0.67320  0.84970  Biso   1.000  H
  C13      1.0000 0.50650  0.87690  0.43510  Biso   1.000  C
  C14      1.0000 0.49350  0.37690  0.06490  Biso   1.000  C
  C15      1.0000 0.49350  0.12310  0.56490  Biso   1.000  C
  C16      1.0000 0.50650  0.62310  0.93510  Biso   1.000  C
  C17      1.0000 0.59040  0.85610  0.53140  Biso   1.000  C
  C18      1.0000 0.40960  0.35610  0.96860  Biso   1.000  C
  C19      1.0000 0.40960  0.14390  0.46860  Biso   1.000  C
  C20      1.0000 0.59040  0.64390  0.03140  Biso   1.000  C
  C21      1.0000 0.69690  0.87710  0.61120  Biso   1.000  C
  C22      1.0000 0.30310  0.37710  0.88880  Biso   1.000  C
  C23      1.0000 0.30310  0.12290  0.38880  Biso   1.000  C
  C24      1.0000 0.69690  0.62290  0.11120  Biso   1.000  C
  C25      1.0000 0.78710  0.85680  0.70870  Biso   1.000  C
  C26      1.0000 0.21290  0.35680  0.79130  Biso   1.000  C
  C27      1.0000 0.21290  0.14320  0.29130  Biso   1.000  C
  C28      1.0000 0.78710  0.64320  0.20870  Biso   1.000  C
  H13      1.0000 0.78610  0.82680  0.73040  Biso   1.000  H
  H14      1.0000 0.21390  0.32680  0.76960  Biso   1.000  H
  H15      1.0000 0.21390  0.17320  0.26960  Biso   1.000  H
  H16      1.0000 0.78610  0.67320  0.23040  Biso   1.000  H
  C29      1.0000 0.87420  0.89020  0.76270  Biso   1.000  C
  C30      1.0000 0.12580  0.39020  0.73730  Biso   1.000  C
  C31      1.0000 0.12580  0.10980  0.23730  Biso   1.000  C
  C32      1.0000 0.87420  0.60980  0.26270  Biso   1.000  C
  H17      1.0000 0.94410  0.88750  0.82890  Biso   1.000  H
  H18      1.0000 0.05590  0.38750  0.67110  Biso   1.000  H
  H19      1.0000 0.05590  0.11250  0.17110  Biso   1.000  H
  H20      1.0000 0.94410  0.61250  0.32890  Biso   1.000  H
  C33      1.0000 0.83830  0.92960  0.69940  Biso   1.000  C
  C34      1.0000 0.16170  0.42960  0.80060  Biso   1.000  C
  C35      1.0000 0.16170  0.07040  0.30060  Biso   1.000  C
  C36      1.0000 0.83830  0.57040  0.19940  Biso   1.000  C
  H21      1.0000 0.88220  0.95740  0.71860  Biso   1.000  H
  H22      1.0000 0.11780  0.45740  0.78140  Biso   1.000  H
  H23      1.0000 0.11780  0.04260  0.28140  Biso   1.000  H
  H24      1.0000 0.88220  0.54260  0.21860  Biso   1.000  H
  C37      1.0000 0.56200  0.80730  0.55090  Biso   1.000  C
  C38      1.0000 0.43800  0.30730  0.94910  Biso   1.000  C
  C39      1.0000 0.43800  0.19270  0.44910  Biso   1.000  C
  C40      1.0000 0.56200  0.69270  0.05090  Biso   1.000  C
  C41      1.0000 0.61470  0.77540  0.47510  Biso   1.000  C
  C42      1.0000 0.38530  0.27540  0.02490  Biso   1.000  C
  C43      1.0000 0.38530  0.22460  0.52490  Biso   1.000  C
  C44      1.0000 0.61470  0.72460  0.97510  Biso   1.000  C
  H25      1.0000 0.66010  0.78400  0.40730  Biso   1.000  H
  H26      1.0000 0.33990  0.28400  0.09270  Biso   1.000  H
  H27      1.0000 0.33990  0.21600  0.59270  Biso   1.000  H
  H28      1.0000 0.66010  0.71600  0.90730  Biso   1.000  H
  C45      1.0000 0.59850  0.73030  0.50220  Biso   1.000  C
  C46      1.0000 0.40150  0.23030  0.99780  Biso   1.000  C
  C47      1.0000 0.40150  0.26970  0.49780  Biso   1.000  C
  C48      1.0000 0.59850  0.76970  0.00220  Biso   1.000  C
  H29      1.0000 0.63500  0.70930  0.45090  Biso   1.000  H
  H30      1.0000 0.36500  0.20930  0.04910  Biso   1.000  H
  H31      1.0000 0.36500  0.29070  0.54910  Biso   1.000  H
  H32      1.0000 0.63500  0.79070  0.95090  Biso   1.000  H
  C49      1.0000 0.47510  0.74680  0.66660  Biso   1.000  C
  C50      1.0000 0.52490  0.24680  0.83340  Biso   1.000  C
  C51      1.0000 0.52490  0.25320  0.33340  Biso   1.000  C
  C52      1.0000 0.47510  0.75320  0.16660  Biso   1.000  C
  H33      1.0000 0.42300  0.73760  0.73090  Biso   1.000  H
  H34      1.0000 0.57700  0.23760  0.76910  Biso   1.000  H
  H35      1.0000 0.57700  0.26240  0.26910  Biso   1.000  H
  H36      1.0000 0.42300  0.76240  0.23090  Biso   1.000  H
  C53      1.0000 0.48900  0.79210  0.64610  Biso   1.000  C
  C54      1.0000 0.51100  0.29210  0.85390  Biso   1.000  C
  C55      1.0000 0.51100  0.20790  0.35390  Biso   1.000  C
  C56      1.0000 0.48900  0.70790  0.14610  Biso   1.000  C
  H37      1.0000 0.44860  0.81250  0.69720  Biso   1.000  H
  H38      1.0000 0.55140  0.31250  0.80280  Biso   1.000  H
  H39      1.0000 0.55140  0.18750  0.30280  Biso   1.000  H
  H40      1.0000 0.44860  0.68750  0.19720  Biso   1.000  H
  C57      1.0000 0.61440  0.12730  0.09220  Biso   1.000  C
  C58      1.0000 0.38560  0.62730  0.40780  Biso   1.000  C
  C59      1.0000 0.38560  0.87270  0.90780  Biso   1.000  C
  C60      1.0000 0.61440  0.37270  0.59220  Biso   1.000  C
  H41      1.0000 0.66010  0.15360  0.06760  Biso   1.000  H
  H42      1.0000 0.33990  0.65360  0.43240  Biso   1.000  H
  H43      1.0000 0.33990  0.84640  0.93240  Biso   1.000  H
  H44      1.0000 0.66010  0.34640  0.56760  Biso   1.000  H
  C61      1.0000 0.67190  0.10880  0.19830  Biso   1.000  C
  C62      1.0000 0.32810  0.60880  0.30170  Biso   1.000  C
  C63      1.0000 0.32810  0.89120  0.80170  Biso   1.000  C
  C64      1.0000 0.67190  0.39120  0.69830  Biso   1.000  C
  H45      1.0000 0.75510  0.12230  0.24270  Biso   1.000  H
  H46      1.0000 0.24490  0.62230  0.25730  Biso   1.000  H
  H47      1.0000 0.24490  0.87770  0.75730  Biso   1.000  H
  H48      1.0000 0.75510  0.37770  0.74270  Biso   1.000  H
  C65      1.0000 0.60430  0.07010  0.23720  Biso   1.000  C
  C66      1.0000 0.39570  0.57010  0.26280  Biso   1.000  C
  C67      1.0000 0.39570  0.92990  0.76280  Biso   1.000  C
  C68      1.0000 0.60430  0.42990  0.73720  Biso   1.000  C
  C69      1.0000 0.48060  0.05180  0.16810  Biso   1.000  C
  C70      1.0000 0.51940  0.55180  0.33190  Biso   1.000  C
  C71      1.0000 0.51940  0.94820  0.83190  Biso   1.000  C
  C72      1.0000 0.48060  0.44820  0.66810  Biso   1.000  C
  H49      1.0000 0.43120  0.02590  0.19190  Biso   1.000  H
  H50      1.0000 0.56880  0.52590  0.30810  Biso   1.000  H
  H51      1.0000 0.56880  0.97410  0.80810  Biso   1.000  H
  H52      1.0000 0.43120  0.47410  0.69190  Biso   1.000  H
  C73      1.0000 0.42980  0.07190  0.06290  Biso   1.000  C
  C74      1.0000 0.57020  0.57190  0.43710  Biso   1.000  C
  C75      1.0000 0.57020  0.92810  0.93710  Biso   1.000  C
  C76      1.0000 0.42980  0.42810  0.56290  Biso   1.000  C
  H53      1.0000 0.34600  0.05900  0.01760  Biso   1.000  H
  H54      1.0000 0.65400  0.55900  0.48240  Biso   1.000  H
  H55      1.0000 0.65400  0.94100  0.98240  Biso   1.000  H
  H56      1.0000 0.34600  0.44100  0.51760  Biso   1.000  H
  C77      1.0000 0.66160  0.04720  0.34940  Biso   1.000  C
  C78      1.0000 0.33840  0.54720  0.15060  Biso   1.000  C
  C79      1.0000 0.33840  0.95280  0.65060  Biso   1.000  C
  C80      1.0000 0.66160  0.45280  0.84940  Biso   1.000  C
  C81      1.0000 0.78770  0.06600  0.41940  Biso   1.000  C
  C82      1.0000 0.21230  0.56600  0.08060  Biso   1.000  C
  C83      1.0000 0.21230  0.93400  0.58060  Biso   1.000  C
  C84      1.0000 0.78770  0.43400  0.91940  Biso   1.000  C
  H57      1.0000 0.83150  0.09270  0.39510  Biso   1.000  H
  H58      1.0000 0.16850  0.59270  0.10490  Biso   1.000  H
  H59      1.0000 0.16850  0.90730  0.60490  Biso   1.000  H
  H60      1.0000 0.83150  0.40730  0.89510  Biso   1.000  H
  C85      1.0000 0.85090  0.04690  0.52350  Biso   1.000  C
  C86      1.0000 0.14910  0.54690  0.97650  Biso   1.000  C
  C87      1.0000 0.14910  0.95310  0.47650  Biso   1.000  C
  C88      1.0000 0.85090  0.45310  0.02350  Biso   1.000  C
  C89      1.0000 0.97470  0.07140  0.59770  Biso   1.000  C
  C90      1.0000 0.02530  0.57140  0.90230  Biso   1.000  C
  C91      1.0000 0.02530  0.92860  0.40230  Biso   1.000  C
  C92      1.0000 0.97470  0.42860  0.09770  Biso   1.000  C
  C93      1.0000 0.07080  0.04760  0.68090  Biso   1.000  C
  C94      1.0000 0.92920  0.54760  0.81910  Biso   1.000  C
  C95      1.0000 0.92920  0.95240  0.31910  Biso   1.000  C
  C96      1.0000 0.07080  0.45240  0.18090  Biso   1.000  C
  H61      1.0000 0.05900  0.01680  0.68840  Biso   1.000  H
  H62      1.0000 0.94100  0.51680  0.81160  Biso   1.000  H
  H63      1.0000 0.94100  0.98320  0.31160  Biso   1.000  H
  H64      1.0000 0.05900  0.48320  0.18840  Biso   1.000  H
  C97      1.0000 0.18240  0.07010  0.75110  Biso   1.000  C
  C98      1.0000 0.81760  0.57010  0.74890  Biso   1.000  C
  C99      1.0000 0.81760  0.92990  0.24890  Biso   1.000  C
  C100     1.0000 0.18240  0.42990  0.25110  Biso   1.000  C
  H65      1.0000 0.24680  0.05370  0.80470  Biso   1.000  H
  H66      1.0000 0.75320  0.55370  0.69530  Biso   1.000  H
  H67      1.0000 0.75320  0.94630  0.19530  Biso   1.000  H
  H68      1.0000 0.24680  0.44630  0.30470  Biso   1.000  H
  C101     1.0000 0.11030  0.13740  0.66820  Biso   1.000  C
  C102     1.0000 0.88970  0.63740  0.83180  Biso   1.000  C
  C103     1.0000 0.88970  0.86260  0.33180  Biso   1.000  C
  C104     1.0000 0.11030  0.36260  0.16820  Biso   1.000  C
  H69      1.0000 0.12250  0.16830  0.66430  Biso   1.000  H
  H70      1.0000 0.87750  0.66830  0.83570  Biso   1.000  H
  H71      1.0000 0.87750  0.83170  0.33570  Biso   1.000  H
  H72      1.0000 0.12250  0.33170  0.16430  Biso   1.000  H
  C105     1.0000 0.99730  0.11750  0.59320  Biso   1.000  C
  C106     1.0000 0.00270  0.61750  0.90680  Biso   1.000  C
  C107     1.0000 0.00270  0.88250  0.40680  Biso   1.000  C
  C108     1.0000 0.99730  0.38250  0.09320  Biso   1.000  C
  H73      1.0000 0.93600  0.13470  0.53950  Biso   1.000  H
  H74      1.0000 0.06400  0.63470  0.96050  Biso   1.000  H
  H75      1.0000 0.06400  0.86530  0.46050  Biso   1.000  H
  H76      1.0000 0.93600  0.36530  0.03950  Biso   1.000  H
  N1       1.0000 0.52190  0.92189  0.40700  Biso   1.000  N
  N2       1.0000 0.47810  0.42189  0.09300  Biso   1.000  N
  N3       1.0000 0.47810  0.07811  0.59300  Biso   1.000  N
  N4       1.0000 0.52190  0.57811  0.90700  Biso   1.000  N
  N5       1.0000 0.73400  0.92240  0.60860  Biso   1.000  N
  N6       1.0000 0.26600  0.42240  0.89140  Biso   1.000  N
  N7       1.0000 0.26600  0.07760  0.39140  Biso   1.000  N
  N8       1.0000 0.73400  0.57760  0.10860  Biso   1.000  N
  N9       1.0000 0.53360  0.71546  0.59760  Biso   1.000  N
  N10      1.0000 0.46640  0.21546  0.90240  Biso   1.000  N
  N11      1.0000 0.46640  0.28454  0.40240  Biso   1.000  N
  N12      1.0000 0.53360  0.78454  0.09760  Biso   1.000  N
  N13      1.0000 0.49630  0.10900  0.02400  Biso   1.000  N
  N14      1.0000 0.50370  0.60900  0.47600  Biso   1.000  N
  N15      1.0000 0.50370  0.89100  0.97600  Biso   1.000  N
  N16      1.0000 0.49630  0.39100  0.52400  Biso   1.000  N
  N17      1.0000 0.20410  0.11462  0.74700  Biso   1.000  N
  N18      1.0000 0.79590  0.61462  0.75300  Biso   1.000  N
  N19      1.0000 0.79590  0.88538  0.25300  Biso   1.000  N
  N20      1.0000 0.20410  0.38538  0.24700  Biso   1.000  N
  O1       1.0000 0.58940  0.01113  0.37370  Biso   1.000  O
  O2       1.0000 0.41060  0.51113  0.12630  Biso   1.000  O
  O3       1.0000 0.41060  0.98887  0.62630  Biso   1.000  O
  O4       1.0000 0.58940  0.48887  0.87370  Biso   1.000  O
  O5       1.0000 0.81220  0.00859  0.56140  Biso   1.000  O
  O6       1.0000 0.18780  0.50859  0.93860  Biso   1.000  O
  O7       1.0000 0.18780  0.99141  0.43860  Biso   1.000  O
  O8       1.0000 0.81220  0.49141  0.06140  Biso   1.000  O
  Cu1      1.0000 0.66130  0.96599  0.48914  Biso   1.000  Cu
  Cu2      1.0000 0.33870  0.46599  0.01086  Biso   1.000  Cu
  Cu3      1.0000 0.33870  0.03401  0.51086  Biso   1.000  Cu
  Cu4      1.0000 0.66130  0.53401  0.98914  Biso   1.000  Cu
  Ag1      1.0000 0.57517  0.85705  0.15376  Biso   1.000  Ag
  Ag2      1.0000 0.42483  0.35705  0.34624  Biso   1.000  Ag
  Ag3      1.0000 0.42483  0.14295  0.84624  Biso   1.000  Ag
  Ag4      1.0000 0.57517  0.64295  0.65376  Biso   1.000  Ag
  C109     1.0000 0.95300  0.28310  0.49290  Biso   1.000  C
  C110     1.0000 0.04700  0.78310  0.00710  Biso   1.000  C
  C111     1.0000 0.04700  0.71690  0.50710  Biso   1.000  C
  C112     1.0000 0.95300  0.21690  0.99290  Biso   1.000  C
  O9       1.0000 0.10100  0.25560  0.67250  Biso   1.000  O
  O10      1.0000 0.89900  0.75560  0.82750  Biso   1.000  O
  O11      1.0000 0.89900  0.74440  0.32750  Biso   1.000  O
  O12      1.0000 0.10100  0.24440  0.17250  Biso   1.000  O
  O13      1.0000 0.84640  0.22710  0.60600  Biso   1.000  O
  O14      1.0000 0.15360  0.72710  0.89400  Biso   1.000  O
  O15      1.0000 0.15360  0.77290  0.39400  Biso   1.000  O
  O16      1.0000 0.84640  0.27290  0.10600  Biso   1.000  O
  O17      1.0000 0.85790  0.29900  0.68320  Biso   1.000  O
  O18      1.0000 0.14210  0.79900  0.81680  Biso   1.000  O
  O19      1.0000 0.14210  0.70100  0.31680  Biso   1.000  O
  O20      1.0000 0.85790  0.20100  0.18320  Biso   1.000  O
  F1       1.0000 0.02100  0.31580  0.47150  Biso   1.000  F
  F2       1.0000 0.97900  0.81580  0.02850  Biso   1.000  F
  F3       1.0000 0.97900  0.68420  0.52850  Biso   1.000  F
  F4       1.0000 0.02100  0.18420  0.97150  Biso   1.000  F
  F5       1.0000 0.02900  0.25970  0.41630  Biso   1.000  F
  F6       1.0000 0.97100  0.75970  0.08370  Biso   1.000  F
  F7       1.0000 0.97100  0.74030  0.58370  Biso   1.000  F
  F8       1.0000 0.02900  0.24030  0.91630  Biso   1.000  F
  F9       1.0000 0.82500  0.29630  0.42600  Biso   1.000  F
  F10      1.0000 0.17500  0.79630  0.07400  Biso   1.000  F
  F11      1.0000 0.17500  0.70370  0.57400  Biso   1.000  F
  F12      1.0000 0.82500  0.20370  0.92600  Biso   1.000  F
  S1       1.0000 0.93630  0.26351  0.62760  Biso   1.000  S
  S2       1.0000 0.06370  0.76351  0.87240  Biso   1.000  S
  S3       1.0000 0.06370  0.73649  0.37240  Biso   1.000  S
  S4       1.0000 0.93630  0.23649  0.12760  Biso   1.000  S
  C113     1.0000 0.92210  0.02542  0.99810  Biso   1.000  C
  C114     1.0000 0.07790  0.52542  0.50190  Biso   1.000  C
  C115     1.0000 0.07790  0.97458  0.00190  Biso   1.000  C
  C116     1.0000 0.92210  0.47458  0.49810  Biso   1.000  C
  O21      1.0000 0.02900  0.06150  0.98540  Biso   1.000  O
  O22      1.0000 0.97100  0.56150  0.51460  Biso   1.000  O
  O23      1.0000 0.97100  0.93850  0.01460  Biso   1.000  O
  O24      1.0000 0.02900  0.43850  0.48540  Biso   1.000  O
  O25      1.0000 0.16850  0.98180  0.90880  Biso   1.000  O
  O26      1.0000 0.83150  0.48180  0.59120  Biso   1.000  O
  O27      1.0000 0.83150  0.01820  0.09120  Biso   1.000  O
  O28      1.0000 0.16850  0.51820  0.40880  Biso   1.000  O
  O29      1.0000 0.16520  0.98580  0.11030  Biso   1.000  O
  O30      1.0000 0.83480  0.48580  0.38970  Biso   1.000  O
  O31      1.0000 0.83480  0.01420  0.88970  Biso   1.000  O
  O32      1.0000 0.16520  0.51420  0.61030  Biso   1.000  O
  F13      1.0000 0.00880  0.93800  0.01710  Biso   1.000  F
  F14      1.0000 0.99120  0.43800  0.48290  Biso   1.000  F
  F15      1.0000 0.99120  0.06200  0.98290  Biso   1.000  F
  F16      1.0000 0.00880  0.56200  0.51710  Biso   1.000  F
  F17      1.0000 0.87940  0.02390  0.10960  Biso   1.000  F
  F18      1.0000 0.12060  0.52390  0.39040  Biso   1.000  F
  F19      1.0000 0.12060  0.97610  0.89040  Biso   1.000  F
  F20      1.0000 0.87940  0.47610  0.60960  Biso   1.000  F
  F21      1.0000 0.80630  0.01450  0.91590  Biso   1.000  F
  F22      1.0000 0.19370  0.51450  0.58410  Biso   1.000  F
  F23      1.0000 0.19370  0.98550  0.08410  Biso   1.000  F
  F24      1.0000 0.80630  0.48550  0.41590  Biso   1.000  F
