data_image0
_cell_length_a       13.3262
_cell_length_b       13.6246
_cell_length_c       17.0399
_cell_angle_alpha    67.588
_cell_angle_beta     77.949
_cell_angle_gamma    76.312

_symmetry_space_group_name_H-M    "P 1"
_symmetry_int_tables_number       1

loop_
  _symmetry_equiv_pos_as_xyz
  'x, y, z'

loop_
  _atom_site_label
  _atom_site_occupancy
  _atom_site_fract_x
  _atom_site_fract_y
  _atom_site_fract_z
  _atom_site_thermal_displace_type
  _atom_site_B_iso_or_equiv
  _atom_site_type_symbol
  C1       1.0000 0.61610  0.97310  0.30810  Biso   1.000  C
  C2       1.0000 0.38390  0.02690  0.69190  Biso   1.000  C
  H1       1.0000 0.62670  0.91560  0.35890  Biso   1.000  H
  H2       1.0000 0.37330  0.08440  0.64110  Biso   1.000  H
  C3       1.0000 0.59850  0.96210  0.23340  Biso   1.000  C
  C4       1.0000 0.40150  0.03790  0.76660  Biso   1.000  C
  H3       1.0000 0.59450  0.89880  0.22630  Biso   1.000  H
  H4       1.0000 0.40550  0.10120  0.77370  Biso   1.000  H
  C5       1.0000 0.58850  0.06410  0.17340  Biso   1.000  C
  C6       1.0000 0.41150  0.93590  0.82660  Biso   1.000  C
  H5       1.0000 0.57580  0.08320  0.11730  Biso   1.000  H
  H6       1.0000 0.42420  0.91680  0.88270  Biso   1.000  H
  C7       1.0000 0.60110  0.13550  0.21240  Biso   1.000  C
  C8       1.0000 0.39890  0.86450  0.78760  Biso   1.000  C
  C9       1.0000 0.60430  0.24520  0.17520  Biso   1.000  C
  C10      1.0000 0.39570  0.75480  0.82480  Biso   1.000  C
  C11      1.0000 0.61610  0.31150  0.21720  Biso   1.000  C
  C12      1.0000 0.38390  0.68850  0.78280  Biso   1.000  C
  C13      1.0000 0.62150  0.42420  0.18180  Biso   1.000  C
  C14      1.0000 0.37850  0.57580  0.81820  Biso   1.000  C
  H7       1.0000 0.61760  0.46860  0.12500  Biso   1.000  H
  H8       1.0000 0.38240  0.53140  0.87500  Biso   1.000  H
  C15      1.0000 0.63310  0.45450  0.24620  Biso   1.000  C
  C16      1.0000 0.36690  0.54550  0.75380  Biso   1.000  C
  H9       1.0000 0.63930  0.52280  0.24210  Biso   1.000  H
  H10      1.0000 0.36070  0.47720  0.75790  Biso   1.000  H
  C17      1.0000 0.63380  0.36020  0.32110  Biso   1.000  C
  C18      1.0000 0.36620  0.63980  0.67890  Biso   1.000  C
  H11      1.0000 0.64080  0.35780  0.37500  Biso   1.000  H
  H12      1.0000 0.35920  0.64220  0.62500  Biso   1.000  H
  C19      1.0000 0.59570  0.29620  0.08210  Biso   1.000  C
  C20      1.0000 0.40430  0.70380  0.91790  Biso   1.000  C
  C21      1.0000 0.67600  0.34600  0.02420  Biso   1.000  C
  C22      1.0000 0.32400  0.65400  0.97580  Biso   1.000  C
  H13      1.0000 0.73410  0.35070  0.04400  Biso   1.000  H
  H14      1.0000 0.26590  0.64930  0.95600  Biso   1.000  H
  C23      1.0000 0.66790  0.38820  0.93760  Biso   1.000  C
  C24      1.0000 0.33210  0.61180  0.06240  Biso   1.000  C
  H15      1.0000 0.72190  0.42060  0.90000  Biso   1.000  H
  H16      1.0000 0.27810  0.57940  0.10000  Biso   1.000  H
  C25      1.0000 0.50940  0.33830  0.95960  Biso   1.000  C
  C26      1.0000 0.49060  0.66170  0.04040  Biso   1.000  C
  H17      1.0000 0.45210  0.33520  0.93790  Biso   1.000  H
  H18      1.0000 0.54790  0.66480  0.06210  Biso   1.000  H
  C27      1.0000 0.51110  0.29390  0.04840  Biso   1.000  C
  C28      1.0000 0.48890  0.70610  0.95160  Biso   1.000  C
  H19      1.0000 0.45540  0.26300  0.08440  Biso   1.000  H
  H20      1.0000 0.54460  0.73700  0.91560  Biso   1.000  H
  C29      1.0000 0.63790  0.65650  0.59960  Biso   1.000  C
  C30      1.0000 0.36210  0.34350  0.40040  Biso   1.000  C
  H21      1.0000 0.63880  0.61200  0.56940  Biso   1.000  H
  H22      1.0000 0.36120  0.38800  0.43060  Biso   1.000  H
  C31      1.0000 0.64010  0.76420  0.55470  Biso   1.000  C
  C32      1.0000 0.35990  0.23580  0.44530  Biso   1.000  C
  H23      1.0000 0.64260  0.79120  0.49550  Biso   1.000  H
  H24      1.0000 0.35740  0.20880  0.50450  Biso   1.000  H
  C33      1.0000 0.63850  0.83250  0.59830  Biso   1.000  C
  C34      1.0000 0.36150  0.16750  0.40170  Biso   1.000  C
  C35      1.0000 0.63850  0.78720  0.68550  Biso   1.000  C
  C36      1.0000 0.36150  0.21280  0.31450  Biso   1.000  C
  H25      1.0000 0.63940  0.82970  0.71690  Biso   1.000  H
  H26      1.0000 0.36060  0.17030  0.28310  Biso   1.000  H
  C37      1.0000 0.63710  0.67740  0.72640  Biso   1.000  C
  C38      1.0000 0.36290  0.32260  0.27360  Biso   1.000  C
  H27      1.0000 0.63800  0.64800  0.78530  Biso   1.000  H
  H28      1.0000 0.36200  0.35200  0.21470  Biso   1.000  H
  C39      1.0000 0.63590  0.95080  0.55020  Biso   1.000  C
  C40      1.0000 0.36410  0.04920  0.44980  Biso   1.000  C
  C41      1.0000 0.62110  0.01990  0.59610  Biso   1.000  C
  C42      1.0000 0.37890  0.98010  0.40390  Biso   1.000  C
  H29      1.0000 0.61630  0.99030  0.65550  Biso   1.000  H
  H30      1.0000 0.38370  0.00970  0.34450  Biso   1.000  H
  C43      1.0000 0.61340  0.13210  0.55670  Biso   1.000  C
  C44      1.0000 0.38660  0.86790  0.44330  Biso   1.000  C
  C45      1.0000 0.59670  0.20070  0.61030  Biso   1.000  C
  C46      1.0000 0.40330  0.79930  0.38970  Biso   1.000  C
  C47      1.0000 0.61860  0.16120  0.69380  Biso   1.000  C
  C48      1.0000 0.38140  0.83880  0.30620  Biso   1.000  C
  H31      1.0000 0.64170  0.08800  0.72080  Biso   1.000  H
  H32      1.0000 0.35830  0.91200  0.27920  Biso   1.000  H
  C49      1.0000 0.60560  0.23310  0.73650  Biso   1.000  C
  C50      1.0000 0.39440  0.76690  0.26350  Biso   1.000  C
  H33      1.0000 0.62160  0.20640  0.79230  Biso   1.000  H
  H34      1.0000 0.37840  0.79360  0.20770  Biso   1.000  H
  C51      1.0000 0.54860  0.37550  0.62140  Biso   1.000  C
  C52      1.0000 0.45140  0.62450  0.37860  Biso   1.000  C
  H35      1.0000 0.52470  0.44890  0.59610  Biso   1.000  H
  H36      1.0000 0.47530  0.55110  0.40390  Biso   1.000  H
  C53      1.0000 0.55900  0.31020  0.57530  Biso   1.000  C
  C54      1.0000 0.44100  0.68980  0.42470  Biso   1.000  C
  H37      1.0000 0.54090  0.33910  0.52010  Biso   1.000  H
  H38      1.0000 0.45910  0.66090  0.47990  Biso   1.000  H
  N1       1.0000 0.61600  0.07540  0.29800  Biso   1.000  N
  N2       1.0000 0.38400  0.92460  0.70200  Biso   1.000  N
  N3       1.0000 0.62300  0.27570  0.30400  Biso   1.000  N
  N4       1.0000 0.37700  0.72430  0.69600  Biso   1.000  N
  N5       1.0000 0.58610  0.38460  0.90490  Biso   1.000  N
  N6       1.0000 0.41390  0.61540  0.09510  Biso   1.000  N
  N7       1.0000 0.63440  0.61260  0.68570  Biso   1.000  N
  N8       1.0000 0.36560  0.38740  0.31430  Biso   1.000  N
  N9       1.0000 0.57130  0.33840  0.70170  Biso   1.000  N
  N10      1.0000 0.42870  0.66160  0.29830  Biso   1.000  N
  O1       1.0000 0.64870  0.98060  0.46820  Biso   1.000  O
  O2       1.0000 0.35130  0.01940  0.53180  Biso   1.000  O
  O3       1.0000 0.62020  0.18170  0.47680  Biso   1.000  O
  O4       1.0000 0.37980  0.81830  0.52320  Biso   1.000  O
  Cu1      1.0000 0.62958  0.12798  0.38525  Biso   1.000  Cu
  Cu2      1.0000 0.37042  0.87202  0.61475  Biso   1.000  Cu
  Ag1      1.0000 0.42893  0.54172  0.23682  Biso   1.000  Ag
  Ag2      1.0000 0.57107  0.45828  0.76318  Biso   1.000  Ag
  C55      1.0000 0.85230  0.79780  0.34850  Biso   1.000  C
  C56      1.0000 0.14770  0.20220  0.65150  Biso   1.000  C
  H39      1.0000 0.84630  0.74580  0.40300  Biso   1.000  H
  H40      1.0000 0.15370  0.25420  0.59700  Biso   1.000  H
  C57      1.0000 0.85400  0.77930  0.27380  Biso   1.000  C
  C58      1.0000 0.14600  0.22070  0.72620  Biso   1.000  C
  H41      1.0000 0.84890  0.71470  0.26950  Biso   1.000  H
  H42      1.0000 0.15110  0.28530  0.73050  Biso   1.000  H
  C59      1.0000 0.86480  0.87530  0.20670  Biso   1.000  C
  C60      1.0000 0.13520  0.12470  0.79330  Biso   1.000  C
  H43      1.0000 0.86900  0.88760  0.14860  Biso   1.000  H
  H44      1.0000 0.13100  0.11240  0.85140  Biso   1.000  H
  C61      1.0000 0.86830  0.95120  0.24400  Biso   1.000  C
  C62      1.0000 0.13170  0.04880  0.75600  Biso   1.000  C
  C63      1.0000 0.87840  0.06010  0.20210  Biso   1.000  C
  C64      1.0000 0.12160  0.93990  0.79790  Biso   1.000  C
  C65      1.0000 0.87550  0.13380  0.24200  Biso   1.000  C
  C66      1.0000 0.12450  0.86620  0.75800  Biso   1.000  C
  C67      1.0000 0.88220  0.24560  0.20410  Biso   1.000  C
  C68      1.0000 0.11780  0.75440  0.79590  Biso   1.000  C
  H45      1.0000 0.89130  0.28520  0.14580  Biso   1.000  H
  H46      1.0000 0.10870  0.71480  0.85420  Biso   1.000  H
  C69      1.0000 0.87280  0.28380  0.26850  Biso   1.000  C
  C70      1.0000 0.12720  0.71620  0.73150  Biso   1.000  C
  H47      1.0000 0.87390  0.35420  0.26290  Biso   1.000  H
  H48      1.0000 0.12610  0.64580  0.73710  Biso   1.000  H
  C71      1.0000 0.86120  0.19650  0.34500  Biso   1.000  C
  C72      1.0000 0.13880  0.80350  0.65500  Biso   1.000  C
  H49      1.0000 0.85390  0.20100  0.39910  Biso   1.000  H
  H50      1.0000 0.14610  0.79900  0.60090  Biso   1.000  H
  C73      1.0000 0.89660  0.10280  0.10580  Biso   1.000  C
  C74      1.0000 0.10340  0.89720  0.89420  Biso   1.000  C
  C75      1.0000 0.98180  0.15170  0.06190  Biso   1.000  C
  C76      1.0000 0.01820  0.84830  0.93810  Biso   1.000  C
  H51      1.0000 0.03110  0.15540  0.09160  Biso   1.000  H
  H52      1.0000 0.96890  0.84460  0.90840  Biso   1.000  H
  C77      1.0000 0.99300  0.19500  0.97320  Biso   1.000  C
  C78      1.0000 0.00700  0.80500  0.02680  Biso   1.000  C
  H53      1.0000 0.05020  0.22820  0.94440  Biso   1.000  H
  H54      1.0000 0.94980  0.77180  0.05560  Biso   1.000  H
  C79      1.0000 0.84480  0.14100  0.97010  Biso   1.000  C
  C80      1.0000 0.15520  0.85900  0.02990  Biso   1.000  C
  H55      1.0000 0.79770  0.13680  0.93870  Biso   1.000  H
  H56      1.0000 0.20230  0.86320  0.06130  Biso   1.000  H
  C81      1.0000 0.82790  0.09580  0.05770  Biso   1.000  C
  C82      1.0000 0.17210  0.90420  0.94230  Biso   1.000  C
  H57      1.0000 0.77130  0.06090  0.08460  Biso   1.000  H
  H58      1.0000 0.22870  0.93910  0.91540  Biso   1.000  H
  C83      1.0000 0.91060  0.51470  0.75870  Biso   1.000  C
  C84      1.0000 0.08940  0.48530  0.24130  Biso   1.000  C
  H59      1.0000 0.90790  0.48580  0.81800  Biso   1.000  H
  H60      1.0000 0.09210  0.51420  0.18200  Biso   1.000  H
  C85      1.0000 0.90010  0.62600  0.71910  Biso   1.000  C
  C86      1.0000 0.09990  0.37400  0.28090  Biso   1.000  C
  H61      1.0000 0.88950  0.67020  0.75140  Biso   1.000  H
  H62      1.0000 0.11050  0.32980  0.24860  Biso   1.000  H
  C87      1.0000 0.90580  0.67050  0.62990  Biso   1.000  C
  C88      1.0000 0.09420  0.32950  0.37010  Biso   1.000  C
  C89      1.0000 0.92220  0.60010  0.58510  Biso   1.000  C
  C90      1.0000 0.07780  0.39990  0.41490  Biso   1.000  C
  H63      1.0000 0.92700  0.62630  0.52570  Biso   1.000  H
  H64      1.0000 0.07300  0.37370  0.47430  Biso   1.000  H
  C91      1.0000 0.93130  0.49060  0.63040  Biso   1.000  C
  C92      1.0000 0.06870  0.50940  0.36960  Biso   1.000  C
  H65      1.0000 0.94270  0.44430  0.59980  Biso   1.000  H
  H66      1.0000 0.05730  0.55570  0.40020  Biso   1.000  H
  C93      1.0000 0.89250  0.78830  0.58130  Biso   1.000  C
  C94      1.0000 0.10750  0.21170  0.41870  Biso   1.000  C
  C95      1.0000 0.89060  0.85880  0.62350  Biso   1.000  C
  C96      1.0000 0.10940  0.14120  0.37650  Biso   1.000  C
  H67      1.0000 0.89710  0.83030  0.68160  Biso   1.000  H
  H68      1.0000 0.10290  0.16970  0.31840  Biso   1.000  H
  C97      1.0000 0.87950  0.97070  0.58210  Biso   1.000  C
  C98      1.0000 0.12050  0.02930  0.41790  Biso   1.000  C
  C99      1.0000 0.87760  0.04100  0.63200  Biso   1.000  C
  C100     1.0000 0.12240  0.95900  0.36800  Biso   1.000  C
  C101     1.0000 0.87510  0.00250  0.72060  Biso   1.000  C
  C102     1.0000 0.12490  0.99750  0.27940  Biso   1.000  C
  H69      1.0000 0.87230  0.93020  0.75230  Biso   1.000  H
  H70      1.0000 0.12770  0.06980  0.24770  Biso   1.000  H
  C103     1.0000 0.87670  0.07230  0.76070  Biso   1.000  C
  C104     1.0000 0.12330  0.92770  0.23930  Biso   1.000  C
  H71      1.0000 0.87640  0.04510  0.81980  Biso   1.000  H
  H72      1.0000 0.12360  0.95490  0.18020  Biso   1.000  H
  C105     1.0000 0.87820  0.21480  0.63430  Biso   1.000  C
  C106     1.0000 0.12180  0.78520  0.36570  Biso   1.000  C
  H73      1.0000 0.87880  0.28780  0.60430  Biso   1.000  H
  H74      1.0000 0.12120  0.71220  0.39570  Biso   1.000  H
  C107     1.0000 0.87670  0.15070  0.58950  Biso   1.000  C
  C108     1.0000 0.12330  0.84930  0.41050  Biso   1.000  C
  H75      1.0000 0.87510  0.18050  0.53070  Biso   1.000  H
  H76      1.0000 0.12490  0.81950  0.46930  Biso   1.000  H
  N11      1.0000 0.86040  0.90080  0.33240  Biso   1.000  N
  N12      1.0000 0.13960  0.09920  0.66760  Biso   1.000  N
  N13      1.0000 0.86170  0.10610  0.33150  Biso   1.000  N
  N14      1.0000 0.13830  0.89390  0.66850  Biso   1.000  N
  N15      1.0000 0.92590  0.19100  0.92760  Biso   1.000  N
  N16      1.0000 0.07410  0.80900  0.07240  Biso   1.000  N
  N17      1.0000 0.92450  0.44740  0.71620  Biso   1.000  N
  N18      1.0000 0.07550  0.55260  0.28380  Biso   1.000  N
  N19      1.0000 0.87890  0.17790  0.71930  Biso   1.000  N
  N20      1.0000 0.12110  0.82210  0.28070  Biso   1.000  N
  O5       1.0000 0.88400  0.81720  0.50240  Biso   1.000  O
  O6       1.0000 0.11600  0.18280  0.49760  Biso   1.000  O
  O7       1.0000 0.86960  0.02060  0.50300  Biso   1.000  O
  O8       1.0000 0.13040  0.97940  0.49700  Biso   1.000  O
  Cu3      1.0000 0.86635  0.96103  0.41744  Biso   1.000  Cu
  Cu4      1.0000 0.13365  0.03897  0.58256  Biso   1.000  Cu
  Ag3      1.0000 0.05341  0.73235  0.21829  Biso   1.000  Ag
  Ag4      1.0000 0.94659  0.26765  0.78171  Biso   1.000  Ag
  B1       1.0000 0.22300  0.51140  0.58030  Biso   1.000  B
  B2       1.0000 0.77700  0.48860  0.41970  Biso   1.000  B
  F1       1.0000 0.32750  0.48680  0.56400  Biso   1.000  F
  F2       1.0000 0.67250  0.51320  0.43600  Biso   1.000  F
  F3       1.0000 0.17480  0.46420  0.54420  Biso   1.000  F
  F4       1.0000 0.82520  0.53580  0.45580  Biso   1.000  F
  F5       1.0000 0.19120  0.62120  0.55170  Biso   1.000  F
  F6       1.0000 0.80880  0.37880  0.44830  Biso   1.000  F
  F7       1.0000 0.19140  0.47420  0.66930  Biso   1.000  F
  F8       1.0000 0.80860  0.52580  0.33070  Biso   1.000  F
  B3       1.0000 0.65860  0.96130  0.96620  Biso   1.000  B
  B4       1.0000 0.34140  0.03870  0.03380  Biso   1.000  B
  F9       1.0000 0.63620  0.06410  0.95540  Biso   1.000  F
  F10      1.0000 0.36380  0.93590  0.04460  Biso   1.000  F
  F11      1.0000 0.58920  0.89960  0.02150  Biso   1.000  F
  F12      1.0000 0.41080  0.10040  0.97850  Biso   1.000  F
  F13      1.0000 0.75720  0.91440  0.98060  Biso   1.000  F
  F14      1.0000 0.24280  0.08560  0.01940  Biso   1.000  F
  F15      1.0000 0.65720  0.95120  0.88660  Biso   1.000  F
  F16      1.0000 0.34280  0.04880  0.11340  Biso   1.000  F
  O9       1.0000 0.14540  0.39130  0.84720  Biso   1.000  O
  O10      1.0000 0.85460  0.60870  0.15280  Biso   1.000  O
  B5       1.0000 0.77610  0.70290  0.91480  Biso   1.000  B
  B6       1.0000 0.22390  0.29710  0.08520  Biso   1.000  B
  F17      1.0000 0.73350  0.79050  0.85550  Biso   1.000  F
  F18      1.0000 0.26650  0.20950  0.14450  Biso   1.000  F
  F19      1.0000 0.87690  0.70670  0.89610  Biso   1.000  F
  F20      1.0000 0.12310  0.29330  0.10390  Biso   1.000  F
  F21      1.0000 0.75330  0.61370  0.90680  Biso   1.000  F
  F22      1.0000 0.24670  0.38630  0.09320  Biso   1.000  F
  F23      1.0000 0.74290  0.68790  0.00020  Biso   1.000  F
  F24      1.0000 0.25710  0.31210  0.99980  Biso   1.000  F
