data_image0
_cell_length_a       10.369
_cell_length_b       12.645
_cell_length_c       14.307
_cell_angle_alpha    102.839
_cell_angle_beta     92.253
_cell_angle_gamma    102.395

_symmetry_space_group_name_H-M    "P 1"
_symmetry_int_tables_number       1

loop_
  _symmetry_equiv_pos_as_xyz
  'x, y, z'

loop_
  _atom_site_label
  _atom_site_occupancy
  _atom_site_fract_x
  _atom_site_fract_y
  _atom_site_fract_z
  _atom_site_thermal_displace_type
  _atom_site_B_iso_or_equiv
  _atom_site_type_symbol
  Cu1      1.0000 0.78531  0.25472  0.26826  Biso   1.000  Cu
  Cu2      1.0000 0.21469  0.74528  0.73174  Biso   1.000  Cu
  N1       1.0000 0.66600  0.30680  0.36730  Biso   1.000  N
  N2       1.0000 0.33400  0.69320  0.63270  Biso   1.000  N
  C1       1.0000 0.53490  0.26490  0.35280  Biso   1.000  C
  C2       1.0000 0.46510  0.73510  0.64720  Biso   1.000  C
  H1       1.0000 0.49930  0.21610  0.29250  Biso   1.000  H
  H2       1.0000 0.50070  0.78390  0.70750  Biso   1.000  H
  C3       1.0000 0.45010  0.28920  0.42070  Biso   1.000  C
  C4       1.0000 0.54990  0.71080  0.57930  Biso   1.000  C
  H3       1.0000 0.35740  0.25850  0.40710  Biso   1.000  H
  H4       1.0000 0.64260  0.74150  0.59290  Biso   1.000  H
  C5       1.0000 0.50030  0.35940  0.51040  Biso   1.000  C
  C6       1.0000 0.49970  0.64060  0.48960  Biso   1.000  C
  C7       1.0000 0.63500  0.40380  0.52480  Biso   1.000  C
  C8       1.0000 0.36500  0.59620  0.47520  Biso   1.000  C
  H5       1.0000 0.67320  0.45350  0.58420  Biso   1.000  H
  H6       1.0000 0.32680  0.54650  0.41580  Biso   1.000  H
  C9       1.0000 0.71420  0.37570  0.45210  Biso   1.000  C
  C10      1.0000 0.28580  0.62430  0.54790  Biso   1.000  C
  H7       1.0000 0.80690  0.40690  0.46310  Biso   1.000  H
  H8       1.0000 0.19310  0.59310  0.53690  Biso   1.000  H
  C11      1.0000 0.40980  0.38050  0.58760  Biso   1.000  C
  C12      1.0000 0.59020  0.61950  0.41240  Biso   1.000  C
  H9       1.0000 0.46150  0.43360  0.64510  Biso   1.000  H
  H10      1.0000 0.53850  0.56640  0.35490  Biso   1.000  H
  H11      1.0000 0.34160  0.41540  0.56500  Biso   1.000  H
  H12      1.0000 0.65840  0.58460  0.43500  Biso   1.000  H
  C13      1.0000 0.34150  0.27430  0.61590  Biso   1.000  C
  C14      1.0000 0.65850  0.72570  0.38410  Biso   1.000  C
  H13      1.0000 0.29100  0.22040  0.55840  Biso   1.000  H
  H14      1.0000 0.70900  0.77960  0.44160  Biso   1.000  H
  H15      1.0000 0.27790  0.29200  0.66350  Biso   1.000  H
  H16      1.0000 0.72210  0.70800  0.33650  Biso   1.000  H
  C15      1.0000 0.44070  0.22160  0.65860  Biso   1.000  C
  C16      1.0000 0.55930  0.77840  0.34140  Biso   1.000  C
  H17      1.0000 0.48330  0.27250  0.72020  Biso   1.000  H
  H18      1.0000 0.51670  0.72750  0.27980  Biso   1.000  H
  H19      1.0000 0.51080  0.21350  0.61430  Biso   1.000  H
  H20      1.0000 0.48920  0.78650  0.38570  Biso   1.000  H
  C17      1.0000 0.38070  0.10930  0.67680  Biso   1.000  C
  C18      1.0000 0.61930  0.89070  0.32320  Biso   1.000  C
  C19      1.0000 0.38500  0.09260  0.76910  Biso   1.000  C
  C20      1.0000 0.61500  0.90740  0.23090  Biso   1.000  C
  H21      1.0000 0.42350  0.15220  0.82250  Biso   1.000  H
  H22      1.0000 0.57650  0.84780  0.17750  Biso   1.000  H
  C21      1.0000 0.33260  0.98790  0.78190  Biso   1.000  C
  C22      1.0000 0.66740  0.01210  0.21810  Biso   1.000  C
  H23      1.0000 0.33690  0.97720  0.84550  Biso   1.000  H
  H24      1.0000 0.66310  0.02280  0.15450  Biso   1.000  H
  N3       1.0000 0.27560  0.89950  0.71020  Biso   1.000  N
  N4       1.0000 0.72440  0.10050  0.28980  Biso   1.000  N
  C23      1.0000 0.26970  0.91890  0.62130  Biso   1.000  C
  C24      1.0000 0.73030  0.08110  0.37870  Biso   1.000  C
  H25      1.0000 0.22910  0.85870  0.56900  Biso   1.000  H
  H26      1.0000 0.77090  0.14130  0.43100  Biso   1.000  H
  C25      1.0000 0.31930  0.02080  0.60250  Biso   1.000  C
  C26      1.0000 0.68070  0.97920  0.39750  Biso   1.000  C
  H27      1.0000 0.31150  0.03030  0.53860  Biso   1.000  H
  H28      1.0000 0.68850  0.96970  0.46140  Biso   1.000  H
  N5       1.0000 0.80360  0.39500  0.22110  Biso   1.000  N
  N6       1.0000 0.19640  0.60500  0.77890  Biso   1.000  N
  C27      1.0000 0.91930  0.44460  0.19030  Biso   1.000  C
  C28      1.0000 0.08070  0.55540  0.80970  Biso   1.000  C
  H29      1.0000 0.99690  0.41870  0.20060  Biso   1.000  H
  H30      1.0000 0.00310  0.58130  0.79940  Biso   1.000  H
  C29      1.0000 0.92740  0.52930  0.14550  Biso   1.000  C
  C30      1.0000 0.07260  0.47070  0.85450  Biso   1.000  C
  H31      1.0000 0.01000  0.56100  0.12520  Biso   1.000  H
  H32      1.0000 0.99000  0.43900  0.87480  Biso   1.000  H
  C31      1.0000 0.81650  0.57080  0.12860  Biso   1.000  C
  C32      1.0000 0.18350  0.42920  0.87140  Biso   1.000  C
  C33      1.0000 0.70120  0.52170  0.16270  Biso   1.000  C
  C34      1.0000 0.29880  0.47830  0.83730  Biso   1.000  C
  H33      1.0000 0.62290  0.54770  0.15520  Biso   1.000  H
  H34      1.0000 0.37710  0.45230  0.84480  Biso   1.000  H
  C35      1.0000 0.69910  0.43780  0.20640  Biso   1.000  C
  C36      1.0000 0.30090  0.56220  0.79360  Biso   1.000  C
  H35      1.0000 0.61770  0.40650  0.22840  Biso   1.000  H
  H36      1.0000 0.38230  0.59350  0.77160  Biso   1.000  H
  C37      1.0000 0.82410  0.66360  0.07810  Biso   1.000  C
  C38      1.0000 0.17590  0.33640  0.92190  Biso   1.000  C
  H37      1.0000 0.73350  0.66510  0.05460  Biso   1.000  H
  H38      1.0000 0.26650  0.33490  0.94540  Biso   1.000  H
  H39      1.0000 0.87550  0.64990  0.02160  Biso   1.000  H
  H40      1.0000 0.12450  0.35010  0.97840  Biso   1.000  H
  C39      1.0000 0.88880  0.77500  0.14420  Biso   1.000  C
  C40      1.0000 0.11120  0.22500  0.85580  Biso   1.000  C
  H41      1.0000 0.83480  0.78980  0.19910  Biso   1.000  H
  H42      1.0000 0.16520  0.21020  0.80090  Biso   1.000  H
  H43      1.0000 0.97740  0.77180  0.17020  Biso   1.000  H
  H44      1.0000 0.02260  0.22820  0.82980  Biso   1.000  H
  C41      1.0000 0.90390  0.86960  0.09410  Biso   1.000  C
  C42      1.0000 0.09610  0.13040  0.90590  Biso   1.000  C
  H45      1.0000 0.94820  0.93990  0.14050  Biso   1.000  H
  H46      1.0000 0.05180  0.06010  0.85950  Biso   1.000  H
  H47      1.0000 0.81480  0.87690  0.07300  Biso   1.000  H
  H48      1.0000 0.18520  0.12310  0.92700  Biso   1.000  H
  C43      1.0000 0.98370  0.85310  0.00740  Biso   1.000  C
  C44      1.0000 0.01630  0.14690  0.99260  Biso   1.000  C
  C45      1.0000 0.11010  0.83450  0.01490  Biso   1.000  C
  C46      1.0000 0.88990  0.16550  0.98510  Biso   1.000  C
  H49      1.0000 0.15200  0.83850  0.07630  Biso   1.000  H
  H50      1.0000 0.84800  0.16150  0.92370  Biso   1.000  H
  C47      1.0000 0.17390  0.81070  0.93530  Biso   1.000  C
  C48      1.0000 0.82610  0.18930  0.06470  Biso   1.000  C
  H51      1.0000 0.26000  0.79730  0.94240  Biso   1.000  H
  H52      1.0000 0.74000  0.20270  0.05760  Biso   1.000  H
  N7       1.0000 0.12200  0.80500  0.84680  Biso   1.000  N
  N8       1.0000 0.87800  0.19500  0.15320  Biso   1.000  N
  C49      1.0000 0.00370  0.82880  0.83870  Biso   1.000  C
  C50      1.0000 0.99630  0.17120  0.16130  Biso   1.000  C
  H53      1.0000 0.96810  0.83110  0.77720  Biso   1.000  H
  H54      1.0000 0.03190  0.16890  0.22280  Biso   1.000  H
  C51      1.0000 0.93130  0.85020  0.91630  Biso   1.000  C
  C52      1.0000 0.06870  0.14980  0.08370  Biso   1.000  C
  H55      1.0000 0.84520  0.86310  0.90730  Biso   1.000  H
  H56      1.0000 0.15480  0.13690  0.09270  Biso   1.000  H
  N9       1.0000 0.05220  0.35680  0.40340  Biso   1.000  N
  N10      1.0000 0.94780  0.64320  0.59660  Biso   1.000  N
  O1       1.0000 0.14900  0.34740  0.44830  Biso   1.000  O
  O2       1.0000 0.85100  0.65260  0.55170  Biso   1.000  O
  O3       1.0000 0.95590  0.27370  0.37310  Biso   1.000  O
  O4       1.0000 0.04410  0.72630  0.62690  Biso   1.000  O
  O5       1.0000 0.04360  0.44910  0.39060  Biso   1.000  O
  O6       1.0000 0.95640  0.55090  0.60940  Biso   1.000  O
  C53      1.0000 0.30280  0.39990  0.20590  Biso   1.000  C
  C54      1.0000 0.69720  0.60010  0.79410  Biso   1.000  C
  H57      1.0000 0.39750  0.42650  0.22740  Biso   1.000  H
  H58      1.0000 0.60250  0.57350  0.77260  Biso   1.000  H
  H59      1.0000 0.29060  0.34090  0.14670  Biso   1.000  H
  H60      1.0000 0.70940  0.65910  0.85330  Biso   1.000  H
  H61      1.0000 0.25580  0.37030  0.25610  Biso   1.000  H
  H62      1.0000 0.74420  0.62970  0.74390  Biso   1.000  H
  O7       1.0000 0.25260  0.48720  0.18850  Biso   1.000  O
  O8       1.0000 0.74740  0.51280  0.81150  Biso   1.000  O
  H63      1.0000 0.31370  0.53050  0.16530  Biso   1.000  H
  H64      1.0000 0.68630  0.46950  0.83470  Biso   1.000  H
  Cl1      1.0000 0.29840  0.00568  0.24017  Biso   1.000  Cl
  Cl2      1.0000 0.70160  0.99432  0.75983  Biso   1.000  Cl
  Cl3      1.0000 0.07820  0.05664  0.37608  Biso   1.000  Cl
  Cl4      1.0000 0.92180  0.94336  0.62392  Biso   1.000  Cl
  C55      1.0000 0.21200  0.90500  0.29310  Biso   1.000  C
  C56      1.0000 0.78800  0.09500  0.70690  Biso   1.000  C
  C57      1.0000 0.23960  0.80060  0.27170  Biso   1.000  C
  C58      1.0000 0.76040  0.19940  0.72830  Biso   1.000  C
  H65      1.0000 0.30390  0.78480  0.22850  Biso   1.000  H
  H66      1.0000 0.69610  0.21520  0.77150  Biso   1.000  H
  C59      1.0000 0.17380  0.72110  0.31330  Biso   1.000  C
  C60      1.0000 0.82620  0.27890  0.68670  Biso   1.000  C
  H67      1.0000 0.19560  0.65030  0.30050  Biso   1.000  H
  H68      1.0000 0.80440  0.34970  0.69950  Biso   1.000  H
  C61      1.0000 0.07470  0.73970  0.37440  Biso   1.000  C
  C62      1.0000 0.92530  0.26030  0.62560  Biso   1.000  C
  H69      1.0000 0.02900  0.68270  0.40260  Biso   1.000  H
  H70      1.0000 0.97100  0.31730  0.59740  Biso   1.000  H
  C63      1.0000 0.04510  0.84520  0.39280  Biso   1.000  C
  C64      1.0000 0.95490  0.15480  0.60720  Biso   1.000  C
  H71      1.0000 0.97660  0.85980  0.43250  Biso   1.000  H
  H72      1.0000 0.02340  0.14020  0.56750  Biso   1.000  H
  C65      1.0000 0.11410  0.92650  0.35410  Biso   1.000  C
  C66      1.0000 0.88590  0.07350  0.64590  Biso   1.000  C
  N11      1.0000 0.55830  0.35630  0.96490  Biso   1.000  N
  N12      1.0000 0.44170  0.64370  0.03510  Biso   1.000  N
  O9       1.0000 0.56840  0.43050  0.93230  Biso   1.000  O
  O10      1.0000 0.43160  0.56950  0.06770  Biso   1.000  O
  O11      1.0000 0.63650  0.30110  0.93590  Biso   1.000  O
  O12      1.0000 0.36350  0.69890  0.06410  Biso   1.000  O
  O13      1.0000 0.47360  0.32280  0.02300  Biso   1.000  O
  O14      1.0000 0.52640  0.67720  0.97700  Biso   1.000  O
  C67      1.0000 0.45500  0.07940  0.04070  Biso   1.000  C
  C68      1.0000 0.54500  0.92060  0.95930  Biso   1.000  C
  H73      1.0000 0.51530  0.07340  0.98970  Biso   1.000  H
  H74      1.0000 0.48470  0.92660  0.01030  Biso   1.000  H
  H75      1.0000 0.37280  0.09410  0.01600  Biso   1.000  H
  H76      1.0000 0.62720  0.90590  0.98400  Biso   1.000  H
  H77      1.0000 0.43480  0.00950  0.06180  Biso   1.000  H
  H78      1.0000 0.56520  0.99050  0.93820  Biso   1.000  H
  O15      1.0000 0.51830  0.17130  0.12260  Biso   1.000  O
  O16      1.0000 0.48170  0.82870  0.87740  Biso   1.000  O
  H79      1.0000 0.52200  0.23240  0.10760  Biso   1.000  H
  H80      1.0000 0.47800  0.76760  0.89240  Biso   1.000  H
  N13      1.0000 0.47770  0.18690  0.05010  Biso   1.000  N
  N14      1.0000 0.52230  0.81310  0.94990  Biso   1.000  N
  O17      1.0000 0.55250  0.21580  0.99120  Biso   1.000  O
  O18      1.0000 0.44750  0.78420  0.00880  Biso   1.000  O
  O19      1.0000 0.36590  0.15730  0.01740  Biso   1.000  O
  O20      1.0000 0.63410  0.84270  0.98260  Biso   1.000  O
