data_image0
_cell_length_a       18.744
_cell_length_b       18.744
_cell_length_c       29.259
_cell_angle_alpha    90
_cell_angle_beta     90
_cell_angle_gamma    90

_symmetry_space_group_name_H-M    "P 1"
_symmetry_int_tables_number       1

loop_
  _symmetry_equiv_pos_as_xyz
  'x, y, z'

loop_
  _atom_site_label
  _atom_site_occupancy
  _atom_site_fract_x
  _atom_site_fract_y
  _atom_site_fract_z
  _atom_site_thermal_displace_type
  _atom_site_B_iso_or_equiv
  _atom_site_type_symbol
  Cu1      1.0000 0.00000  0.54020  0.00000  Biso   1.000  Cu
  Cu2      1.0000 0.00000  0.45980  0.00000  Biso   1.000  Cu
  Cu3      1.0000 0.45980  0.00000  0.50000  Biso   1.000  Cu
  Cu4      1.0000 0.54020  0.00000  0.50000  Biso   1.000  Cu
  C1       1.0000 0.59020  0.51730  0.24040  Biso   1.000  C
  C2       1.0000 0.40980  0.48270  0.24040  Biso   1.000  C
  C3       1.0000 0.48270  0.59020  0.74040  Biso   1.000  C
  C4       1.0000 0.51730  0.40980  0.74040  Biso   1.000  C
  C5       1.0000 0.40980  0.51730  0.75960  Biso   1.000  C
  C6       1.0000 0.59020  0.48270  0.75960  Biso   1.000  C
  C7       1.0000 0.51730  0.59020  0.25960  Biso   1.000  C
  C8       1.0000 0.48270  0.40980  0.25960  Biso   1.000  C
  C9       1.0000 0.64200  0.51440  0.20650  Biso   1.000  C
  C10      1.0000 0.35800  0.48560  0.20650  Biso   1.000  C
  C11      1.0000 0.48560  0.64200  0.70650  Biso   1.000  C
  C12      1.0000 0.51440  0.35800  0.70650  Biso   1.000  C
  C13      1.0000 0.35800  0.51440  0.79350  Biso   1.000  C
  C14      1.0000 0.64200  0.48560  0.79350  Biso   1.000  C
  C15      1.0000 0.51440  0.64200  0.29350  Biso   1.000  C
  C16      1.0000 0.48560  0.35800  0.29350  Biso   1.000  C
  C17      1.0000 0.68140  0.45240  0.20010  Biso   1.000  C
  C18      1.0000 0.31860  0.54760  0.20010  Biso   1.000  C
  C19      1.0000 0.54760  0.68140  0.70010  Biso   1.000  C
  C20      1.0000 0.45240  0.31860  0.70010  Biso   1.000  C
  C21      1.0000 0.31860  0.45240  0.79990  Biso   1.000  C
  C22      1.0000 0.68140  0.54760  0.79990  Biso   1.000  C
  C23      1.0000 0.45240  0.68140  0.29990  Biso   1.000  C
  C24      1.0000 0.54760  0.31860  0.29990  Biso   1.000  C
  C25      1.0000 0.66900  0.39330  0.22760  Biso   1.000  C
  C26      1.0000 0.33100  0.60670  0.22760  Biso   1.000  C
  C27      1.0000 0.60670  0.66900  0.72760  Biso   1.000  C
  C28      1.0000 0.39330  0.33100  0.72760  Biso   1.000  C
  C29      1.0000 0.33100  0.39330  0.77240  Biso   1.000  C
  C30      1.0000 0.66900  0.60670  0.77240  Biso   1.000  C
  C31      1.0000 0.39330  0.66900  0.27240  Biso   1.000  C
  C32      1.0000 0.60670  0.33100  0.27240  Biso   1.000  C
  C33      1.0000 0.61720  0.39620  0.26160  Biso   1.000  C
  C34      1.0000 0.38280  0.60380  0.26160  Biso   1.000  C
  C35      1.0000 0.60380  0.61720  0.76160  Biso   1.000  C
  C36      1.0000 0.39620  0.38280  0.76160  Biso   1.000  C
  C37      1.0000 0.38280  0.39620  0.73840  Biso   1.000  C
  C38      1.0000 0.61720  0.60380  0.73840  Biso   1.000  C
  C39      1.0000 0.39620  0.61720  0.23840  Biso   1.000  C
  C40      1.0000 0.60380  0.38280  0.23840  Biso   1.000  C
  C41      1.0000 0.57780  0.45820  0.26800  Biso   1.000  C
  C42      1.0000 0.42220  0.54180  0.26800  Biso   1.000  C
  C43      1.0000 0.54180  0.57780  0.76800  Biso   1.000  C
  C44      1.0000 0.45820  0.42220  0.76800  Biso   1.000  C
  C45      1.0000 0.42220  0.45820  0.73200  Biso   1.000  C
  C46      1.0000 0.57780  0.54180  0.73200  Biso   1.000  C
  C47      1.0000 0.45820  0.57780  0.23200  Biso   1.000  C
  C48      1.0000 0.54180  0.42220  0.23200  Biso   1.000  C
  C49      1.0000 0.89820  0.44300  0.05820  Biso   1.000  C
  C50      1.0000 0.10180  0.55700  0.05820  Biso   1.000  C
  C51      1.0000 0.55700  0.89820  0.55820  Biso   1.000  C
  C52      1.0000 0.44300  0.10180  0.55820  Biso   1.000  C
  C53      1.0000 0.10180  0.44300  0.94180  Biso   1.000  C
  C54      1.0000 0.89820  0.55700  0.94180  Biso   1.000  C
  C55      1.0000 0.44300  0.89820  0.44180  Biso   1.000  C
  C56      1.0000 0.55700  0.10180  0.44180  Biso   1.000  C
  C57      1.0000 0.89600  0.53500  0.06590  Biso   1.000  C
  C58      1.0000 0.10400  0.46500  0.06590  Biso   1.000  C
  C59      1.0000 0.46500  0.89600  0.56590  Biso   1.000  C
  C60      1.0000 0.53500  0.10400  0.56590  Biso   1.000  C
  C61      1.0000 0.10400  0.53500  0.93410  Biso   1.000  C
  C62      1.0000 0.89600  0.46500  0.93410  Biso   1.000  C
  C63      1.0000 0.53500  0.89600  0.43410  Biso   1.000  C
  C64      1.0000 0.46500  0.10400  0.43410  Biso   1.000  C
  C65      1.0000 0.73760  0.44400  0.16120  Biso   1.000  C
  C66      1.0000 0.26240  0.55600  0.16120  Biso   1.000  C
  C67      1.0000 0.55600  0.73760  0.66120  Biso   1.000  C
  C68      1.0000 0.44400  0.26240  0.66120  Biso   1.000  C
  C69      1.0000 0.26240  0.44400  0.83880  Biso   1.000  C
  C70      1.0000 0.73760  0.55600  0.83880  Biso   1.000  C
  C71      1.0000 0.44400  0.73760  0.33880  Biso   1.000  C
  C72      1.0000 0.55600  0.26240  0.33880  Biso   1.000  C
  C73      1.0000 0.76540  0.50720  0.14330  Biso   1.000  C
  C74      1.0000 0.23460  0.49280  0.14330  Biso   1.000  C
  C75      1.0000 0.49280  0.76540  0.64330  Biso   1.000  C
  C76      1.0000 0.50720  0.23460  0.64330  Biso   1.000  C
  C77      1.0000 0.23460  0.50720  0.85670  Biso   1.000  C
  C78      1.0000 0.76540  0.49280  0.85670  Biso   1.000  C
  C79      1.0000 0.50720  0.76540  0.35670  Biso   1.000  C
  C80      1.0000 0.49280  0.23460  0.35670  Biso   1.000  C
  C81      1.0000 0.81510  0.50440  0.10810  Biso   1.000  C
  C82      1.0000 0.18490  0.49560  0.10810  Biso   1.000  C
  C83      1.0000 0.49560  0.81510  0.60810  Biso   1.000  C
  C84      1.0000 0.50440  0.18490  0.60810  Biso   1.000  C
  C85      1.0000 0.18490  0.50440  0.89190  Biso   1.000  C
  C86      1.0000 0.81510  0.49560  0.89190  Biso   1.000  C
  C87      1.0000 0.50440  0.81510  0.39190  Biso   1.000  C
  C88      1.0000 0.49560  0.18490  0.39190  Biso   1.000  C
  C89      1.0000 0.83700  0.43900  0.09080  Biso   1.000  C
  C90      1.0000 0.16300  0.56100  0.09080  Biso   1.000  C
  C91      1.0000 0.56100  0.83700  0.59080  Biso   1.000  C
  C92      1.0000 0.43900  0.16300  0.59080  Biso   1.000  C
  C93      1.0000 0.16300  0.43900  0.90920  Biso   1.000  C
  C94      1.0000 0.83700  0.56100  0.90920  Biso   1.000  C
  C95      1.0000 0.43900  0.83700  0.40920  Biso   1.000  C
  C96      1.0000 0.56100  0.16300  0.40920  Biso   1.000  C
  C97      1.0000 0.80920  0.37610  0.10880  Biso   1.000  C
  C98      1.0000 0.19080  0.62390  0.10880  Biso   1.000  C
  C99      1.0000 0.62390  0.80920  0.60880  Biso   1.000  C
  C100     1.0000 0.37610  0.19080  0.60880  Biso   1.000  C
  C101     1.0000 0.19080  0.37610  0.89120  Biso   1.000  C
  C102     1.0000 0.80920  0.62390  0.89120  Biso   1.000  C
  C103     1.0000 0.37610  0.80920  0.39120  Biso   1.000  C
  C104     1.0000 0.62390  0.19080  0.39120  Biso   1.000  C
  C105     1.0000 0.75940  0.37890  0.14400  Biso   1.000  C
  C106     1.0000 0.24060  0.62110  0.14400  Biso   1.000  C
  C107     1.0000 0.62110  0.75940  0.64400  Biso   1.000  C
  C108     1.0000 0.37890  0.24060  0.64400  Biso   1.000  C
  C109     1.0000 0.24060  0.37890  0.85600  Biso   1.000  C
  C110     1.0000 0.75940  0.62110  0.85600  Biso   1.000  C
  C111     1.0000 0.37890  0.75940  0.35600  Biso   1.000  C
  C112     1.0000 0.62110  0.24060  0.35600  Biso   1.000  C
  C113     1.0000 0.53900  0.48000  0.20060  Biso   1.000  C
  C114     1.0000 0.46100  0.52000  0.20060  Biso   1.000  C
  C115     1.0000 0.52000  0.53900  0.70060  Biso   1.000  C
  C116     1.0000 0.48000  0.46100  0.70060  Biso   1.000  C
  C117     1.0000 0.46100  0.48000  0.79940  Biso   1.000  C
  C118     1.0000 0.53900  0.52000  0.79940  Biso   1.000  C
  C119     1.0000 0.48000  0.53900  0.29940  Biso   1.000  C
  C120     1.0000 0.52000  0.46100  0.29940  Biso   1.000  C
  C121     1.0000 0.59400  0.50000  0.17020  Biso   1.000  C
  C122     1.0000 0.40600  0.50000  0.17020  Biso   1.000  C
  C123     1.0000 0.50000  0.59400  0.67020  Biso   1.000  C
  C124     1.0000 0.50000  0.40600  0.67020  Biso   1.000  C
  C125     1.0000 0.40600  0.50000  0.82980  Biso   1.000  C
  C126     1.0000 0.59400  0.50000  0.82980  Biso   1.000  C
  C127     1.0000 0.50000  0.59400  0.32980  Biso   1.000  C
  C128     1.0000 0.50000  0.40600  0.32980  Biso   1.000  C
  C129     1.0000 0.65700  0.46000  0.17620  Biso   1.000  C
  C130     1.0000 0.34300  0.54000  0.17620  Biso   1.000  C
  C131     1.0000 0.54000  0.65700  0.67620  Biso   1.000  C
  C132     1.0000 0.46000  0.34300  0.67620  Biso   1.000  C
  C133     1.0000 0.34300  0.46000  0.82380  Biso   1.000  C
  C134     1.0000 0.65700  0.54000  0.82380  Biso   1.000  C
  C135     1.0000 0.46000  0.65700  0.32380  Biso   1.000  C
  C136     1.0000 0.54000  0.34300  0.32380  Biso   1.000  C
  C137     1.0000 0.66000  0.40600  0.20850  Biso   1.000  C
  C138     1.0000 0.34000  0.59400  0.20850  Biso   1.000  C
  C139     1.0000 0.59400  0.66000  0.70850  Biso   1.000  C
  C140     1.0000 0.40600  0.34000  0.70850  Biso   1.000  C
  C141     1.0000 0.34000  0.40600  0.79150  Biso   1.000  C
  C142     1.0000 0.66000  0.59400  0.79150  Biso   1.000  C
  C143     1.0000 0.40600  0.66000  0.29150  Biso   1.000  C
  C144     1.0000 0.59400  0.34000  0.29150  Biso   1.000  C
  C145     1.0000 0.72900  0.49500  0.15970  Biso   1.000  C
  C146     1.0000 0.27100  0.50500  0.15970  Biso   1.000  C
  C147     1.0000 0.50500  0.72900  0.65970  Biso   1.000  C
  C148     1.0000 0.49500  0.27100  0.65970  Biso   1.000  C
  C149     1.0000 0.27100  0.49500  0.84030  Biso   1.000  C
  C150     1.0000 0.72900  0.50500  0.84030  Biso   1.000  C
  C151     1.0000 0.49500  0.72900  0.34030  Biso   1.000  C
  C152     1.0000 0.50500  0.27100  0.34030  Biso   1.000  C
  C153     1.0000 0.77600  0.44200  0.14540  Biso   1.000  C
  C154     1.0000 0.22400  0.55800  0.14540  Biso   1.000  C
  C155     1.0000 0.55800  0.77600  0.64540  Biso   1.000  C
  C156     1.0000 0.44200  0.22400  0.64540  Biso   1.000  C
  C157     1.0000 0.22400  0.44200  0.85460  Biso   1.000  C
  C158     1.0000 0.77600  0.55800  0.85460  Biso   1.000  C
  C159     1.0000 0.44200  0.77600  0.35460  Biso   1.000  C
  C160     1.0000 0.55800  0.22400  0.35460  Biso   1.000  C
  C161     1.0000 0.83220  0.46000  0.11630  Biso   1.000  C
  C162     1.0000 0.16780  0.54000  0.11630  Biso   1.000  C
  C163     1.0000 0.54000  0.83220  0.61630  Biso   1.000  C
  C164     1.0000 0.46000  0.16780  0.61630  Biso   1.000  C
  C165     1.0000 0.16780  0.46000  0.88370  Biso   1.000  C
  C166     1.0000 0.83220  0.54000  0.88370  Biso   1.000  C
  C167     1.0000 0.46000  0.83220  0.38370  Biso   1.000  C
  C168     1.0000 0.54000  0.16780  0.38370  Biso   1.000  C
  C169     1.0000 0.84080  0.53000  0.10170  Biso   1.000  C
  C170     1.0000 0.15920  0.47000  0.10170  Biso   1.000  C
  C171     1.0000 0.47000  0.84080  0.60170  Biso   1.000  C
  C172     1.0000 0.53000  0.15920  0.60170  Biso   1.000  C
  C173     1.0000 0.15920  0.53000  0.89830  Biso   1.000  C
  C174     1.0000 0.84080  0.47000  0.89830  Biso   1.000  C
  C175     1.0000 0.53000  0.84080  0.39830  Biso   1.000  C
  C176     1.0000 0.47000  0.15920  0.39830  Biso   1.000  C
  C177     1.0000 0.79330  0.58240  0.11600  Biso   1.000  C
  C178     1.0000 0.20670  0.41760  0.11600  Biso   1.000  C
  C179     1.0000 0.41760  0.79330  0.61600  Biso   1.000  C
  C180     1.0000 0.58240  0.20670  0.61600  Biso   1.000  C
  C181     1.0000 0.20670  0.58240  0.88400  Biso   1.000  C
  C182     1.0000 0.79330  0.41760  0.88400  Biso   1.000  C
  C183     1.0000 0.58240  0.79330  0.38400  Biso   1.000  C
  C184     1.0000 0.41760  0.20670  0.38400  Biso   1.000  C
  C185     1.0000 0.73740  0.56480  0.14510  Biso   1.000  C
  C186     1.0000 0.26260  0.43520  0.14510  Biso   1.000  C
  C187     1.0000 0.43520  0.73740  0.64510  Biso   1.000  C
  C188     1.0000 0.56480  0.26260  0.64510  Biso   1.000  C
  C189     1.0000 0.26260  0.56480  0.85490  Biso   1.000  C
  C190     1.0000 0.73740  0.43520  0.85490  Biso   1.000  C
  C191     1.0000 0.56480  0.73740  0.35490  Biso   1.000  C
  C192     1.0000 0.43520  0.26260  0.35490  Biso   1.000  C
  C193     1.0000 0.64500  0.58500  0.14450  Biso   1.000  C
  C194     1.0000 0.35500  0.41500  0.14450  Biso   1.000  C
  C195     1.0000 0.41500  0.64500  0.64450  Biso   1.000  C
  C196     1.0000 0.58500  0.35500  0.64450  Biso   1.000  C
  C197     1.0000 0.35500  0.58500  0.85550  Biso   1.000  C
  C198     1.0000 0.64500  0.41500  0.85550  Biso   1.000  C
  C199     1.0000 0.58500  0.64500  0.35550  Biso   1.000  C
  C200     1.0000 0.41500  0.35500  0.35550  Biso   1.000  C
  C201     1.0000 0.58900  0.63500  0.12400  Biso   1.000  C
  C202     1.0000 0.41100  0.36500  0.12400  Biso   1.000  C
  C203     1.0000 0.36500  0.58900  0.62400  Biso   1.000  C
  C204     1.0000 0.63500  0.41100  0.62400  Biso   1.000  C
  C205     1.0000 0.41100  0.63500  0.87600  Biso   1.000  C
  C206     1.0000 0.58900  0.36500  0.87600  Biso   1.000  C
  C207     1.0000 0.63500  0.58900  0.37600  Biso   1.000  C
  C208     1.0000 0.36500  0.41100  0.37600  Biso   1.000  C
  O1       1.0000 0.91700  0.50800  0.04420  Biso   1.000  O
  O2       1.0000 0.08300  0.49200  0.04420  Biso   1.000  O
  O3       1.0000 0.49200  0.91700  0.54420  Biso   1.000  O
  O4       1.0000 0.50800  0.08300  0.54420  Biso   1.000  O
  O5       1.0000 0.08300  0.50800  0.95580  Biso   1.000  O
  O6       1.0000 0.91700  0.49200  0.95580  Biso   1.000  O
  O7       1.0000 0.50800  0.91700  0.45580  Biso   1.000  O
  O8       1.0000 0.49200  0.08300  0.45580  Biso   1.000  O
  O9       1.0000 0.92470  0.38720  0.03690  Biso   1.000  O
  O10      1.0000 0.07530  0.61280  0.03690  Biso   1.000  O
  O11      1.0000 0.61280  0.92470  0.53690  Biso   1.000  O
  O12      1.0000 0.38720  0.07530  0.53690  Biso   1.000  O
  O13      1.0000 0.07530  0.38720  0.96310  Biso   1.000  O
  O14      1.0000 0.92470  0.61280  0.96310  Biso   1.000  O
  O15      1.0000 0.38720  0.92470  0.46310  Biso   1.000  O
  O16      1.0000 0.61280  0.07530  0.46310  Biso   1.000  O
  O17      1.0000 0.92900  0.47500  0.05490  Biso   1.000  O
  O18      1.0000 0.07100  0.52500  0.05490  Biso   1.000  O
  O19      1.0000 0.52500  0.92900  0.55490  Biso   1.000  O
  O20      1.0000 0.47500  0.07100  0.55490  Biso   1.000  O
  O21      1.0000 0.07100  0.47500  0.94510  Biso   1.000  O
  O22      1.0000 0.92900  0.52500  0.94510  Biso   1.000  O
  O23      1.0000 0.47500  0.92900  0.44510  Biso   1.000  O
  O24      1.0000 0.52500  0.07100  0.44510  Biso   1.000  O
  O25      1.0000 0.92250  0.59100  0.04770  Biso   1.000  O
  O26      1.0000 0.07750  0.40900  0.04770  Biso   1.000  O
  O27      1.0000 0.40900  0.92250  0.54770  Biso   1.000  O
  O28      1.0000 0.59100  0.07750  0.54770  Biso   1.000  O
  O29      1.0000 0.07750  0.59100  0.95230  Biso   1.000  O
  O30      1.0000 0.92250  0.40900  0.95230  Biso   1.000  O
  O31      1.0000 0.59100  0.92250  0.45230  Biso   1.000  O
  O32      1.0000 0.40900  0.07750  0.45230  Biso   1.000  O
  O33      1.0000 0.65700  0.58330  0.19300  Biso   1.000  O
  O34      1.0000 0.34300  0.41670  0.19300  Biso   1.000  O
  O35      1.0000 0.41670  0.65700  0.69300  Biso   1.000  O
  O36      1.0000 0.58330  0.34300  0.69300  Biso   1.000  O
  O37      1.0000 0.34300  0.58330  0.80700  Biso   1.000  O
  O38      1.0000 0.65700  0.41670  0.80700  Biso   1.000  O
  O39      1.0000 0.58330  0.65700  0.30700  Biso   1.000  O
  O40      1.0000 0.41670  0.34300  0.30700  Biso   1.000  O
  O41      1.0000 0.00000  0.34000  0.00000  Biso   1.000  O
  O42      1.0000 0.00000  0.66000  0.00000  Biso   1.000  O
  O43      1.0000 0.66000  0.00000  0.50000  Biso   1.000  O
  O44      1.0000 0.34000  0.00000  0.50000  Biso   1.000  O
  Cu5      1.0000 0.00000  0.38780  0.00000  Biso   1.000  Cu
  Cu6      1.0000 0.00000  0.61220  0.00000  Biso   1.000  Cu
  Cu7      1.0000 0.61220  0.00000  0.50000  Biso   1.000  Cu
  Cu8      1.0000 0.38780  0.00000  0.50000  Biso   1.000  Cu
  O45      1.0000 0.00000  0.26400  0.00000  Biso   1.000  O
  O46      1.0000 0.00000  0.73600  0.00000  Biso   1.000  O
  O47      1.0000 0.73600  0.00000  0.50000  Biso   1.000  O
  O48      1.0000 0.26400  0.00000  0.50000  Biso   1.000  O
