data_image0
_cell_length_a       17.5328
_cell_length_b       30.3514
_cell_length_c       49.1818
_cell_angle_alpha    90
_cell_angle_beta     90
_cell_angle_gamma    90

_symmetry_space_group_name_H-M    "P 1"
_symmetry_int_tables_number       1

loop_
  _symmetry_equiv_pos_as_xyz
  'x, y, z'

loop_
  _atom_site_label
  _atom_site_occupancy
  _atom_site_fract_x
  _atom_site_fract_y
  _atom_site_fract_z
  _atom_site_thermal_displace_type
  _atom_site_B_iso_or_equiv
  _atom_site_type_symbol
  C1       1.0000 0.16210  0.82770  0.60994  Biso   1.000  C
  C2       1.0000 0.83790  0.17230  0.60994  Biso   1.000  C
  C3       1.0000 0.83790  0.82770  0.39006  Biso   1.000  C
  C4       1.0000 0.16210  0.17230  0.39006  Biso   1.000  C
  C5       1.0000 0.66210  0.32770  0.60994  Biso   1.000  C
  C6       1.0000 0.33790  0.67230  0.60994  Biso   1.000  C
  C7       1.0000 0.33790  0.32770  0.39006  Biso   1.000  C
  C8       1.0000 0.66210  0.67230  0.39006  Biso   1.000  C
  C9       1.0000 0.09250  0.81610  0.59840  Biso   1.000  C
  C10      1.0000 0.90750  0.18390  0.59840  Biso   1.000  C
  C11      1.0000 0.90750  0.81610  0.40160  Biso   1.000  C
  C12      1.0000 0.09250  0.18390  0.40160  Biso   1.000  C
  C13      1.0000 0.59250  0.31610  0.59840  Biso   1.000  C
  C14      1.0000 0.40750  0.68390  0.59840  Biso   1.000  C
  C15      1.0000 0.40750  0.31610  0.40160  Biso   1.000  C
  C16      1.0000 0.59250  0.68390  0.40160  Biso   1.000  C
  C17      1.0000 0.06380  0.84010  0.57660  Biso   1.000  C
  C18      1.0000 0.93620  0.15990  0.57660  Biso   1.000  C
  C19      1.0000 0.93620  0.84010  0.42340  Biso   1.000  C
  C20      1.0000 0.06380  0.15990  0.42340  Biso   1.000  C
  C21      1.0000 0.56380  0.34010  0.57660  Biso   1.000  C
  C22      1.0000 0.43620  0.65990  0.57660  Biso   1.000  C
  C23      1.0000 0.43620  0.34010  0.42340  Biso   1.000  C
  C24      1.0000 0.56380  0.65990  0.42340  Biso   1.000  C
  C25      1.0000 0.10470  0.87560  0.56631  Biso   1.000  C
  C26      1.0000 0.89530  0.12440  0.56631  Biso   1.000  C
  C27      1.0000 0.89530  0.87560  0.43369  Biso   1.000  C
  C28      1.0000 0.10470  0.12440  0.43369  Biso   1.000  C
  C29      1.0000 0.60470  0.37560  0.56631  Biso   1.000  C
  C30      1.0000 0.39530  0.62440  0.56631  Biso   1.000  C
  C31      1.0000 0.39530  0.37560  0.43369  Biso   1.000  C
  C32      1.0000 0.60470  0.62440  0.43369  Biso   1.000  C
  C33      1.0000 0.17430  0.88720  0.57780  Biso   1.000  C
  C34      1.0000 0.82570  0.11280  0.57780  Biso   1.000  C
  C35      1.0000 0.82570  0.88720  0.42220  Biso   1.000  C
  C36      1.0000 0.17430  0.11280  0.42220  Biso   1.000  C
  C37      1.0000 0.67430  0.38720  0.57780  Biso   1.000  C
  C38      1.0000 0.32570  0.61280  0.57780  Biso   1.000  C
  C39      1.0000 0.32570  0.38720  0.42220  Biso   1.000  C
  C40      1.0000 0.67430  0.61280  0.42220  Biso   1.000  C
  C41      1.0000 0.20300  0.86320  0.59960  Biso   1.000  C
  C42      1.0000 0.79700  0.13680  0.59960  Biso   1.000  C
  C43      1.0000 0.79700  0.86320  0.40040  Biso   1.000  C
  C44      1.0000 0.20300  0.13680  0.40040  Biso   1.000  C
  C45      1.0000 0.70300  0.36320  0.59960  Biso   1.000  C
  C46      1.0000 0.29700  0.63680  0.59960  Biso   1.000  C
  C47      1.0000 0.29700  0.36320  0.40040  Biso   1.000  C
  C48      1.0000 0.70300  0.63680  0.40040  Biso   1.000  C
  Cu1      1.0000 0.18502  0.72810  0.66665  Biso   1.000  Cu
  Cu2      1.0000 0.81498  0.27190  0.66665  Biso   1.000  Cu
  Cu3      1.0000 0.81498  0.72810  0.33335  Biso   1.000  Cu
  Cu4      1.0000 0.18502  0.27190  0.33335  Biso   1.000  Cu
  Cu5      1.0000 0.68502  0.22810  0.66665  Biso   1.000  Cu
  Cu6      1.0000 0.31498  0.77190  0.66665  Biso   1.000  Cu
  Cu7      1.0000 0.31498  0.22810  0.33335  Biso   1.000  Cu
  Cu8      1.0000 0.68502  0.77190  0.33335  Biso   1.000  Cu
  C49      1.0000 0.34550  0.99530  0.94151  Biso   1.000  C
  C50      1.0000 0.65450  0.00470  0.94151  Biso   1.000  C
  C51      1.0000 0.65450  0.99530  0.05849  Biso   1.000  C
  C52      1.0000 0.34550  0.00470  0.05849  Biso   1.000  C
  C53      1.0000 0.84550  0.49530  0.94151  Biso   1.000  C
  C54      1.0000 0.15450  0.50470  0.94151  Biso   1.000  C
  C55      1.0000 0.15450  0.49530  0.05849  Biso   1.000  C
  C56      1.0000 0.84550  0.50470  0.05849  Biso   1.000  C
  C57      1.0000 0.32390  0.95410  0.93183  Biso   1.000  C
  C58      1.0000 0.67610  0.04590  0.93183  Biso   1.000  C
  C59      1.0000 0.67610  0.95410  0.06817  Biso   1.000  C
  C60      1.0000 0.32390  0.04590  0.06817  Biso   1.000  C
  C61      1.0000 0.82390  0.45410  0.93183  Biso   1.000  C
  C62      1.0000 0.17610  0.54590  0.93183  Biso   1.000  C
  C63      1.0000 0.17610  0.45410  0.06817  Biso   1.000  C
  C64      1.0000 0.82390  0.54590  0.06817  Biso   1.000  C
  C65      1.0000 0.26840  0.95080  0.91173  Biso   1.000  C
  C66      1.0000 0.73160  0.04920  0.91173  Biso   1.000  C
  C67      1.0000 0.73160  0.95080  0.08827  Biso   1.000  C
  C68      1.0000 0.26840  0.04920  0.08827  Biso   1.000  C
  C69      1.0000 0.76840  0.45080  0.91173  Biso   1.000  C
  C70      1.0000 0.23160  0.54920  0.91173  Biso   1.000  C
  C71      1.0000 0.23160  0.45080  0.08827  Biso   1.000  C
  C72      1.0000 0.76840  0.54920  0.08827  Biso   1.000  C
  C73      1.0000 0.23470  0.98860  0.90131  Biso   1.000  C
  C74      1.0000 0.76530  0.01140  0.90131  Biso   1.000  C
  C75      1.0000 0.76530  0.98860  0.09869  Biso   1.000  C
  C76      1.0000 0.23470  0.01140  0.09869  Biso   1.000  C
  C77      1.0000 0.73470  0.48860  0.90131  Biso   1.000  C
  C78      1.0000 0.26530  0.51140  0.90131  Biso   1.000  C
  C79      1.0000 0.26530  0.48860  0.09869  Biso   1.000  C
  C80      1.0000 0.73470  0.51140  0.09869  Biso   1.000  C
  C81      1.0000 0.25630  0.02980  0.91100  Biso   1.000  C
  C82      1.0000 0.74370  0.97020  0.91100  Biso   1.000  C
  C83      1.0000 0.74370  0.02980  0.08900  Biso   1.000  C
  C84      1.0000 0.25630  0.97020  0.08900  Biso   1.000  C
  C85      1.0000 0.75630  0.52980  0.91100  Biso   1.000  C
  C86      1.0000 0.24370  0.47020  0.91100  Biso   1.000  C
  C87      1.0000 0.24370  0.52980  0.08900  Biso   1.000  C
  C88      1.0000 0.75630  0.47020  0.08900  Biso   1.000  C
  C89      1.0000 0.31180  0.03320  0.93110  Biso   1.000  C
  C90      1.0000 0.68820  0.96680  0.93110  Biso   1.000  C
  C91      1.0000 0.68820  0.03320  0.06890  Biso   1.000  C
  C92      1.0000 0.31180  0.96680  0.06890  Biso   1.000  C
  C93      1.0000 0.81180  0.53320  0.93110  Biso   1.000  C
  C94      1.0000 0.18820  0.46680  0.93110  Biso   1.000  C
  C95      1.0000 0.18820  0.53320  0.06890  Biso   1.000  C
  C96      1.0000 0.81180  0.46680  0.06890  Biso   1.000  C
  Cu9      1.0000 0.50000  0.95628  0.00000  Biso   1.000  Cu
  Cu10     1.0000 0.50000  0.04372  0.00000  Biso   1.000  Cu
  Cu11     1.0000 0.00000  0.45628  0.00000  Biso   1.000  Cu
  Cu12     1.0000 0.00000  0.54372  0.00000  Biso   1.000  Cu
  C97      1.0000 0.17800  0.83270  0.72494  Biso   1.000  C
  C98      1.0000 0.82200  0.16730  0.72494  Biso   1.000  C
  C99      1.0000 0.82200  0.83270  0.27506  Biso   1.000  C
  C100     1.0000 0.17800  0.16730  0.27506  Biso   1.000  C
  C101     1.0000 0.67800  0.33270  0.72494  Biso   1.000  C
  C102     1.0000 0.32200  0.66730  0.72494  Biso   1.000  C
  C103     1.0000 0.32200  0.33270  0.27506  Biso   1.000  C
  C104     1.0000 0.67800  0.66730  0.27506  Biso   1.000  C
  C105     1.0000 0.22910  0.86350  0.73520  Biso   1.000  C
  C106     1.0000 0.77090  0.13650  0.73520  Biso   1.000  C
  C107     1.0000 0.77090  0.86350  0.26480  Biso   1.000  C
  C108     1.0000 0.22910  0.13650  0.26480  Biso   1.000  C
  C109     1.0000 0.72910  0.36350  0.73520  Biso   1.000  C
  C110     1.0000 0.27090  0.63650  0.73520  Biso   1.000  C
  C111     1.0000 0.27090  0.36350  0.26480  Biso   1.000  C
  C112     1.0000 0.72910  0.63650  0.26480  Biso   1.000  C
  C113     1.0000 0.20660  0.89210  0.75570  Biso   1.000  C
  C114     1.0000 0.79340  0.10790  0.75570  Biso   1.000  C
  C115     1.0000 0.79340  0.89210  0.24430  Biso   1.000  C
  C116     1.0000 0.20660  0.10790  0.24430  Biso   1.000  C
  C117     1.0000 0.70660  0.39210  0.75570  Biso   1.000  C
  C118     1.0000 0.29340  0.60790  0.75570  Biso   1.000  C
  C119     1.0000 0.29340  0.39210  0.24430  Biso   1.000  C
  C120     1.0000 0.70660  0.60790  0.24430  Biso   1.000  C
  C121     1.0000 0.13290  0.88980  0.76609  Biso   1.000  C
  C122     1.0000 0.86710  0.11020  0.76609  Biso   1.000  C
  C123     1.0000 0.86710  0.88980  0.23391  Biso   1.000  C
  C124     1.0000 0.13290  0.11020  0.23391  Biso   1.000  C
  C125     1.0000 0.63290  0.38980  0.76609  Biso   1.000  C
  C126     1.0000 0.36710  0.61020  0.76609  Biso   1.000  C
  C127     1.0000 0.36710  0.38980  0.23391  Biso   1.000  C
  C128     1.0000 0.63290  0.61020  0.23391  Biso   1.000  C
  C129     1.0000 0.08180  0.85900  0.75590  Biso   1.000  C
  C130     1.0000 0.91820  0.14100  0.75590  Biso   1.000  C
  C131     1.0000 0.91820  0.85900  0.24410  Biso   1.000  C
  C132     1.0000 0.08180  0.14100  0.24410  Biso   1.000  C
  C133     1.0000 0.58180  0.35900  0.75590  Biso   1.000  C
  C134     1.0000 0.41820  0.64100  0.75590  Biso   1.000  C
  C135     1.0000 0.41820  0.35900  0.24410  Biso   1.000  C
  C136     1.0000 0.58180  0.64100  0.24410  Biso   1.000  C
  C137     1.0000 0.10430  0.83040  0.73530  Biso   1.000  C
  C138     1.0000 0.89570  0.16960  0.73530  Biso   1.000  C
  C139     1.0000 0.89570  0.83040  0.26470  Biso   1.000  C
  C140     1.0000 0.10430  0.16960  0.26470  Biso   1.000  C
  C141     1.0000 0.60430  0.33040  0.73530  Biso   1.000  C
  C142     1.0000 0.39570  0.66960  0.73530  Biso   1.000  C
  C143     1.0000 0.39570  0.33040  0.26470  Biso   1.000  C
  C144     1.0000 0.60430  0.66960  0.26470  Biso   1.000  C
  P1       1.0000 0.00000  0.00000  0.59180  Biso   1.000  P
  P2       1.0000 0.00000  0.00000  0.40820  Biso   1.000  P
  P3       1.0000 0.50000  0.50000  0.59180  Biso   1.000  P
  P4       1.0000 0.50000  0.50000  0.40820  Biso   1.000  P
  O1       1.0000 0.06380  0.98000  0.56440  Biso   1.000  O
  O2       1.0000 0.93620  0.02000  0.56440  Biso   1.000  O
  O3       1.0000 0.93620  0.98000  0.43560  Biso   1.000  O
  O4       1.0000 0.06380  0.02000  0.43560  Biso   1.000  O
  O5       1.0000 0.56380  0.48000  0.56440  Biso   1.000  O
  O6       1.0000 0.43620  0.52000  0.56440  Biso   1.000  O
  O7       1.0000 0.43620  0.48000  0.43560  Biso   1.000  O
  O8       1.0000 0.56380  0.52000  0.43560  Biso   1.000  O
  O9       1.0000 0.93360  0.96730  0.60210  Biso   1.000  O
  O10      1.0000 0.06640  0.03270  0.60210  Biso   1.000  O
  O11      1.0000 0.06640  0.96730  0.39790  Biso   1.000  O
  O12      1.0000 0.93360  0.03270  0.39790  Biso   1.000  O
  O13      1.0000 0.43360  0.46730  0.60210  Biso   1.000  O
  O14      1.0000 0.56640  0.53270  0.60210  Biso   1.000  O
  O15      1.0000 0.56640  0.46730  0.39790  Biso   1.000  O
  O16      1.0000 0.43360  0.53270  0.39790  Biso   1.000  O
  C145     1.0000 0.01760  0.88180  0.52380  Biso   1.000  C
  C146     1.0000 0.98240  0.11820  0.52380  Biso   1.000  C
  C147     1.0000 0.98240  0.88180  0.47620  Biso   1.000  C
  C148     1.0000 0.01760  0.11820  0.47620  Biso   1.000  C
  C149     1.0000 0.51760  0.38180  0.52380  Biso   1.000  C
  C150     1.0000 0.48240  0.61820  0.52380  Biso   1.000  C
  C151     1.0000 0.48240  0.38180  0.47620  Biso   1.000  C
  C152     1.0000 0.51760  0.61820  0.47620  Biso   1.000  C
  C153     1.0000 0.04980  0.90500  0.54530  Biso   1.000  C
  C154     1.0000 0.95020  0.09500  0.54530  Biso   1.000  C
  C155     1.0000 0.95020  0.90500  0.45470  Biso   1.000  C
  C156     1.0000 0.04980  0.09500  0.45470  Biso   1.000  C
  C157     1.0000 0.54980  0.40500  0.54530  Biso   1.000  C
  C158     1.0000 0.45020  0.59500  0.54530  Biso   1.000  C
  C159     1.0000 0.45020  0.40500  0.45470  Biso   1.000  C
  C160     1.0000 0.54980  0.59500  0.45470  Biso   1.000  C
  C161     1.0000 0.04620  0.95080  0.54570  Biso   1.000  C
  C162     1.0000 0.95380  0.04920  0.54570  Biso   1.000  C
  C163     1.0000 0.95380  0.95080  0.45430  Biso   1.000  C
  C164     1.0000 0.04620  0.04920  0.45430  Biso   1.000  C
  C165     1.0000 0.54620  0.45080  0.54570  Biso   1.000  C
  C166     1.0000 0.45380  0.54920  0.54570  Biso   1.000  C
  C167     1.0000 0.45380  0.45080  0.45430  Biso   1.000  C
  C168     1.0000 0.54620  0.54920  0.45430  Biso   1.000  C
  C169     1.0000 0.01030  0.97330  0.52470  Biso   1.000  C
  C170     1.0000 0.98970  0.02670  0.52470  Biso   1.000  C
  C171     1.0000 0.98970  0.97330  0.47530  Biso   1.000  C
  C172     1.0000 0.01030  0.02670  0.47530  Biso   1.000  C
  C173     1.0000 0.51030  0.47330  0.52470  Biso   1.000  C
  C174     1.0000 0.48970  0.52670  0.52470  Biso   1.000  C
  C175     1.0000 0.48970  0.47330  0.47530  Biso   1.000  C
  C176     1.0000 0.51030  0.52670  0.47530  Biso   1.000  C
  C177     1.0000 0.97810  0.95000  0.50320  Biso   1.000  C
  C178     1.0000 0.02190  0.05000  0.50320  Biso   1.000  C
  C179     1.0000 0.02190  0.95000  0.49680  Biso   1.000  C
  C180     1.0000 0.97810  0.05000  0.49680  Biso   1.000  C
  C181     1.0000 0.47810  0.45000  0.50320  Biso   1.000  C
  C182     1.0000 0.52190  0.55000  0.50320  Biso   1.000  C
  C183     1.0000 0.52190  0.45000  0.49680  Biso   1.000  C
  C184     1.0000 0.47810  0.55000  0.49680  Biso   1.000  C
  C185     1.0000 0.98170  0.90430  0.50280  Biso   1.000  C
  C186     1.0000 0.01830  0.09570  0.50280  Biso   1.000  C
  C187     1.0000 0.01830  0.90430  0.49720  Biso   1.000  C
  C188     1.0000 0.98170  0.09570  0.49720  Biso   1.000  C
  C189     1.0000 0.48170  0.40430  0.50280  Biso   1.000  C
  C190     1.0000 0.51830  0.59570  0.50280  Biso   1.000  C
  C191     1.0000 0.51830  0.40430  0.49720  Biso   1.000  C
  C192     1.0000 0.48170  0.59570  0.49720  Biso   1.000  C
  C193     1.0000 0.05050  0.88100  0.51870  Biso   1.000  C
  C194     1.0000 0.94950  0.11900  0.51870  Biso   1.000  C
  C195     1.0000 0.94950  0.88100  0.48130  Biso   1.000  C
  C196     1.0000 0.05050  0.11900  0.48130  Biso   1.000  C
  C197     1.0000 0.55050  0.38100  0.51870  Biso   1.000  C
  C198     1.0000 0.44950  0.61900  0.51870  Biso   1.000  C
  C199     1.0000 0.44950  0.38100  0.48130  Biso   1.000  C
  C200     1.0000 0.55050  0.61900  0.48130  Biso   1.000  C
  C201     1.0000 0.08630  0.90350  0.53970  Biso   1.000  C
  C202     1.0000 0.91370  0.09650  0.53970  Biso   1.000  C
  C203     1.0000 0.91370  0.90350  0.46030  Biso   1.000  C
  C204     1.0000 0.08630  0.09650  0.46030  Biso   1.000  C
  C205     1.0000 0.58630  0.40350  0.53970  Biso   1.000  C
  C206     1.0000 0.41370  0.59650  0.53970  Biso   1.000  C
  C207     1.0000 0.41370  0.40350  0.46030  Biso   1.000  C
  C208     1.0000 0.58630  0.59650  0.46030  Biso   1.000  C
  C209     1.0000 0.09000  0.94920  0.53930  Biso   1.000  C
  C210     1.0000 0.91000  0.05080  0.53930  Biso   1.000  C
  C211     1.0000 0.91000  0.94920  0.46070  Biso   1.000  C
  C212     1.0000 0.09000  0.05080  0.46070  Biso   1.000  C
  C213     1.0000 0.59000  0.44920  0.53930  Biso   1.000  C
  C214     1.0000 0.41000  0.55080  0.53930  Biso   1.000  C
  C215     1.0000 0.41000  0.44920  0.46070  Biso   1.000  C
  C216     1.0000 0.59000  0.55080  0.46070  Biso   1.000  C
  C217     1.0000 0.05770  0.97250  0.51780  Biso   1.000  C
  C218     1.0000 0.94230  0.02750  0.51780  Biso   1.000  C
  C219     1.0000 0.94230  0.97250  0.48220  Biso   1.000  C
  C220     1.0000 0.05770  0.02750  0.48220  Biso   1.000  C
  C221     1.0000 0.55770  0.47250  0.51780  Biso   1.000  C
  C222     1.0000 0.44230  0.52750  0.51780  Biso   1.000  C
  C223     1.0000 0.44230  0.47250  0.48220  Biso   1.000  C
  C224     1.0000 0.55770  0.52750  0.48220  Biso   1.000  C
  C225     1.0000 0.20530  0.79570  0.63510  Biso   1.000  C
  C226     1.0000 0.79470  0.20430  0.63510  Biso   1.000  C
  C227     1.0000 0.79470  0.79570  0.36490  Biso   1.000  C
  C228     1.0000 0.20530  0.20430  0.36490  Biso   1.000  C
  C229     1.0000 0.70530  0.29570  0.63510  Biso   1.000  C
  C230     1.0000 0.29470  0.70430  0.63510  Biso   1.000  C
  C231     1.0000 0.29470  0.29570  0.36490  Biso   1.000  C
  C232     1.0000 0.70530  0.70430  0.36490  Biso   1.000  C
  C233     1.0000 0.20360  0.79820  0.70100  Biso   1.000  C
  C234     1.0000 0.79640  0.20180  0.70100  Biso   1.000  C
  C235     1.0000 0.79640  0.79820  0.29900  Biso   1.000  C
  C236     1.0000 0.20360  0.20180  0.29900  Biso   1.000  C
  C237     1.0000 0.70360  0.29820  0.70100  Biso   1.000  C
  C238     1.0000 0.29640  0.70180  0.70100  Biso   1.000  C
  C239     1.0000 0.29640  0.29820  0.29900  Biso   1.000  C
  C240     1.0000 0.70360  0.70180  0.29900  Biso   1.000  C
  C241     1.0000 0.40500  0.99980  0.96707  Biso   1.000  C
  C242     1.0000 0.59500  0.00020  0.96707  Biso   1.000  C
  C243     1.0000 0.59500  0.99980  0.03293  Biso   1.000  C
  C244     1.0000 0.40500  0.00020  0.03293  Biso   1.000  C
  C245     1.0000 0.90500  0.49980  0.96707  Biso   1.000  C
  C246     1.0000 0.09500  0.50020  0.96707  Biso   1.000  C
  C247     1.0000 0.09500  0.49980  0.03293  Biso   1.000  C
  C248     1.0000 0.90500  0.50020  0.03293  Biso   1.000  C
  O17      1.0000 0.42880  0.96170  0.97115  Biso   1.000  O
  O18      1.0000 0.57120  0.03830  0.97115  Biso   1.000  O
  O19      1.0000 0.57120  0.96170  0.02885  Biso   1.000  O
  O20      1.0000 0.42880  0.03830  0.02885  Biso   1.000  O
  O21      1.0000 0.92880  0.46170  0.97115  Biso   1.000  O
  O22      1.0000 0.07120  0.53830  0.97115  Biso   1.000  O
  O23      1.0000 0.07120  0.46170  0.02885  Biso   1.000  O
  O24      1.0000 0.92880  0.53830  0.02885  Biso   1.000  O
  O25      1.0000 0.15580  0.77300  0.69505  Biso   1.000  O
  O26      1.0000 0.84420  0.22700  0.69505  Biso   1.000  O
  O27      1.0000 0.84420  0.77300  0.30495  Biso   1.000  O
  O28      1.0000 0.15580  0.22700  0.30495  Biso   1.000  O
  O29      1.0000 0.65580  0.27300  0.69505  Biso   1.000  O
  O30      1.0000 0.34420  0.72700  0.69505  Biso   1.000  O
  O31      1.0000 0.34420  0.27300  0.30495  Biso   1.000  O
  O32      1.0000 0.65580  0.72700  0.30495  Biso   1.000  O
  O33      1.0000 0.15390  0.76490  0.63831  Biso   1.000  O
  O34      1.0000 0.84610  0.23510  0.63831  Biso   1.000  O
  O35      1.0000 0.84610  0.76490  0.36169  Biso   1.000  O
  O36      1.0000 0.15390  0.23510  0.36169  Biso   1.000  O
  O37      1.0000 0.65390  0.26490  0.63831  Biso   1.000  O
  O38      1.0000 0.34610  0.73510  0.63831  Biso   1.000  O
  O39      1.0000 0.34610  0.26490  0.36169  Biso   1.000  O
  O40      1.0000 0.65390  0.73510  0.36169  Biso   1.000  O
  O41      1.0000 0.26680  0.80730  0.63969  Biso   1.000  O
  O42      1.0000 0.73320  0.19270  0.63969  Biso   1.000  O
  O43      1.0000 0.73320  0.80730  0.36031  Biso   1.000  O
  O44      1.0000 0.26680  0.19270  0.36031  Biso   1.000  O
  O45      1.0000 0.76680  0.30730  0.63969  Biso   1.000  O
  O46      1.0000 0.23320  0.69270  0.63969  Biso   1.000  O
  O47      1.0000 0.23320  0.30730  0.36031  Biso   1.000  O
  O48      1.0000 0.76680  0.69270  0.36031  Biso   1.000  O
  O49      1.0000 0.22450  0.69167  0.69532  Biso   1.000  O
  O50      1.0000 0.77550  0.30833  0.69532  Biso   1.000  O
  O51      1.0000 0.77550  0.69167  0.30468  Biso   1.000  O
  O52      1.0000 0.22450  0.30833  0.30468  Biso   1.000  O
  O53      1.0000 0.72450  0.19167  0.69532  Biso   1.000  O
  O54      1.0000 0.27550  0.80833  0.69532  Biso   1.000  O
  O55      1.0000 0.27550  0.19167  0.30468  Biso   1.000  O
  O56      1.0000 0.72450  0.80833  0.30468  Biso   1.000  O
  O57      1.0000 0.41900  0.03780  0.97178  Biso   1.000  O
  O58      1.0000 0.58100  0.96220  0.97178  Biso   1.000  O
  O59      1.0000 0.58100  0.03780  0.02822  Biso   1.000  O
  O60      1.0000 0.41900  0.96220  0.02822  Biso   1.000  O
  O61      1.0000 0.91900  0.53780  0.97178  Biso   1.000  O
  O62      1.0000 0.08100  0.46220  0.97178  Biso   1.000  O
  O63      1.0000 0.08100  0.53780  0.02822  Biso   1.000  O
  O64      1.0000 0.91900  0.46220  0.02822  Biso   1.000  O
  O65      1.0000 0.50000  0.88700  0.00000  Biso   1.000  O
  O66      1.0000 0.50000  0.11300  0.00000  Biso   1.000  O
  O67      1.0000 0.00000  0.38700  0.00000  Biso   1.000  O
  O68      1.0000 0.00000  0.61300  0.00000  Biso   1.000  O
  O69      1.0000 0.07630  0.69288  0.66732  Biso   1.000  O
  O70      1.0000 0.92370  0.30712  0.66732  Biso   1.000  O
  O71      1.0000 0.92370  0.69288  0.33268  Biso   1.000  O
  O72      1.0000 0.07630  0.30712  0.33268  Biso   1.000  O
  O73      1.0000 0.57630  0.19288  0.66732  Biso   1.000  O
  O74      1.0000 0.42370  0.80712  0.66732  Biso   1.000  O
  O75      1.0000 0.42370  0.19288  0.33268  Biso   1.000  O
  O76      1.0000 0.57630  0.80712  0.33268  Biso   1.000  O
  C249     1.0000 0.20650  0.96800  0.85143  Biso   1.000  C
  C250     1.0000 0.79350  0.03200  0.85143  Biso   1.000  C
  C251     1.0000 0.79350  0.96800  0.14857  Biso   1.000  C
  C252     1.0000 0.20650  0.03200  0.14857  Biso   1.000  C
  C253     1.0000 0.70650  0.46800  0.85143  Biso   1.000  C
  C254     1.0000 0.29350  0.53200  0.85143  Biso   1.000  C
  C255     1.0000 0.29350  0.46800  0.14857  Biso   1.000  C
  C256     1.0000 0.70650  0.53200  0.14857  Biso   1.000  C
  C257     1.0000 0.19080  0.99580  0.87314  Biso   1.000  C
  C258     1.0000 0.80920  0.00420  0.87314  Biso   1.000  C
  C259     1.0000 0.80920  0.99580  0.12686  Biso   1.000  C
  C260     1.0000 0.19080  0.00420  0.12686  Biso   1.000  C
  C261     1.0000 0.69080  0.49580  0.87314  Biso   1.000  C
  C262     1.0000 0.30920  0.50420  0.87314  Biso   1.000  C
  C263     1.0000 0.30920  0.49580  0.12686  Biso   1.000  C
  C264     1.0000 0.69080  0.50420  0.12686  Biso   1.000  C
  C265     1.0000 0.12460  0.02110  0.87311  Biso   1.000  C
  C266     1.0000 0.87540  0.97890  0.87311  Biso   1.000  C
  C267     1.0000 0.87540  0.02110  0.12689  Biso   1.000  C
  C268     1.0000 0.12460  0.97890  0.12689  Biso   1.000  C
  C269     1.0000 0.62460  0.52110  0.87311  Biso   1.000  C
  C270     1.0000 0.37540  0.47890  0.87311  Biso   1.000  C
  C271     1.0000 0.37540  0.52110  0.12689  Biso   1.000  C
  C272     1.0000 0.62460  0.47890  0.12689  Biso   1.000  C
  C273     1.0000 0.07420  0.01840  0.85136  Biso   1.000  C
  C274     1.0000 0.92580  0.98160  0.85136  Biso   1.000  C
  C275     1.0000 0.92580  0.01840  0.14864  Biso   1.000  C
  C276     1.0000 0.07420  0.98160  0.14864  Biso   1.000  C
  C277     1.0000 0.57420  0.51840  0.85136  Biso   1.000  C
  C278     1.0000 0.42580  0.48160  0.85136  Biso   1.000  C
  C279     1.0000 0.42580  0.51840  0.14864  Biso   1.000  C
  C280     1.0000 0.57420  0.48160  0.14864  Biso   1.000  C
  C281     1.0000 0.08990  0.99050  0.82965  Biso   1.000  C
  C282     1.0000 0.91010  0.00950  0.82965  Biso   1.000  C
  C283     1.0000 0.91010  0.99050  0.17035  Biso   1.000  C
  C284     1.0000 0.08990  0.00950  0.17035  Biso   1.000  C
  C285     1.0000 0.58990  0.49050  0.82965  Biso   1.000  C
  C286     1.0000 0.41010  0.50950  0.82965  Biso   1.000  C
  C287     1.0000 0.41010  0.49050  0.17035  Biso   1.000  C
  C288     1.0000 0.58990  0.50950  0.17035  Biso   1.000  C
  C289     1.0000 0.15610  0.96530  0.82968  Biso   1.000  C
  C290     1.0000 0.84390  0.03470  0.82968  Biso   1.000  C
  C291     1.0000 0.84390  0.96530  0.17032  Biso   1.000  C
  C292     1.0000 0.15610  0.03470  0.17032  Biso   1.000  C
  C293     1.0000 0.65610  0.46530  0.82968  Biso   1.000  C
  C294     1.0000 0.34390  0.53470  0.82968  Biso   1.000  C
  C295     1.0000 0.34390  0.46530  0.17032  Biso   1.000  C
  C296     1.0000 0.65610  0.53470  0.17032  Biso   1.000  C
  C297     1.0000 0.17180  0.93740  0.80797  Biso   1.000  C
  C298     1.0000 0.82820  0.06260  0.80797  Biso   1.000  C
  C299     1.0000 0.82820  0.93740  0.19203  Biso   1.000  C
  C300     1.0000 0.17180  0.06260  0.19203  Biso   1.000  C
  C301     1.0000 0.67180  0.43740  0.80797  Biso   1.000  C
  C302     1.0000 0.32820  0.56260  0.80797  Biso   1.000  C
  C303     1.0000 0.32820  0.43740  0.19203  Biso   1.000  C
  C304     1.0000 0.67180  0.56260  0.19203  Biso   1.000  C
  C305     1.0000 0.12140  0.93480  0.78623  Biso   1.000  C
  C306     1.0000 0.87860  0.06520  0.78623  Biso   1.000  C
  C307     1.0000 0.87860  0.93480  0.21377  Biso   1.000  C
  C308     1.0000 0.12140  0.06520  0.21377  Biso   1.000  C
  C309     1.0000 0.62140  0.43480  0.78623  Biso   1.000  C
  C310     1.0000 0.37860  0.56520  0.78623  Biso   1.000  C
  C311     1.0000 0.37860  0.43480  0.21377  Biso   1.000  C
  C312     1.0000 0.62140  0.56520  0.21377  Biso   1.000  C
  C313     1.0000 0.05520  0.96000  0.78619  Biso   1.000  C
  C314     1.0000 0.94480  0.04000  0.78619  Biso   1.000  C
  C315     1.0000 0.94480  0.96000  0.21381  Biso   1.000  C
  C316     1.0000 0.05520  0.04000  0.21381  Biso   1.000  C
  C317     1.0000 0.55520  0.46000  0.78619  Biso   1.000  C
  C318     1.0000 0.44480  0.54000  0.78619  Biso   1.000  C
  C319     1.0000 0.44480  0.46000  0.21381  Biso   1.000  C
  C320     1.0000 0.55520  0.54000  0.21381  Biso   1.000  C
  C321     1.0000 0.03950  0.98790  0.80790  Biso   1.000  C
  C322     1.0000 0.96050  0.01210  0.80790  Biso   1.000  C
  C323     1.0000 0.96050  0.98790  0.19210  Biso   1.000  C
  C324     1.0000 0.03950  0.01210  0.19210  Biso   1.000  C
  C325     1.0000 0.53950  0.48790  0.80790  Biso   1.000  C
  C326     1.0000 0.46050  0.51210  0.80790  Biso   1.000  C
  C327     1.0000 0.46050  0.48790  0.19210  Biso   1.000  C
  C328     1.0000 0.53950  0.51210  0.19210  Biso   1.000  C
  P5       1.0000 0.00000  0.00000  0.74451  Biso   1.000  P
  P6       1.0000 0.00000  0.00000  0.25549  Biso   1.000  P
  P7       1.0000 0.50000  0.50000  0.74451  Biso   1.000  P
  P8       1.0000 0.50000  0.50000  0.25549  Biso   1.000  P
  O77      1.0000 0.00220  0.95830  0.76590  Biso   1.000  O
  O78      1.0000 0.99780  0.04170  0.76590  Biso   1.000  O
  O79      1.0000 0.99780  0.95830  0.23410  Biso   1.000  O
  O80      1.0000 0.00220  0.04170  0.23410  Biso   1.000  O
  O81      1.0000 0.50220  0.45830  0.76590  Biso   1.000  O
  O82      1.0000 0.49780  0.54170  0.76590  Biso   1.000  O
  O83      1.0000 0.49780  0.45830  0.23410  Biso   1.000  O
  O84      1.0000 0.50220  0.54170  0.23410  Biso   1.000  O
  O85      1.0000 0.06880  0.01000  0.73200  Biso   1.000  O
  O86      1.0000 0.93120  0.99000  0.73200  Biso   1.000  O
  O87      1.0000 0.93120  0.01000  0.26800  Biso   1.000  O
  O88      1.0000 0.06880  0.99000  0.26800  Biso   1.000  O
  O89      1.0000 0.56880  0.51000  0.73200  Biso   1.000  O
  O90      1.0000 0.43120  0.49000  0.73200  Biso   1.000  O
  O91      1.0000 0.43120  0.51000  0.26800  Biso   1.000  O
  O92      1.0000 0.56880  0.49000  0.26800  Biso   1.000  O
  C329     1.0000 0.82460  0.94310  0.14120  Biso   1.000  C
  C330     1.0000 0.17540  0.05690  0.14120  Biso   1.000  C
  C331     1.0000 0.17540  0.94310  0.85880  Biso   1.000  C
  C332     1.0000 0.82460  0.05690  0.85880  Biso   1.000  C
  C333     1.0000 0.32460  0.44310  0.14120  Biso   1.000  C
  C334     1.0000 0.67540  0.55690  0.14120  Biso   1.000  C
  C335     1.0000 0.67540  0.44310  0.85880  Biso   1.000  C
  C336     1.0000 0.32460  0.55690  0.85880  Biso   1.000  C
  C337     1.0000 0.84700  0.96920  0.11937  Biso   1.000  C
  C338     1.0000 0.15300  0.03080  0.11937  Biso   1.000  C
  C339     1.0000 0.15300  0.96920  0.88063  Biso   1.000  C
  C340     1.0000 0.84700  0.03080  0.88063  Biso   1.000  C
  C341     1.0000 0.34700  0.46920  0.11937  Biso   1.000  C
  C342     1.0000 0.65300  0.53080  0.11937  Biso   1.000  C
  C343     1.0000 0.65300  0.46920  0.88063  Biso   1.000  C
  C344     1.0000 0.34700  0.53080  0.88063  Biso   1.000  C
  C345     1.0000 0.91840  0.98910  0.11941  Biso   1.000  C
  C346     1.0000 0.08160  0.01090  0.11941  Biso   1.000  C
  C347     1.0000 0.08160  0.98910  0.88059  Biso   1.000  C
  C348     1.0000 0.91840  0.01090  0.88059  Biso   1.000  C
  C349     1.0000 0.41840  0.48910  0.11941  Biso   1.000  C
  C350     1.0000 0.58160  0.51090  0.11941  Biso   1.000  C
  C351     1.0000 0.58160  0.48910  0.88059  Biso   1.000  C
  C352     1.0000 0.41840  0.51090  0.88059  Biso   1.000  C
  C353     1.0000 0.96750  0.98280  0.14126  Biso   1.000  C
  C354     1.0000 0.03250  0.01720  0.14126  Biso   1.000  C
  C355     1.0000 0.03250  0.98280  0.85874  Biso   1.000  C
  C356     1.0000 0.96750  0.01720  0.85874  Biso   1.000  C
  C357     1.0000 0.46750  0.48280  0.14126  Biso   1.000  C
  C358     1.0000 0.53250  0.51720  0.14126  Biso   1.000  C
  C359     1.0000 0.53250  0.48280  0.85874  Biso   1.000  C
  C360     1.0000 0.46750  0.51720  0.85874  Biso   1.000  C
  C361     1.0000 0.94520  0.95670  0.16306  Biso   1.000  C
  C362     1.0000 0.05480  0.04330  0.16306  Biso   1.000  C
  C363     1.0000 0.05480  0.95670  0.83694  Biso   1.000  C
  C364     1.0000 0.94520  0.04330  0.83694  Biso   1.000  C
  C365     1.0000 0.44520  0.45670  0.16306  Biso   1.000  C
  C366     1.0000 0.55480  0.54330  0.16306  Biso   1.000  C
  C367     1.0000 0.55480  0.45670  0.83694  Biso   1.000  C
  C368     1.0000 0.44520  0.54330  0.83694  Biso   1.000  C
  C369     1.0000 0.87380  0.93680  0.16302  Biso   1.000  C
  C370     1.0000 0.12620  0.06320  0.16302  Biso   1.000  C
  C371     1.0000 0.12620  0.93680  0.83698  Biso   1.000  C
  C372     1.0000 0.87380  0.06320  0.83698  Biso   1.000  C
  C373     1.0000 0.37380  0.43680  0.16302  Biso   1.000  C
  C374     1.0000 0.62620  0.56320  0.16302  Biso   1.000  C
  C375     1.0000 0.62620  0.43680  0.83698  Biso   1.000  C
  C376     1.0000 0.37380  0.56320  0.83698  Biso   1.000  C
  C377     1.0000 0.85140  0.91070  0.18480  Biso   1.000  C
  C378     1.0000 0.14860  0.08930  0.18480  Biso   1.000  C
  C379     1.0000 0.14860  0.91070  0.81520  Biso   1.000  C
  C380     1.0000 0.85140  0.08930  0.81520  Biso   1.000  C
  C381     1.0000 0.35140  0.41070  0.18480  Biso   1.000  C
  C382     1.0000 0.64860  0.58930  0.18480  Biso   1.000  C
  C383     1.0000 0.64860  0.41070  0.81520  Biso   1.000  C
  C384     1.0000 0.35140  0.58930  0.81520  Biso   1.000  C
  C385     1.0000 0.90050  0.90450  0.20667  Biso   1.000  C
  C386     1.0000 0.09950  0.09550  0.20667  Biso   1.000  C
  C387     1.0000 0.09950  0.90450  0.79333  Biso   1.000  C
  C388     1.0000 0.90050  0.09550  0.79333  Biso   1.000  C
  C389     1.0000 0.40050  0.40450  0.20667  Biso   1.000  C
  C390     1.0000 0.59950  0.59550  0.20667  Biso   1.000  C
  C391     1.0000 0.59950  0.40450  0.79333  Biso   1.000  C
  C392     1.0000 0.40050  0.59550  0.79333  Biso   1.000  C
  C393     1.0000 0.97200  0.92430  0.20671  Biso   1.000  C
  C394     1.0000 0.02800  0.07570  0.20671  Biso   1.000  C
  C395     1.0000 0.02800  0.92430  0.79329  Biso   1.000  C
  C396     1.0000 0.97200  0.07570  0.79329  Biso   1.000  C
  C397     1.0000 0.47200  0.42430  0.20671  Biso   1.000  C
  C398     1.0000 0.52800  0.57570  0.20671  Biso   1.000  C
  C399     1.0000 0.52800  0.42430  0.79329  Biso   1.000  C
  C400     1.0000 0.47200  0.57570  0.79329  Biso   1.000  C
  C401     1.0000 0.99430  0.95040  0.18490  Biso   1.000  C
  C402     1.0000 0.00570  0.04960  0.18490  Biso   1.000  C
  C403     1.0000 0.00570  0.95040  0.81510  Biso   1.000  C
  C404     1.0000 0.99430  0.04960  0.81510  Biso   1.000  C
  C405     1.0000 0.49430  0.45040  0.18490  Biso   1.000  C
  C406     1.0000 0.50570  0.54960  0.18490  Biso   1.000  C
  C407     1.0000 0.50570  0.45040  0.81510  Biso   1.000  C
  C408     1.0000 0.49430  0.54960  0.81510  Biso   1.000  C
  O93      1.0000 0.97980  0.95950  0.06490  Biso   1.000  O
  O94      1.0000 0.02020  0.04050  0.06490  Biso   1.000  O
  O95      1.0000 0.02020  0.95950  0.93510  Biso   1.000  O
  O96      1.0000 0.97980  0.04050  0.93510  Biso   1.000  O
  O97      1.0000 0.47980  0.45950  0.06490  Biso   1.000  O
  O98      1.0000 0.52020  0.54050  0.06490  Biso   1.000  O
  O99      1.0000 0.52020  0.45950  0.93510  Biso   1.000  O
  O100     1.0000 0.47980  0.54050  0.93510  Biso   1.000  O
  O101     1.0000 0.93810  0.98120  0.90380  Biso   1.000  O
  O102     1.0000 0.06190  0.01880  0.90380  Biso   1.000  O
  O103     1.0000 0.06190  0.98120  0.09620  Biso   1.000  O
  O104     1.0000 0.93810  0.01880  0.09620  Biso   1.000  O
  O105     1.0000 0.43810  0.48120  0.90380  Biso   1.000  O
  O106     1.0000 0.56190  0.51880  0.90380  Biso   1.000  O
  O107     1.0000 0.56190  0.48120  0.09620  Biso   1.000  O
  O108     1.0000 0.43810  0.51880  0.09620  Biso   1.000  O
  P9       1.0000 0.00000  0.00000  0.07770  Biso   1.000  P
  P10      1.0000 0.00000  0.00000  0.92230  Biso   1.000  P
  P11      1.0000 0.50000  0.50000  0.07770  Biso   1.000  P
  P12      1.0000 0.50000  0.50000  0.92230  Biso   1.000  P
