data_image0
_cell_length_a       15.436
_cell_length_b       10.2155
_cell_length_c       12.2521
_cell_angle_alpha    90
_cell_angle_beta     90
_cell_angle_gamma    90

_symmetry_space_group_name_H-M    "P 1"
_symmetry_int_tables_number       1

loop_
  _symmetry_equiv_pos_as_xyz
  'x, y, z'

loop_
  _atom_site_label
  _atom_site_occupancy
  _atom_site_fract_x
  _atom_site_fract_y
  _atom_site_fract_z
  _atom_site_thermal_displace_type
  _atom_site_B_iso_or_equiv
  _atom_site_type_symbol
  C1       1.0000 0.97480  0.84320  0.32640  Biso   1.000  C
  C2       1.0000 0.02520  0.15680  0.82640  Biso   1.000  C
  C3       1.0000 0.47480  0.65680  0.32640  Biso   1.000  C
  C4       1.0000 0.52520  0.34320  0.82640  Biso   1.000  C
  H1       1.0000 0.02190  0.83060  0.28010  Biso   1.000  H
  H2       1.0000 0.97810  0.16940  0.78010  Biso   1.000  H
  H3       1.0000 0.52190  0.66940  0.28010  Biso   1.000  H
  H4       1.0000 0.47810  0.33060  0.78010  Biso   1.000  H
  C5       1.0000 0.90890  0.92370  0.29250  Biso   1.000  C
  C6       1.0000 0.09110  0.07630  0.79250  Biso   1.000  C
  C7       1.0000 0.40890  0.57630  0.29250  Biso   1.000  C
  C8       1.0000 0.59110  0.42370  0.79250  Biso   1.000  C
  H5       1.0000 0.91210  0.96760  0.22610  Biso   1.000  H
  H6       1.0000 0.08790  0.03240  0.72610  Biso   1.000  H
  H7       1.0000 0.41210  0.53240  0.22610  Biso   1.000  H
  H8       1.0000 0.58790  0.46760  0.72610  Biso   1.000  H
  C9       1.0000 0.85900  0.96060  0.82150  Biso   1.000  C
  C10      1.0000 0.14100  0.03940  0.32150  Biso   1.000  C
  C11      1.0000 0.35900  0.53940  0.82150  Biso   1.000  C
  C12      1.0000 0.64100  0.46060  0.32150  Biso   1.000  C
  H9       1.0000 0.82490  0.03380  0.83540  Biso   1.000  H
  H10      1.0000 0.17510  0.96620  0.33540  Biso   1.000  H
  H11      1.0000 0.32490  0.46620  0.83540  Biso   1.000  H
  H12      1.0000 0.67510  0.53380  0.33540  Biso   1.000  H
  C13      1.0000 0.90750  0.90580  0.90410  Biso   1.000  C
  C14      1.0000 0.09250  0.09420  0.40410  Biso   1.000  C
  C15      1.0000 0.40750  0.59420  0.90410  Biso   1.000  C
  C16      1.0000 0.59250  0.40580  0.40410  Biso   1.000  C
  H13      1.0000 0.90750  0.94180  0.97380  Biso   1.000  H
  H14      1.0000 0.09250  0.05820  0.47380  Biso   1.000  H
  H15      1.0000 0.40750  0.55820  0.97380  Biso   1.000  H
  H16      1.0000 0.59250  0.44180  0.47380  Biso   1.000  H
  C17      1.0000 0.95560  0.79710  0.88090  Biso   1.000  C
  C18      1.0000 0.04440  0.20290  0.38090  Biso   1.000  C
  C19      1.0000 0.45560  0.70290  0.88090  Biso   1.000  C
  C20      1.0000 0.54440  0.29710  0.38090  Biso   1.000  C
  H17      1.0000 0.98720  0.75780  0.93660  Biso   1.000  H
  H18      1.0000 0.01280  0.24220  0.43660  Biso   1.000  H
  H19      1.0000 0.48720  0.74220  0.93660  Biso   1.000  H
  H20      1.0000 0.51280  0.25780  0.43660  Biso   1.000  H
  C21      1.0000 0.35760  0.93980  0.09900  Biso   1.000  C
  C22      1.0000 0.64240  0.06020  0.59900  Biso   1.000  C
  C23      1.0000 0.85760  0.56020  0.09900  Biso   1.000  C
  C24      1.0000 0.14240  0.43980  0.59900  Biso   1.000  C
  C25      1.0000 0.14160  0.64000  0.27540  Biso   1.000  C
  C26      1.0000 0.85840  0.36000  0.77540  Biso   1.000  C
  C27      1.0000 0.64160  0.86000  0.27540  Biso   1.000  C
  C28      1.0000 0.35840  0.14000  0.77540  Biso   1.000  C
  O1       1.0000 0.14480  0.70750  0.36100  Biso   1.000  O
  O2       1.0000 0.85520  0.29250  0.86100  Biso   1.000  O
  O3       1.0000 0.64480  0.79250  0.36100  Biso   1.000  O
  O4       1.0000 0.35520  0.20750  0.86100  Biso   1.000  O
  O5       1.0000 0.10330  0.53070  0.26770  Biso   1.000  O
  O6       1.0000 0.89670  0.46930  0.76770  Biso   1.000  O
  O7       1.0000 0.60330  0.96930  0.26770  Biso   1.000  O
  O8       1.0000 0.39670  0.03070  0.76770  Biso   1.000  O
  O9       1.0000 0.40250  0.94280  0.18310  Biso   1.000  O
  O10      1.0000 0.59750  0.05720  0.68310  Biso   1.000  O
  O11      1.0000 0.90250  0.55720  0.18310  Biso   1.000  O
  O12      1.0000 0.09750  0.44280  0.68310  Biso   1.000  O
  O13      1.0000 0.36100  0.01810  0.02010  Biso   1.000  O
  O14      1.0000 0.63900  0.98190  0.52010  Biso   1.000  O
  O15      1.0000 0.86100  0.48190  0.02010  Biso   1.000  O
  O16      1.0000 0.13900  0.51810  0.52010  Biso   1.000  O
  O17      1.0000 0.14140  0.82400  0.58300  Biso   1.000  O
  O18      1.0000 0.85860  0.17600  0.08300  Biso   1.000  O
  O19      1.0000 0.64140  0.67600  0.58300  Biso   1.000  O
  O20      1.0000 0.35860  0.32400  0.08300  Biso   1.000  O
  H21      1.0000 0.15100  0.78200  0.64200  Biso   1.000  H
  H22      1.0000 0.84900  0.21800  0.14200  Biso   1.000  H
  H23      1.0000 0.65100  0.71800  0.64200  Biso   1.000  H
  H24      1.0000 0.34900  0.28200  0.14200  Biso   1.000  H
  H25      1.0000 0.83800  0.60300  0.64600  Biso   1.000  H
  H26      1.0000 0.16200  0.39700  0.14600  Biso   1.000  H
  H27      1.0000 0.33800  0.89700  0.64600  Biso   1.000  H
  H28      1.0000 0.66200  0.10300  0.14600  Biso   1.000  H
  H29      1.0000 0.18000  0.83800  0.57100  Biso   1.000  H
  H30      1.0000 0.82000  0.16200  0.07100  Biso   1.000  H
  H31      1.0000 0.68000  0.66200  0.57100  Biso   1.000  H
  H32      1.0000 0.32000  0.33800  0.07100  Biso   1.000  H
  C29      1.0000 0.83840  0.93740  0.35900  Biso   1.000  C
  C30      1.0000 0.16160  0.06260  0.85900  Biso   1.000  C
  C31      1.0000 0.33840  0.56260  0.35900  Biso   1.000  C
  C32      1.0000 0.66160  0.43740  0.85900  Biso   1.000  C
  H33      1.0000 0.79310  0.99220  0.33870  Biso   1.000  H
  H34      1.0000 0.20690  0.00780  0.83870  Biso   1.000  H
  H35      1.0000 0.29310  0.50780  0.33870  Biso   1.000  H
  H36      1.0000 0.70690  0.49220  0.83870  Biso   1.000  H
  C33      1.0000 0.83460  0.86900  0.45730  Biso   1.000  C
  C34      1.0000 0.16540  0.13100  0.95730  Biso   1.000  C
  C35      1.0000 0.33460  0.63100  0.45730  Biso   1.000  C
  C36      1.0000 0.66540  0.36900  0.95730  Biso   1.000  C
  H37      1.0000 0.78570  0.87330  0.50140  Biso   1.000  H
  H38      1.0000 0.21430  0.12670  0.00140  Biso   1.000  H
  H39      1.0000 0.28570  0.62670  0.50140  Biso   1.000  H
  H40      1.0000 0.71430  0.37330  0.00140  Biso   1.000  H
  C37      1.0000 0.90520  0.79510  0.48750  Biso   1.000  C
  C38      1.0000 0.09480  0.20490  0.98750  Biso   1.000  C
  C39      1.0000 0.40520  0.70490  0.48750  Biso   1.000  C
  C40      1.0000 0.59480  0.29510  0.98750  Biso   1.000  C
  C41      1.0000 0.90960  0.71590  0.59340  Biso   1.000  C
  C42      1.0000 0.09040  0.28410  0.09340  Biso   1.000  C
  C43      1.0000 0.40960  0.78410  0.59340  Biso   1.000  C
  C44      1.0000 0.59040  0.21590  0.09340  Biso   1.000  C
  C45      1.0000 0.91090  0.79680  0.69930  Biso   1.000  C
  C46      1.0000 0.08910  0.20320  0.19930  Biso   1.000  C
  C47      1.0000 0.41090  0.70320  0.69930  Biso   1.000  C
  C48      1.0000 0.58910  0.29680  0.19930  Biso   1.000  C
  C49      1.0000 0.86110  0.90730  0.71880  Biso   1.000  C
  C50      1.0000 0.13890  0.09270  0.21880  Biso   1.000  C
  C51      1.0000 0.36110  0.59270  0.71880  Biso   1.000  C
  C52      1.0000 0.63890  0.40730  0.21880  Biso   1.000  C
  H41      1.0000 0.82930  0.94510  0.66250  Biso   1.000  H
  H42      1.0000 0.17070  0.05490  0.16250  Biso   1.000  H
  H43      1.0000 0.32930  0.55490  0.66250  Biso   1.000  H
  H44      1.0000 0.67070  0.44510  0.16250  Biso   1.000  H
  C53      1.0000 0.15050  0.68130  0.87010  Biso   1.000  C
  C54      1.0000 0.84950  0.31870  0.37010  Biso   1.000  C
  C55      1.0000 0.65050  0.81870  0.87010  Biso   1.000  C
  C56      1.0000 0.34950  0.18130  0.37010  Biso   1.000  C
  C57      1.0000 0.18770  0.71270  0.98080  Biso   1.000  C
  C58      1.0000 0.81230  0.28730  0.48080  Biso   1.000  C
  C59      1.0000 0.68770  0.78730  0.98080  Biso   1.000  C
  C60      1.0000 0.31230  0.21270  0.48080  Biso   1.000  C
  C61      1.0000 0.25590  0.80200  0.98910  Biso   1.000  C
  C62      1.0000 0.74410  0.19800  0.48910  Biso   1.000  C
  C63      1.0000 0.75590  0.69800  0.98910  Biso   1.000  C
  C64      1.0000 0.24410  0.30200  0.48910  Biso   1.000  C
  H45      1.0000 0.27970  0.83840  0.92640  Biso   1.000  H
  H46      1.0000 0.72030  0.16160  0.42640  Biso   1.000  H
  H47      1.0000 0.77970  0.66160  0.92640  Biso   1.000  H
  H48      1.0000 0.22030  0.33840  0.42640  Biso   1.000  H
  C65      1.0000 0.28790  0.83650  0.09090  Biso   1.000  C
  C66      1.0000 0.71210  0.16350  0.59090  Biso   1.000  C
  C67      1.0000 0.78790  0.66350  0.09090  Biso   1.000  C
  C68      1.0000 0.21210  0.33650  0.59090  Biso   1.000  C
  C69      1.0000 0.25300  0.78250  0.18460  Biso   1.000  C
  C70      1.0000 0.74700  0.21750  0.68460  Biso   1.000  C
  C71      1.0000 0.75300  0.71750  0.18460  Biso   1.000  C
  C72      1.0000 0.24700  0.28250  0.68460  Biso   1.000  C
  H49      1.0000 0.27490  0.80520  0.25270  Biso   1.000  H
  H50      1.0000 0.72510  0.19480  0.75270  Biso   1.000  H
  H51      1.0000 0.77490  0.69480  0.25270  Biso   1.000  H
  H52      1.0000 0.22510  0.30520  0.75270  Biso   1.000  H
  C73      1.0000 0.18430  0.69330  0.17640  Biso   1.000  C
  C74      1.0000 0.81570  0.30670  0.67640  Biso   1.000  C
  C75      1.0000 0.68430  0.80670  0.17640  Biso   1.000  C
  C76      1.0000 0.31570  0.19330  0.67640  Biso   1.000  C
  C77      1.0000 0.15360  0.65870  0.07410  Biso   1.000  C
  C78      1.0000 0.84640  0.34130  0.57410  Biso   1.000  C
  C79      1.0000 0.65360  0.84130  0.07410  Biso   1.000  C
  C80      1.0000 0.34640  0.15870  0.57410  Biso   1.000  C
  H53      1.0000 0.10910  0.59780  0.06850  Biso   1.000  H
  H54      1.0000 0.89090  0.40220  0.56850  Biso   1.000  H
  H55      1.0000 0.60910  0.90220  0.06850  Biso   1.000  H
  H56      1.0000 0.39090  0.09780  0.56850  Biso   1.000  H
  N1       1.0000 0.97450  0.78220  0.42280  Biso   1.000  N
  N2       1.0000 0.02550  0.21780  0.92280  Biso   1.000  N
  N3       1.0000 0.47450  0.71780  0.42280  Biso   1.000  N
  N4       1.0000 0.52550  0.28220  0.92280  Biso   1.000  N
  N5       1.0000 0.95860  0.74420  0.77860  Biso   1.000  N
  N6       1.0000 0.04140  0.25580  0.27860  Biso   1.000  N
  N7       1.0000 0.45860  0.75580  0.77860  Biso   1.000  N
  N8       1.0000 0.54140  0.24420  0.27860  Biso   1.000  N
  O21      1.0000 0.98114  0.63420  0.59190  Biso   1.000  O
  O22      1.0000 0.01886  0.36580  0.09190  Biso   1.000  O
  O23      1.0000 0.48114  0.86580  0.59190  Biso   1.000  O
  O24      1.0000 0.51886  0.13420  0.09190  Biso   1.000  O
  O25      1.0000 0.83180  0.64320  0.59710  Biso   1.000  O
  O26      1.0000 0.16820  0.35680  0.09710  Biso   1.000  O
  O27      1.0000 0.33180  0.85680  0.59710  Biso   1.000  O
  O28      1.0000 0.66820  0.14320  0.09710  Biso   1.000  O
  O29      1.0000 0.09160  0.59150  0.87070  Biso   1.000  O
  O30      1.0000 0.90840  0.40850  0.37070  Biso   1.000  O
  O31      1.0000 0.59160  0.90850  0.87070  Biso   1.000  O
  O32      1.0000 0.40840  0.09150  0.37070  Biso   1.000  O
  O33      1.0000 0.17360  0.74250  0.79050  Biso   1.000  O
  O34      1.0000 0.82640  0.25750  0.29050  Biso   1.000  O
  O35      1.0000 0.67360  0.75750  0.79050  Biso   1.000  O
  O36      1.0000 0.32640  0.24250  0.29050  Biso   1.000  O
  Cu1      1.0000 0.06614  0.66371  0.47865  Biso   1.000  Cu
  Cu2      1.0000 0.93386  0.33629  0.97865  Biso   1.000  Cu
  Cu3      1.0000 0.56614  0.83629  0.47865  Biso   1.000  Cu
  Cu4      1.0000 0.43386  0.16371  0.97865  Biso   1.000  Cu
  Cu5      1.0000 0.02853  0.59038  0.73437  Biso   1.000  Cu
  Cu6      1.0000 0.97147  0.40962  0.23437  Biso   1.000  Cu
  Cu7      1.0000 0.52853  0.90962  0.73437  Biso   1.000  Cu
  Cu8      1.0000 0.47147  0.09038  0.23437  Biso   1.000  Cu
