data_image0
_cell_length_a       9.251
_cell_length_b       16.4054
_cell_length_c       17.8005
_cell_angle_alpha    113.016
_cell_angle_beta     93.684
_cell_angle_gamma    101.966

_symmetry_space_group_name_H-M    "P 1"
_symmetry_int_tables_number       1

loop_
  _symmetry_equiv_pos_as_xyz
  'x, y, z'

loop_
  _atom_site_label
  _atom_site_occupancy
  _atom_site_fract_x
  _atom_site_fract_y
  _atom_site_fract_z
  _atom_site_thermal_displace_type
  _atom_site_B_iso_or_equiv
  _atom_site_type_symbol
  Co1      1.0000 0.55270  0.17831  0.31724  Biso   1.000  Co
  Co2      1.0000 0.44730  0.82169  0.68276  Biso   1.000  Co
  Cu1      1.0000 0.50000  0.00000  0.50000  Biso   1.000  Cu
  Cu2      1.0000 0.50000  0.00000  0.00000  Biso   1.000  Cu
  Cu3      1.0000 0.50000  0.50000  0.50000  Biso   1.000  Cu
  N1       1.0000 0.35080  0.06350  0.55830  Biso   1.000  N
  N2       1.0000 0.64920  0.93650  0.44170  Biso   1.000  N
  N3       1.0000 0.33330  0.88540  0.46270  Biso   1.000  N
  N4       1.0000 0.66670  0.11460  0.53730  Biso   1.000  N
  H1       1.0000 0.33860  0.86220  0.50130  Biso   1.000  H
  H2       1.0000 0.66140  0.13780  0.49870  Biso   1.000  H
  N5       1.0000 0.35840  0.07930  0.03030  Biso   1.000  N
  N6       1.0000 0.64160  0.92070  0.96970  Biso   1.000  N
  N7       1.0000 0.32130  0.89790  0.98450  Biso   1.000  N
  N8       1.0000 0.67870  0.10210  0.01550  Biso   1.000  N
  H3       1.0000 0.27670  0.87560  0.93090  Biso   1.000  H
  H4       1.0000 0.72330  0.12440  0.06910  Biso   1.000  H
  N9       1.0000 0.28750  0.43460  0.45270  Biso   1.000  N
  N10      1.0000 0.71250  0.56540  0.54730  Biso   1.000  N
  N11      1.0000 0.44130  0.50220  0.60900  Biso   1.000  N
  N12      1.0000 0.55870  0.49780  0.39100  Biso   1.000  N
  H5       1.0000 0.41170  0.55460  0.63430  Biso   1.000  H
  H6       1.0000 0.58830  0.44540  0.36570  Biso   1.000  H
  N13      1.0000 0.41860  0.03440  0.37810  Biso   1.000  N
  N14      1.0000 0.58140  0.96560  0.62190  Biso   1.000  N
  N15      1.0000 0.57050  0.03460  0.14990  Biso   1.000  N
  N16      1.0000 0.42950  0.96540  0.85010  Biso   1.000  N
  N17      1.0000 0.54260  0.34350  0.47150  Biso   1.000  N
  N18      1.0000 0.45740  0.65650  0.52850  Biso   1.000  N
  N19      1.0000 0.85710  0.17420  0.38890  Biso   1.000  N
  N20      1.0000 0.14290  0.82580  0.61110  Biso   1.000  N
  N21      1.0000 0.71110  0.33060  0.27260  Biso   1.000  N
  N22      1.0000 0.28890  0.66940  0.72740  Biso   1.000  N
  N23      1.0000 0.23970  0.17080  0.24610  Biso   1.000  N
  N24      1.0000 0.76030  0.82920  0.75390  Biso   1.000  N
  C1       1.0000 0.19360  0.91570  0.46450  Biso   1.000  C
  C2       1.0000 0.80640  0.08430  0.53550  Biso   1.000  C
  H7       1.0000 0.10970  0.86670  0.46010  Biso   1.000  H
  H8       1.0000 0.89030  0.13330  0.53990  Biso   1.000  H
  H9       1.0000 0.17610  0.93140  0.41810  Biso   1.000  H
  H10      1.0000 0.82390  0.06860  0.58190  Biso   1.000  H
  C3       1.0000 0.20700  0.99760  0.54400  Biso   1.000  C
  C4       1.0000 0.79300  0.00240  0.45600  Biso   1.000  C
  H11      1.0000 0.12560  0.02580  0.54120  Biso   1.000  H
  H12      1.0000 0.87440  0.97420  0.45880  Biso   1.000  H
  H13      1.0000 0.20090  0.97900  0.58940  Biso   1.000  H
  H14      1.0000 0.79910  0.02100  0.41060  Biso   1.000  H
  C5       1.0000 0.36650  0.14810  0.59950  Biso   1.000  C
  C6       1.0000 0.63350  0.85190  0.40050  Biso   1.000  C
  C7       1.0000 0.24570  0.19170  0.63680  Biso   1.000  C
  C8       1.0000 0.75430  0.80830  0.36320  Biso   1.000  C
  H15      1.0000 0.16720  0.14640  0.64170  Biso   1.000  H
  H16      1.0000 0.83280  0.85360  0.35830  Biso   1.000  H
  H17      1.0000 0.20580  0.21670  0.60190  Biso   1.000  H
  H18      1.0000 0.79420  0.78330  0.39810  Biso   1.000  H
  H19      1.0000 0.28680  0.23980  0.69060  Biso   1.000  H
  H20      1.0000 0.71320  0.76020  0.30940  Biso   1.000  H
  C9       1.0000 0.51270  0.21590  0.61320  Biso   1.000  C
  C10      1.0000 0.48730  0.78410  0.38680  Biso   1.000  C
  H21      1.0000 0.51870  0.26850  0.66460  Biso   1.000  H
  H22      1.0000 0.48130  0.73150  0.33540  Biso   1.000  H
  H23      1.0000 0.51020  0.23660  0.56920  Biso   1.000  H
  H24      1.0000 0.48980  0.76340  0.43080  Biso   1.000  H
  C11      1.0000 0.34350  0.81450  0.38280  Biso   1.000  C
  C12      1.0000 0.65650  0.18550  0.61720  Biso   1.000  C
  H25      1.0000 0.34540  0.84100  0.34210  Biso   1.000  H
  H26      1.0000 0.65460  0.15900  0.65790  Biso   1.000  H
  C13      1.0000 0.21190  0.73000  0.35130  Biso   1.000  C
  C14      1.0000 0.78810  0.27000  0.64870  Biso   1.000  C
  C15      1.0000 0.12640  0.70110  0.27450  Biso   1.000  C
  C16      1.0000 0.87360  0.29890  0.72550  Biso   1.000  C
  H27      1.0000 0.14340  0.73600  0.24400  Biso   1.000  H
  H28      1.0000 0.85660  0.26400  0.75600  Biso   1.000  H
  C17      1.0000 0.01470  0.61920  0.24320  Biso   1.000  C
  C18      1.0000 0.98530  0.38080  0.75680  Biso   1.000  C
  H29      1.0000 0.95520  0.60090  0.19240  Biso   1.000  H
  H30      1.0000 0.04480  0.39910  0.80760  Biso   1.000  H
  C19      1.0000 0.99160  0.56620  0.28540  Biso   1.000  C
  C20      1.0000 0.00840  0.43380  0.71460  Biso   1.000  C
  H31      1.0000 0.91930  0.51070  0.26270  Biso   1.000  H
  H32      1.0000 0.08070  0.48930  0.73730  Biso   1.000  H
  C21      1.0000 0.07400  0.59400  0.36130  Biso   1.000  C
  C22      1.0000 0.92600  0.40600  0.63870  Biso   1.000  C
  H33      1.0000 0.05750  0.55740  0.39030  Biso   1.000  H
  H34      1.0000 0.94250  0.44260  0.60970  Biso   1.000  H
  C23      1.0000 0.18230  0.67650  0.39560  Biso   1.000  C
  C24      1.0000 0.81770  0.32350  0.60440  Biso   1.000  C
  H35      1.0000 0.23530  0.69610  0.44840  Biso   1.000  H
  H36      1.0000 0.76470  0.30390  0.55160  Biso   1.000  H
  C25      1.0000 0.21610  0.94160  0.03550  Biso   1.000  C
  C26      1.0000 0.78390  0.05840  0.96450  Biso   1.000  C
  H37      1.0000 0.24980  0.95670  0.09320  Biso   1.000  H
  H38      1.0000 0.75020  0.04330  0.90680  Biso   1.000  H
  H39      1.0000 0.11760  0.89940  0.01900  Biso   1.000  H
  H40      1.0000 0.88240  0.10060  0.98100  Biso   1.000  H
  C27      1.0000 0.20790  0.02570  0.02520  Biso   1.000  C
  C28      1.0000 0.79210  0.97430  0.97480  Biso   1.000  C
  H41      1.0000 0.14920  0.00950  0.97190  Biso   1.000  H
  H42      1.0000 0.85080  0.99050  0.02810  Biso   1.000  H
  H43      1.0000 0.15890  0.06180  0.06800  Biso   1.000  H
  H44      1.0000 0.84110  0.93820  0.93200  Biso   1.000  H
  C29      1.0000 0.38350  0.16570  0.05110  Biso   1.000  C
  C30      1.0000 0.61650  0.83430  0.94890  Biso   1.000  C
  C31      1.0000 0.26640  0.21870  0.07280  Biso   1.000  C
  C32      1.0000 0.73360  0.78130  0.92720  Biso   1.000  C
  H45      1.0000 0.22650  0.21280  0.11940  Biso   1.000  H
  H46      1.0000 0.77350  0.78720  0.88060  Biso   1.000  H
  H47      1.0000 0.18720  0.19500  0.02640  Biso   1.000  H
  H48      1.0000 0.81280  0.80500  0.97360  Biso   1.000  H
  H49      1.0000 0.31060  0.28210  0.08640  Biso   1.000  H
  H50      1.0000 0.68940  0.71790  0.91360  Biso   1.000  H
  C33      1.0000 0.53680  0.22100  0.05680  Biso   1.000  C
  C34      1.0000 0.46320  0.77900  0.94320  Biso   1.000  C
  H51      1.0000 0.58500  0.24510  0.11390  Biso   1.000  H
  H52      1.0000 0.41500  0.75490  0.88610  Biso   1.000  H
  H53      1.0000 0.52500  0.27320  0.04620  Biso   1.000  H
  H54      1.0000 0.47500  0.72680  0.95380  Biso   1.000  H
  C35      1.0000 0.35440  0.82030  0.99680  Biso   1.000  C
  C36      1.0000 0.64560  0.17970  0.00320  Biso   1.000  C
  H55      1.0000 0.40410  0.84450  0.05420  Biso   1.000  H
  H56      1.0000 0.59590  0.15550  0.94580  Biso   1.000  H
  C37      1.0000 0.21780  0.74490  0.98680  Biso   1.000  C
  C38      1.0000 0.78220  0.25510  0.01320  Biso   1.000  C
  C39      1.0000 0.21000  0.70880  0.04340  Biso   1.000  C
  C40      1.0000 0.79000  0.29120  0.95660  Biso   1.000  C
  H57      1.0000 0.28490  0.73260  0.08930  Biso   1.000  H
  H58      1.0000 0.71510  0.26740  0.91070  Biso   1.000  H
  C41      1.0000 0.09200  0.63700  0.03350  Biso   1.000  C
  C42      1.0000 0.90800  0.36300  0.96650  Biso   1.000  C
  H59      1.0000 0.08930  0.61160  0.07190  Biso   1.000  H
  H60      1.0000 0.91070  0.38840  0.92810  Biso   1.000  H
  C43      1.0000 0.97940  0.60280  0.96830  Biso   1.000  C
  C44      1.0000 0.02060  0.39720  0.03170  Biso   1.000  C
  H61      1.0000 0.89690  0.55690  0.96400  Biso   1.000  H
  H62      1.0000 0.10310  0.44310  0.03600  Biso   1.000  H
  C45      1.0000 0.98750  0.63570  0.90970  Biso   1.000  C
  C46      1.0000 0.01250  0.36430  0.09030  Biso   1.000  C
  H63      1.0000 0.91250  0.61070  0.86370  Biso   1.000  H
  H64      1.0000 0.08750  0.38930  0.13630  Biso   1.000  H
  C47      1.0000 0.10740  0.70660  0.91790  Biso   1.000  C
  C48      1.0000 0.89260  0.29340  0.08210  Biso   1.000  C
  H65      1.0000 0.11380  0.72850  0.87700  Biso   1.000  H
  H66      1.0000 0.88620  0.27150  0.12300  Biso   1.000  H
  C49      1.0000 0.30830  0.42610  0.58470  Biso   1.000  C
  C50      1.0000 0.69170  0.57390  0.41530  Biso   1.000  C
  H67      1.0000 0.25820  0.43190  0.63210  Biso   1.000  H
  H68      1.0000 0.74180  0.56810  0.36790  Biso   1.000  H
  H69      1.0000 0.33770  0.36880  0.56620  Biso   1.000  H
  H70      1.0000 0.66230  0.63120  0.43380  Biso   1.000  H
  C51      1.0000 0.20420  0.42520  0.51760  Biso   1.000  C
  C52      1.0000 0.79580  0.57480  0.48240  Biso   1.000  C
  H71      1.0000 0.12670  0.36820  0.49460  Biso   1.000  H
  H72      1.0000 0.87330  0.63180  0.50540  Biso   1.000  H
  H73      1.0000 0.15670  0.47520  0.53940  Biso   1.000  H
  H74      1.0000 0.84330  0.52480  0.46060  Biso   1.000  H
  C53      1.0000 0.22330  0.40170  0.37770  Biso   1.000  C
  C54      1.0000 0.77670  0.59830  0.62230  Biso   1.000  C
  C55      1.0000 0.06320  0.34930  0.34810  Biso   1.000  C
  C56      1.0000 0.93680  0.65070  0.65190  Biso   1.000  C
  H75      1.0000 0.03850  0.30850  0.37470  Biso   1.000  H
  H76      1.0000 0.96150  0.69150  0.62530  Biso   1.000  H
  H77      1.0000 0.04780  0.31450  0.28930  Biso   1.000  H
  H78      1.0000 0.95220  0.68550  0.71070  Biso   1.000  H
  H79      1.0000 0.00030  0.39110  0.36130  Biso   1.000  H
  H80      1.0000 0.99970  0.60890  0.63870  Biso   1.000  H
  C57      1.0000 0.30720  0.41150  0.31080  Biso   1.000  C
  C58      1.0000 0.69280  0.58850  0.68920  Biso   1.000  C
  H81      1.0000 0.23540  0.40940  0.26750  Biso   1.000  H
  H82      1.0000 0.76460  0.59060  0.73250  Biso   1.000  H
  H83      1.0000 0.34700  0.35830  0.28720  Biso   1.000  H
  H84      1.0000 0.65300  0.64170  0.71280  Biso   1.000  H
  C59      1.0000 0.56520  0.50420  0.66630  Biso   1.000  C
  C60      1.0000 0.43480  0.49580  0.33370  Biso   1.000  C
  H85      1.0000 0.60460  0.45170  0.63560  Biso   1.000  H
  H86      1.0000 0.39540  0.54830  0.36440  Biso   1.000  H
  C61      1.0000 0.52450  0.49350  0.74360  Biso   1.000  C
  C62      1.0000 0.47550  0.50650  0.25640  Biso   1.000  C
  C63      1.0000 0.59720  0.44360  0.77270  Biso   1.000  C
  C64      1.0000 0.40280  0.55640  0.22730  Biso   1.000  C
  H87      1.0000 0.66980  0.41840  0.74500  Biso   1.000  H
  H88      1.0000 0.33020  0.58160  0.25500  Biso   1.000  H
  C65      1.0000 0.56410  0.43060  0.84240  Biso   1.000  C
  C66      1.0000 0.43590  0.56940  0.15760  Biso   1.000  C
  H89      1.0000 0.61520  0.39800  0.86210  Biso   1.000  H
  H90      1.0000 0.38480  0.60200  0.13790  Biso   1.000  H
  C67      1.0000 0.45450  0.46650  0.88220  Biso   1.000  C
  C68      1.0000 0.54550  0.53350  0.11780  Biso   1.000  C
  H91      1.0000 0.42770  0.45510  0.92730  Biso   1.000  H
  H92      1.0000 0.57230  0.54490  0.07270  Biso   1.000  H
  C69      1.0000 0.38440  0.51880  0.85630  Biso   1.000  C
  C70      1.0000 0.61560  0.48120  0.14370  Biso   1.000  C
  H93      1.0000 0.31450  0.54570  0.88550  Biso   1.000  H
  H94      1.0000 0.68550  0.45430  0.11450  Biso   1.000  H
  C71      1.0000 0.41810  0.53130  0.78670  Biso   1.000  C
  C72      1.0000 0.58190  0.46870  0.21330  Biso   1.000  C
  H95      1.0000 0.36870  0.56570  0.76840  Biso   1.000  H
  H96      1.0000 0.63130  0.43430  0.23160  Biso   1.000  H
  C73      1.0000 0.46510  0.08860  0.35410  Biso   1.000  C
  C74      1.0000 0.53490  0.91140  0.64590  Biso   1.000  C
  C75      1.0000 0.56480  0.08760  0.21330  Biso   1.000  C
  C76      1.0000 0.43520  0.91240  0.78670  Biso   1.000  C
  C77      1.0000 0.54320  0.27780  0.41600  Biso   1.000  C
  C78      1.0000 0.45680  0.72220  0.58400  Biso   1.000  C
  C79      1.0000 0.74220  0.17590  0.36200  Biso   1.000  C
  C80      1.0000 0.25780  0.82410  0.63800  Biso   1.000  C
  C81      1.0000 0.64890  0.27080  0.28510  Biso   1.000  C
  C82      1.0000 0.35110  0.72920  0.71490  Biso   1.000  C
  C83      1.0000 0.35740  0.17500  0.27290  Biso   1.000  C
  C84      1.0000 0.64260  0.82500  0.72710  Biso   1.000  C
  C85      1.0000 0.33700  0.13700  0.80190  Biso   1.000  C
  C86      1.0000 0.66300  0.86300  0.19810  Biso   1.000  C
  H97      1.0000 0.35150  0.08150  0.79830  Biso   1.000  H
  H98      1.0000 0.64850  0.91850  0.20170  Biso   1.000  H
  C87      1.0000 0.08200  0.06700  0.78500  Biso   1.000  C
  C88      1.0000 0.91800  0.93300  0.21500  Biso   1.000  C
  H99      1.0000 0.10800  0.01020  0.77570  Biso   1.000  H
  H100     1.0000 0.89200  0.98980  0.22430  Biso   1.000  H
  H101     1.0000 0.03380  0.06330  0.73430  Biso   1.000  H
  H102     1.0000 0.96620  0.93670  0.26570  Biso   1.000  H
  H103     1.0000 0.01410  0.07680  0.82490  Biso   1.000  H
  H104     1.0000 0.98590  0.92320  0.17510  Biso   1.000  H
  C89      1.0000 0.15600  0.21600  0.85300  Biso   1.000  C
  C90      1.0000 0.84400  0.78400  0.14700  Biso   1.000  C
  H105     1.0000 0.09250  0.21270  0.89300  Biso   1.000  H
  H106     1.0000 0.90750  0.78730  0.10700  Biso   1.000  H
  H107     1.0000 0.10560  0.23090  0.81320  Biso   1.000  H
  H108     1.0000 0.89440  0.76910  0.18680  Biso   1.000  H
  H109     1.0000 0.24740  0.26190  0.88050  Biso   1.000  H
  H110     1.0000 0.75260  0.73810  0.11950  Biso   1.000  H
  N25      1.0000 0.18900  0.12690  0.81070  Biso   1.000  N
  N26      1.0000 0.81100  0.87310  0.18930  Biso   1.000  N
  O1       1.0000 0.47000  0.17680  0.79550  Biso   1.000  O
  O2       1.0000 0.53000  0.82320  0.20450  Biso   1.000  O
  O3       1.0000 0.13610  0.14250  0.44380  Biso   1.000  O
  O4       1.0000 0.86390  0.85750  0.55620  Biso   1.000  O
  H111     1.0000 0.10450  0.10080  0.42260  Biso   1.000  H
  H112     1.0000 0.89550  0.89920  0.57740  Biso   1.000  H
  H113     1.0000 0.15470  0.18460  0.45150  Biso   1.000  H
  H114     1.0000 0.84530  0.81540  0.54850  Biso   1.000  H
  O5       1.0000 0.93420  0.13800  0.16970  Biso   1.000  O
  O6       1.0000 0.06580  0.86200  0.83030  Biso   1.000  O
  H115     1.0000 0.96000  0.12560  0.11620  Biso   1.000  H
  H116     1.0000 0.04000  0.87440  0.88380  Biso   1.000  H
  H117     1.0000 0.99340  0.11430  0.19850  Biso   1.000  H
  H118     1.0000 0.00660  0.88570  0.80150  Biso   1.000  H
