data_image0
_cell_length_a       8.1756
_cell_length_b       9.3263
_cell_length_c       13.8965
_cell_angle_alpha    78.369
_cell_angle_beta     83.065
_cell_angle_gamma    76.501

_symmetry_space_group_name_H-M    "P 1"
_symmetry_int_tables_number       1

loop_
  _symmetry_equiv_pos_as_xyz
  'x, y, z'

loop_
  _atom_site_label
  _atom_site_occupancy
  _atom_site_fract_x
  _atom_site_fract_y
  _atom_site_fract_z
  _atom_site_thermal_displace_type
  _atom_site_B_iso_or_equiv
  _atom_site_type_symbol
  Mo1      1.0000 0.20305  0.38472  0.95107  Biso   1.000  Mo
  Mo2      1.0000 0.79695  0.61528  0.04893  Biso   1.000  Mo
  Mo3      1.0000 0.33602  0.67904  0.07478  Biso   1.000  Mo
  Mo4      1.0000 0.66398  0.32096  0.92522  Biso   1.000  Mo
  Cu1      1.0000 0.00000  0.00000  0.00000  Biso   1.000  Cu
  O1       1.0000 0.13530  0.22550  0.94910  Biso   1.000  O
  O2       1.0000 0.86470  0.77450  0.05090  Biso   1.000  O
  O3       1.0000 0.00000  0.50000  0.00000  Biso   1.000  O
  O4       1.0000 0.20440  0.47090  0.83190  Biso   1.000  O
  O5       1.0000 0.79560  0.52910  0.16810  Biso   1.000  O
  O6       1.0000 0.30400  0.54900  0.00630  Biso   1.000  O
  O7       1.0000 0.69600  0.45100  0.99370  Biso   1.000  O
  O8       1.0000 0.44990  0.29340  0.94170  Biso   1.000  O
  O9       1.0000 0.55010  0.70660  0.05830  Biso   1.000  O
  O10      1.0000 0.28570  0.61900  0.19580  Biso   1.000  O
  O11      1.0000 0.71430  0.38100  0.80420  Biso   1.000  O
  O12      1.0000 0.20450  0.85340  0.03820  Biso   1.000  O
  O13      1.0000 0.79550  0.14660  0.96180  Biso   1.000  O
  N1       1.0000 0.25610  0.25170  0.11870  Biso   1.000  N
  N2       1.0000 0.74390  0.74830  0.88130  Biso   1.000  N
  N3       1.0000 0.91110  0.35130  0.48500  Biso   1.000  N
  N4       1.0000 0.08890  0.64870  0.51500  Biso   1.000  N
  N5       1.0000 0.06590  0.97490  0.85850  Biso   1.000  N
  N6       1.0000 0.93410  0.02510  0.14150  Biso   1.000  N
  C1       1.0000 0.34050  0.10890  0.12630  Biso   1.000  C
  C2       1.0000 0.65950  0.89110  0.87370  Biso   1.000  C
  H1       1.0000 0.38080  0.07220  0.06860  Biso   1.000  H
  H2       1.0000 0.61920  0.92780  0.93140  Biso   1.000  H
  C3       1.0000 0.37080  0.01390  0.21430  Biso   1.000  C
  C4       1.0000 0.62920  0.98610  0.78570  Biso   1.000  C
  H3       1.0000 0.42970  0.91550  0.21510  Biso   1.000  H
  H4       1.0000 0.57030  0.08450  0.78490  Biso   1.000  H
  C5       1.0000 0.31350  0.06470  0.30220  Biso   1.000  C
  C6       1.0000 0.68650  0.93530  0.69780  Biso   1.000  C
  C7       1.0000 0.22590  0.21230  0.29420  Biso   1.000  C
  C8       1.0000 0.77410  0.78770  0.70580  Biso   1.000  C
  H5       1.0000 0.18400  0.25210  0.35070  Biso   1.000  H
  H6       1.0000 0.81600  0.74790  0.64930  Biso   1.000  H
  C9       1.0000 0.20070  0.30050  0.20270  Biso   1.000  C
  C10      1.0000 0.79930  0.69950  0.79730  Biso   1.000  C
  H7       1.0000 0.14190  0.39930  0.19960  Biso   1.000  H
  H8       1.0000 0.85810  0.60070  0.80040  Biso   1.000  H
  C11      1.0000 0.34650  0.96390  0.39870  Biso   1.000  C
  C12      1.0000 0.65350  0.03610  0.60130  Biso   1.000  C
  C13      1.0000 0.47110  0.83830  0.39960  Biso   1.000  C
  C14      1.0000 0.52890  0.16170  0.60040  Biso   1.000  C
  H9       1.0000 0.53050  0.81660  0.34110  Biso   1.000  H
  H10      1.0000 0.46950  0.18340  0.65890  Biso   1.000  H
  C15      1.0000 0.50850  0.74460  0.48630  Biso   1.000  C
  C16      1.0000 0.49150  0.25540  0.51370  Biso   1.000  C
  C17      1.0000 0.42400  0.77520  0.57280  Biso   1.000  C
  C18      1.0000 0.57600  0.22480  0.42720  Biso   1.000  C
  H11      1.0000 0.45230  0.71080  0.63160  Biso   1.000  H
  H12      1.0000 0.54770  0.28920  0.36840  Biso   1.000  H
  C19      1.0000 0.29780  0.90020  0.57360  Biso   1.000  C
  C20      1.0000 0.70220  0.09980  0.42640  Biso   1.000  C
  C21      1.0000 0.25690  0.99570  0.48600  Biso   1.000  C
  C22      1.0000 0.74310  0.00430  0.51400  Biso   1.000  C
  H13      1.0000 0.17010  0.08040  0.48550  Biso   1.000  H
  H14      1.0000 0.82990  0.91960  0.51450  Biso   1.000  H
  C23      1.0000 0.82370  0.38630  0.56730  Biso   1.000  C
  C24      1.0000 0.17630  0.61370  0.43270  Biso   1.000  C
  H15      1.0000 0.85200  0.32220  0.62630  Biso   1.000  H
  H16      1.0000 0.14800  0.67780  0.37370  Biso   1.000  H
  C25      1.0000 0.69400  0.51080  0.57190  Biso   1.000  C
  C26      1.0000 0.30600  0.48920  0.42810  Biso   1.000  C
  H17      1.0000 0.63920  0.52890  0.63230  Biso   1.000  H
  H18      1.0000 0.36080  0.47110  0.36770  Biso   1.000  H
  C27      1.0000 0.64670  0.60770  0.48600  Biso   1.000  C
  C28      1.0000 0.35330  0.39230  0.51400  Biso   1.000  C
  C29      1.0000 0.73400  0.57120  0.39900  Biso   1.000  C
  C30      1.0000 0.26600  0.42880  0.60100  Biso   1.000  C
  H19      1.0000 0.70600  0.63120  0.33860  Biso   1.000  H
  H20      1.0000 0.29400  0.36880  0.66140  Biso   1.000  H
  C31      1.0000 0.86230  0.44530  0.40320  Biso   1.000  C
  C32      1.0000 0.13770  0.55470  0.59680  Biso   1.000  C
  H21      1.0000 0.91960  0.42430  0.34390  Biso   1.000  H
  H22      1.0000 0.08040  0.57570  0.65610  Biso   1.000  H
  C33      1.0000 0.06490  0.08890  0.78280  Biso   1.000  C
  C34      1.0000 0.93510  0.91110  0.21720  Biso   1.000  C
  H23      1.0000 0.01550  0.18530  0.79360  Biso   1.000  H
  H24      1.0000 0.98450  0.81470  0.20640  Biso   1.000  H
  C35      1.0000 0.13390  0.07020  0.68920  Biso   1.000  C
  C36      1.0000 0.86610  0.92980  0.31080  Biso   1.000  C
  H25      1.0000 0.12910  0.15290  0.63860  Biso   1.000  H
  H26      1.0000 0.87090  0.84710  0.36140  Biso   1.000  H
  C37      1.0000 0.21040  0.92800  0.67070  Biso   1.000  C
  C38      1.0000 0.78960  0.07200  0.32930  Biso   1.000  C
  C39      1.0000 0.20470  0.80950  0.74890  Biso   1.000  C
  C40      1.0000 0.79530  0.19050  0.25110  Biso   1.000  C
  H27      1.0000 0.25090  0.71160  0.73980  Biso   1.000  H
  H28      1.0000 0.74910  0.28840  0.26020  Biso   1.000  H
  C41      1.0000 0.13080  0.83660  0.83970  Biso   1.000  C
  C42      1.0000 0.86920  0.16340  0.16030  Biso   1.000  C
  H29      1.0000 0.12570  0.75530  0.89030  Biso   1.000  H
  H30      1.0000 0.87430  0.24470  0.10970  Biso   1.000  H
