data_image0
_cell_length_a       7.1385
_cell_length_b       8.9032
_cell_length_c       9.49
_cell_angle_alpha    108.092
_cell_angle_beta     97.066
_cell_angle_gamma    108.374

_symmetry_space_group_name_H-M    "P 1"
_symmetry_int_tables_number       1

loop_
  _symmetry_equiv_pos_as_xyz
  'x, y, z'

loop_
  _atom_site_label
  _atom_site_occupancy
  _atom_site_fract_x
  _atom_site_fract_y
  _atom_site_fract_z
  _atom_site_thermal_displace_type
  _atom_site_B_iso_or_equiv
  _atom_site_type_symbol
  Cu1      1.0000 0.36557  0.10330  0.11287  Biso   1.000  Cu
  Cu2      1.0000 0.63443  0.89670  0.88713  Biso   1.000  Cu
  O1       1.0000 0.33920  0.03473  0.89563  Biso   1.000  O
  O2       1.0000 0.66080  0.96527  0.10437  Biso   1.000  O
  O3       1.0000 0.12790  0.90039  0.06318  Biso   1.000  O
  O4       1.0000 0.87210  0.09961  0.93682  Biso   1.000  O
  O5       1.0000 0.87150  0.72250  0.86109  Biso   1.000  O
  O6       1.0000 0.12850  0.27750  0.13891  Biso   1.000  O
  O7       1.0000 0.10750  0.84970  0.68143  Biso   1.000  O
  O8       1.0000 0.89250  0.15030  0.31857  Biso   1.000  O
  N1       1.0000 0.42030  0.16750  0.33788  Biso   1.000  N
  N2       1.0000 0.57970  0.83250  0.66212  Biso   1.000  N
  N3       1.0000 0.59280  0.32640  0.17154  Biso   1.000  N
  N4       1.0000 0.40720  0.67360  0.82846  Biso   1.000  N
  N5       1.0000 0.53610  0.28690  0.65440  Biso   1.000  N
  N6       1.0000 0.46390  0.71310  0.34560  Biso   1.000  N
  N7       1.0000 0.90940  0.64290  0.28830  Biso   1.000  N
  N8       1.0000 0.09060  0.35710  0.71170  Biso   1.000  N
  C1       1.0000 0.32060  0.07910  0.41450  Biso   1.000  C
  C2       1.0000 0.67940  0.92090  0.58550  Biso   1.000  C
  H1       1.0000 0.21140  0.97640  0.36180  Biso   1.000  H
  H2       1.0000 0.78860  0.02360  0.63820  Biso   1.000  H
  C3       1.0000 0.38040  0.14090  0.57300  Biso   1.000  C
  C4       1.0000 0.61960  0.85910  0.42700  Biso   1.000  C
  H3       1.0000 0.30890  0.07790  0.62440  Biso   1.000  H
  H4       1.0000 0.69110  0.92210  0.37560  Biso   1.000  H
  C5       1.0000 0.63260  0.37400  0.57530  Biso   1.000  C
  C6       1.0000 0.36740  0.62600  0.42470  Biso   1.000  C
  H5       1.0000 0.74120  0.47710  0.62830  Biso   1.000  H
  H6       1.0000 0.25880  0.52290  0.37170  Biso   1.000  H
  C7       1.0000 0.57620  0.31580  0.41690  Biso   1.000  C
  C8       1.0000 0.42380  0.68420  0.58310  Biso   1.000  C
  C9       1.0000 0.67310  0.40710  0.32270  Biso   1.000  C
  C10      1.0000 0.32690  0.59290  0.67730  Biso   1.000  C
  C11      1.0000 0.83260  0.56430  0.37960  Biso   1.000  C
  C12      1.0000 0.16740  0.43570  0.62040  Biso   1.000  C
  H7       1.0000 0.88800  0.61690  0.48460  Biso   1.000  H
  H8       1.0000 0.11200  0.38310  0.51540  Biso   1.000  H
  C13      1.0000 0.82490  0.56190  0.13880  Biso   1.000  C
  C14      1.0000 0.17510  0.43810  0.86120  Biso   1.000  C
  H9       1.0000 0.87330  0.61370  0.07230  Biso   1.000  H
  H10      1.0000 0.12670  0.38630  0.92770  Biso   1.000  H
  C15      1.0000 0.66780  0.40350  0.07880  Biso   1.000  C
  C16      1.0000 0.33220  0.59650  0.92120  Biso   1.000  C
  H11      1.0000 0.61420  0.35040  0.97360  Biso   1.000  H
  H12      1.0000 0.38580  0.64960  0.02640  Biso   1.000  H
  C17      1.0000 0.16830  0.91080  0.81980  Biso   1.000  C
  C18      1.0000 0.83170  0.08920  0.18020  Biso   1.000  C
  C19      1.0000 0.04080  0.83470  0.92020  Biso   1.000  C
  C20      1.0000 0.95920  0.16530  0.07980  Biso   1.000  C
