data_image0
_cell_length_a       19.1057
_cell_length_b       19.1057
_cell_length_c       6.7129
_cell_angle_alpha    90
_cell_angle_beta     90
_cell_angle_gamma    90

_symmetry_space_group_name_H-M    "P 1"
_symmetry_int_tables_number       1

loop_
  _symmetry_equiv_pos_as_xyz
  'x, y, z'

loop_
  _atom_site_label
  _atom_site_occupancy
  _atom_site_fract_x
  _atom_site_fract_y
  _atom_site_fract_z
  _atom_site_thermal_displace_type
  _atom_site_B_iso_or_equiv
  _atom_site_type_symbol
  Cu1      1.0000 0.46891  0.46891  0.35140  Biso   1.000  Cu
  Cu2      1.0000 0.03109  0.46891  0.35140  Biso   1.000  Cu
  Cu3      1.0000 0.03109  0.03109  0.35140  Biso   1.000  Cu
  Cu4      1.0000 0.46891  0.03109  0.35140  Biso   1.000  Cu
  Cu5      1.0000 0.96891  0.53109  0.64860  Biso   1.000  Cu
  Cu6      1.0000 0.53109  0.96891  0.64860  Biso   1.000  Cu
  Cu7      1.0000 0.96891  0.96891  0.64860  Biso   1.000  Cu
  Cu8      1.0000 0.53109  0.53109  0.64860  Biso   1.000  Cu
  C1       1.0000 0.38160  0.51290  0.66540  Biso   1.000  C
  C2       1.0000 0.98710  0.38160  0.66540  Biso   1.000  C
  C3       1.0000 0.11840  0.98710  0.66540  Biso   1.000  C
  C4       1.0000 0.51290  0.11840  0.66540  Biso   1.000  C
  C5       1.0000 0.88160  0.48710  0.33460  Biso   1.000  C
  C6       1.0000 0.61840  0.01290  0.33460  Biso   1.000  C
  C7       1.0000 0.01290  0.88160  0.33460  Biso   1.000  C
  C8       1.0000 0.48710  0.61840  0.33460  Biso   1.000  C
  C9       1.0000 0.61840  0.48710  0.33460  Biso   1.000  C
  C10      1.0000 0.01290  0.61840  0.33460  Biso   1.000  C
  C11      1.0000 0.88160  0.01290  0.33460  Biso   1.000  C
  C12      1.0000 0.48710  0.88160  0.33460  Biso   1.000  C
  C13      1.0000 0.11840  0.51290  0.66540  Biso   1.000  C
  C14      1.0000 0.38160  0.98710  0.66540  Biso   1.000  C
  C15      1.0000 0.98710  0.11840  0.66540  Biso   1.000  C
  C16      1.0000 0.51290  0.38160  0.66540  Biso   1.000  C
  O1       1.0000 0.38100  0.48280  0.49790  Biso   1.000  O
  O2       1.0000 0.01720  0.38100  0.49790  Biso   1.000  O
  O3       1.0000 0.11900  0.01720  0.49790  Biso   1.000  O
  O4       1.0000 0.48280  0.11900  0.49790  Biso   1.000  O
  O5       1.0000 0.88100  0.51720  0.50210  Biso   1.000  O
  O6       1.0000 0.61900  0.98280  0.50210  Biso   1.000  O
  O7       1.0000 0.98280  0.88100  0.50210  Biso   1.000  O
  O8       1.0000 0.51720  0.61900  0.50210  Biso   1.000  O
  O9       1.0000 0.61900  0.51720  0.50210  Biso   1.000  O
  O10      1.0000 0.98280  0.61900  0.50210  Biso   1.000  O
  O11      1.0000 0.88100  0.98280  0.50210  Biso   1.000  O
  O12      1.0000 0.51720  0.88100  0.50210  Biso   1.000  O
  O13      1.0000 0.11900  0.48280  0.49790  Biso   1.000  O
  O14      1.0000 0.38100  0.01720  0.49790  Biso   1.000  O
  O15      1.0000 0.01720  0.11900  0.49790  Biso   1.000  O
  O16      1.0000 0.48280  0.38100  0.49790  Biso   1.000  O
  O17      1.0000 0.43480  0.53610  0.74790  Biso   1.000  O
  O18      1.0000 0.96390  0.43480  0.74790  Biso   1.000  O
  O19      1.0000 0.06520  0.96390  0.74790  Biso   1.000  O
  O20      1.0000 0.53610  0.06520  0.74790  Biso   1.000  O
  O21      1.0000 0.93480  0.46390  0.25210  Biso   1.000  O
  O22      1.0000 0.56520  0.03610  0.25210  Biso   1.000  O
  O23      1.0000 0.03610  0.93480  0.25210  Biso   1.000  O
  O24      1.0000 0.46390  0.56520  0.25210  Biso   1.000  O
  O25      1.0000 0.56520  0.46390  0.25210  Biso   1.000  O
  O26      1.0000 0.03610  0.56520  0.25210  Biso   1.000  O
  O27      1.0000 0.93480  0.03610  0.25210  Biso   1.000  O
  O28      1.0000 0.46390  0.93480  0.25210  Biso   1.000  O
  O29      1.0000 0.06520  0.53610  0.74790  Biso   1.000  O
  O30      1.0000 0.43480  0.96390  0.74790  Biso   1.000  O
  O31      1.0000 0.96390  0.06520  0.74790  Biso   1.000  O
  O32      1.0000 0.53610  0.43480  0.74790  Biso   1.000  O
  O33      1.0000 0.42520  0.42520  0.08890  Biso   1.000  O
  O34      1.0000 0.07480  0.42520  0.08890  Biso   1.000  O
  O35      1.0000 0.07480  0.07480  0.08890  Biso   1.000  O
  O36      1.0000 0.42520  0.07480  0.08890  Biso   1.000  O
  O37      1.0000 0.92520  0.57480  0.91110  Biso   1.000  O
  O38      1.0000 0.57480  0.92520  0.91110  Biso   1.000  O
  O39      1.0000 0.92520  0.92520  0.91110  Biso   1.000  O
  O40      1.0000 0.57480  0.57480  0.91110  Biso   1.000  O
  H1       1.0000 0.38470  0.44490  0.06020  Biso   1.000  H
  H2       1.0000 0.05510  0.38470  0.06020  Biso   1.000  H
  H3       1.0000 0.11530  0.05510  0.06020  Biso   1.000  H
  H4       1.0000 0.44490  0.11530  0.06020  Biso   1.000  H
  H5       1.0000 0.88470  0.55510  0.93980  Biso   1.000  H
  H6       1.0000 0.61530  0.94490  0.93980  Biso   1.000  H
  H7       1.0000 0.94490  0.88470  0.93980  Biso   1.000  H
  H8       1.0000 0.55510  0.61530  0.93980  Biso   1.000  H
  H9       1.0000 0.61530  0.55510  0.93980  Biso   1.000  H
  H10      1.0000 0.94490  0.61530  0.93980  Biso   1.000  H
  H11      1.0000 0.88470  0.94490  0.93980  Biso   1.000  H
  H12      1.0000 0.55510  0.88470  0.93980  Biso   1.000  H
  H13      1.0000 0.11530  0.44490  0.06020  Biso   1.000  H
  H14      1.0000 0.38470  0.05510  0.06020  Biso   1.000  H
  H15      1.0000 0.05510  0.11530  0.06020  Biso   1.000  H
  H16      1.0000 0.44490  0.38470  0.06020  Biso   1.000  H
  C17      1.0000 0.25000  0.56940  0.05100  Biso   1.000  C
  C18      1.0000 0.93060  0.25000  0.05100  Biso   1.000  C
  C19      1.0000 0.25000  0.93060  0.05100  Biso   1.000  C
  C20      1.0000 0.56940  0.25000  0.05100  Biso   1.000  C
  C21      1.0000 0.75000  0.43060  0.94900  Biso   1.000  C
  C22      1.0000 0.75000  0.06940  0.94900  Biso   1.000  C
  C23      1.0000 0.06940  0.75000  0.94900  Biso   1.000  C
  C24      1.0000 0.43060  0.75000  0.94900  Biso   1.000  C
  C25      1.0000 0.31290  0.52590  0.76530  Biso   1.000  C
  C26      1.0000 0.97410  0.31290  0.76530  Biso   1.000  C
  C27      1.0000 0.18710  0.97410  0.76530  Biso   1.000  C
  C28      1.0000 0.52590  0.18710  0.76530  Biso   1.000  C
  C29      1.0000 0.81290  0.47410  0.23470  Biso   1.000  C
  C30      1.0000 0.68710  0.02590  0.23470  Biso   1.000  C
  C31      1.0000 0.02590  0.81290  0.23470  Biso   1.000  C
  C32      1.0000 0.47410  0.68710  0.23470  Biso   1.000  C
  C33      1.0000 0.68710  0.47410  0.23470  Biso   1.000  C
  C34      1.0000 0.02590  0.68710  0.23470  Biso   1.000  C
  C35      1.0000 0.81290  0.02590  0.23470  Biso   1.000  C
  C36      1.0000 0.47410  0.81290  0.23470  Biso   1.000  C
  C37      1.0000 0.18710  0.52590  0.76530  Biso   1.000  C
  C38      1.0000 0.31290  0.97410  0.76530  Biso   1.000  C
  C39      1.0000 0.97410  0.18710  0.76530  Biso   1.000  C
  C40      1.0000 0.52590  0.31290  0.76530  Biso   1.000  C
  O41      1.0000 0.25000  0.59740  0.23490  Biso   1.000  O
  O42      1.0000 0.90260  0.25000  0.23490  Biso   1.000  O
  O43      1.0000 0.25000  0.90260  0.23490  Biso   1.000  O
  O44      1.0000 0.59740  0.25000  0.23490  Biso   1.000  O
  O45      1.0000 0.75000  0.40260  0.76510  Biso   1.000  O
  O46      1.0000 0.75000  0.09740  0.76510  Biso   1.000  O
  O47      1.0000 0.09740  0.75000  0.76510  Biso   1.000  O
  O48      1.0000 0.40260  0.75000  0.76510  Biso   1.000  O
  C41      1.0000 0.31260  0.55330  0.95590  Biso   1.000  C
  C42      1.0000 0.94670  0.31260  0.95590  Biso   1.000  C
  C43      1.0000 0.18740  0.94670  0.95590  Biso   1.000  C
  C44      1.0000 0.55330  0.18740  0.95590  Biso   1.000  C
  C45      1.0000 0.81260  0.44670  0.04410  Biso   1.000  C
  C46      1.0000 0.68740  0.05330  0.04410  Biso   1.000  C
  C47      1.0000 0.05330  0.81260  0.04410  Biso   1.000  C
  C48      1.0000 0.44670  0.68740  0.04410  Biso   1.000  C
  C49      1.0000 0.68740  0.44670  0.04410  Biso   1.000  C
  C50      1.0000 0.05330  0.68740  0.04410  Biso   1.000  C
  C51      1.0000 0.81260  0.05330  0.04410  Biso   1.000  C
  C52      1.0000 0.44670  0.81260  0.04410  Biso   1.000  C
  C53      1.0000 0.18740  0.55330  0.95590  Biso   1.000  C
  C54      1.0000 0.31260  0.94670  0.95590  Biso   1.000  C
  C55      1.0000 0.94670  0.18740  0.95590  Biso   1.000  C
  C56      1.0000 0.55330  0.31260  0.95590  Biso   1.000  C
  H17      1.0000 0.35480  0.56110  0.02130  Biso   1.000  H
  H18      1.0000 0.93890  0.35480  0.02130  Biso   1.000  H
  H19      1.0000 0.14520  0.93890  0.02130  Biso   1.000  H
  H20      1.0000 0.56110  0.14520  0.02130  Biso   1.000  H
  H21      1.0000 0.85480  0.43890  0.97870  Biso   1.000  H
  H22      1.0000 0.64520  0.06110  0.97870  Biso   1.000  H
  H23      1.0000 0.06110  0.85480  0.97870  Biso   1.000  H
  H24      1.0000 0.43890  0.64520  0.97870  Biso   1.000  H
  H25      1.0000 0.64520  0.43890  0.97870  Biso   1.000  H
  H26      1.0000 0.06110  0.64520  0.97870  Biso   1.000  H
  H27      1.0000 0.85480  0.06110  0.97870  Biso   1.000  H
  H28      1.0000 0.43890  0.85480  0.97870  Biso   1.000  H
  H29      1.0000 0.14520  0.56110  0.02130  Biso   1.000  H
  H30      1.0000 0.35480  0.93890  0.02130  Biso   1.000  H
  H31      1.0000 0.93890  0.14520  0.02130  Biso   1.000  H
  H32      1.0000 0.56110  0.35480  0.02130  Biso   1.000  H
  C57      1.0000 0.25000  0.51170  0.67230  Biso   1.000  C
  C58      1.0000 0.98830  0.25000  0.67230  Biso   1.000  C
  C59      1.0000 0.25000  0.98830  0.67230  Biso   1.000  C
  C60      1.0000 0.51170  0.25000  0.67230  Biso   1.000  C
  C61      1.0000 0.75000  0.48830  0.32770  Biso   1.000  C
  C62      1.0000 0.75000  0.01170  0.32770  Biso   1.000  C
  C63      1.0000 0.01170  0.75000  0.32770  Biso   1.000  C
  C64      1.0000 0.48830  0.75000  0.32770  Biso   1.000  C
  H33      1.0000 0.25000  0.49240  0.54510  Biso   1.000  H
  H34      1.0000 0.00760  0.25000  0.54510  Biso   1.000  H
  H35      1.0000 0.25000  0.00760  0.54510  Biso   1.000  H
  H36      1.0000 0.49240  0.25000  0.54510  Biso   1.000  H
  H37      1.0000 0.75000  0.50760  0.45490  Biso   1.000  H
  H38      1.0000 0.75000  0.99240  0.45490  Biso   1.000  H
  H39      1.0000 0.99240  0.75000  0.45490  Biso   1.000  H
  H40      1.0000 0.50760  0.75000  0.45490  Biso   1.000  H
  C65      1.0000 0.29260  0.63800  0.31100  Biso   1.000  C
  C66      1.0000 0.86200  0.29260  0.31100  Biso   1.000  C
  C67      1.0000 0.20740  0.86200  0.31100  Biso   1.000  C
  C68      1.0000 0.63800  0.20740  0.31100  Biso   1.000  C
  C69      1.0000 0.79260  0.36200  0.68900  Biso   1.000  C
  C70      1.0000 0.70740  0.13800  0.68900  Biso   1.000  C
  C71      1.0000 0.13800  0.79260  0.68900  Biso   1.000  C
  C72      1.0000 0.36200  0.70740  0.68900  Biso   1.000  C
  C73      1.0000 0.70740  0.36200  0.68900  Biso   1.000  C
  C74      1.0000 0.13800  0.70740  0.68900  Biso   1.000  C
  C75      1.0000 0.79260  0.13800  0.68900  Biso   1.000  C
  C76      1.0000 0.36200  0.79260  0.68900  Biso   1.000  C
  C77      1.0000 0.20740  0.63800  0.31100  Biso   1.000  C
  C78      1.0000 0.29260  0.86200  0.31100  Biso   1.000  C
  C79      1.0000 0.86200  0.20740  0.31100  Biso   1.000  C
  C80      1.0000 0.63800  0.29260  0.31100  Biso   1.000  C
  H41      1.0000 0.33700  0.65480  0.34180  Biso   1.000  H
  H42      1.0000 0.84520  0.33700  0.34180  Biso   1.000  H
  H43      1.0000 0.16300  0.84520  0.34180  Biso   1.000  H
  H44      1.0000 0.65480  0.16300  0.34180  Biso   1.000  H
  H45      1.0000 0.83700  0.34520  0.65820  Biso   1.000  H
  H46      1.0000 0.66300  0.15480  0.65820  Biso   1.000  H
  H47      1.0000 0.15480  0.83700  0.65820  Biso   1.000  H
  H48      1.0000 0.34520  0.66300  0.65820  Biso   1.000  H
  H49      1.0000 0.66300  0.34520  0.65820  Biso   1.000  H
  H50      1.0000 0.15480  0.66300  0.65820  Biso   1.000  H
  H51      1.0000 0.83700  0.15480  0.65820  Biso   1.000  H
  H52      1.0000 0.34520  0.83700  0.65820  Biso   1.000  H
  H53      1.0000 0.16300  0.65480  0.34180  Biso   1.000  H
  H54      1.0000 0.33700  0.84520  0.34180  Biso   1.000  H
  H55      1.0000 0.84520  0.16300  0.34180  Biso   1.000  H
  H56      1.0000 0.65480  0.33700  0.34180  Biso   1.000  H
  O49      1.0000 0.32720  0.32720  0.98400  Biso   1.000  O
  O50      1.0000 0.17280  0.32720  0.98400  Biso   1.000  O
  O51      1.0000 0.17280  0.17280  0.98400  Biso   1.000  O
  O52      1.0000 0.32720  0.17280  0.98400  Biso   1.000  O
  O53      1.0000 0.82720  0.67280  0.01600  Biso   1.000  O
  O54      1.0000 0.67280  0.82720  0.01600  Biso   1.000  O
  O55      1.0000 0.82720  0.82720  0.01600  Biso   1.000  O
  O56      1.0000 0.67280  0.67280  0.01600  Biso   1.000  O
  O57      1.0000 0.32740  0.32740  0.55700  Biso   1.000  O
  O58      1.0000 0.17260  0.32740  0.55700  Biso   1.000  O
  O59      1.0000 0.17260  0.17260  0.55700  Biso   1.000  O
  O60      1.0000 0.32740  0.17260  0.55700  Biso   1.000  O
  O61      1.0000 0.82740  0.67260  0.44300  Biso   1.000  O
  O62      1.0000 0.67260  0.82740  0.44300  Biso   1.000  O
  O63      1.0000 0.82740  0.82740  0.44300  Biso   1.000  O
  O64      1.0000 0.67260  0.67260  0.44300  Biso   1.000  O
  H57      1.0000 0.45320  0.43190  0.98640  Biso   1.000  H
  H58      1.0000 0.06810  0.45320  0.98640  Biso   1.000  H
  H59      1.0000 0.04680  0.06810  0.98640  Biso   1.000  H
  H60      1.0000 0.43190  0.04680  0.98640  Biso   1.000  H
  H61      1.0000 0.95320  0.56810  0.01360  Biso   1.000  H
  H62      1.0000 0.54680  0.93190  0.01360  Biso   1.000  H
  H63      1.0000 0.93190  0.95320  0.01360  Biso   1.000  H
  H64      1.0000 0.56810  0.54680  0.01360  Biso   1.000  H
  H65      1.0000 0.54680  0.56810  0.01360  Biso   1.000  H
  H66      1.0000 0.93190  0.54680  0.01360  Biso   1.000  H
  H67      1.0000 0.95320  0.93190  0.01360  Biso   1.000  H
  H68      1.0000 0.56810  0.95320  0.01360  Biso   1.000  H
  H69      1.0000 0.04680  0.43190  0.98640  Biso   1.000  H
  H70      1.0000 0.45320  0.06810  0.98640  Biso   1.000  H
  H71      1.0000 0.06810  0.04680  0.98640  Biso   1.000  H
  H72      1.0000 0.43190  0.45320  0.98640  Biso   1.000  H
