data_image0
_cell_length_a       18.6495
_cell_length_b       18.6495
_cell_length_c       6.9416
_cell_angle_alpha    90
_cell_angle_beta     90
_cell_angle_gamma    120

_symmetry_space_group_name_H-M    "P 1"
_symmetry_int_tables_number       1

loop_
  _symmetry_equiv_pos_as_xyz
  'x, y, z'

loop_
  _atom_site_label
  _atom_site_occupancy
  _atom_site_fract_x
  _atom_site_fract_y
  _atom_site_fract_z
  _atom_site_thermal_displace_type
  _atom_site_B_iso_or_equiv
  _atom_site_type_symbol
  Cu1      1.0000 0.95350  0.47675  0.34571  Biso   1.000  Cu
  Cu2      1.0000 0.52325  0.47675  0.34571  Biso   1.000  Cu
  Cu3      1.0000 0.52325  0.04650  0.34571  Biso   1.000  Cu
  Cu4      1.0000 0.47675  0.52325  0.65429  Biso   1.000  Cu
  Cu5      1.0000 0.04650  0.52325  0.65429  Biso   1.000  Cu
  Cu6      1.0000 0.47675  0.95350  0.65429  Biso   1.000  Cu
  C1       1.0000 0.90860  0.35980  0.65020  Biso   1.000  C
  C2       1.0000 0.64020  0.54880  0.65020  Biso   1.000  C
  C3       1.0000 0.45120  0.09140  0.65020  Biso   1.000  C
  C4       1.0000 0.54880  0.64020  0.34980  Biso   1.000  C
  C5       1.0000 0.09140  0.45120  0.34980  Biso   1.000  C
  C6       1.0000 0.35980  0.90860  0.34980  Biso   1.000  C
  C7       1.0000 0.09140  0.64020  0.34980  Biso   1.000  C
  C8       1.0000 0.35980  0.45120  0.34980  Biso   1.000  C
  C9       1.0000 0.54880  0.90860  0.34980  Biso   1.000  C
  C10      1.0000 0.45120  0.35980  0.65020  Biso   1.000  C
  C11      1.0000 0.90860  0.54880  0.65020  Biso   1.000  C
  C12      1.0000 0.64020  0.09140  0.65020  Biso   1.000  C
  O1       1.0000 0.89170  0.37160  0.48250  Biso   1.000  O
  O2       1.0000 0.62840  0.52010  0.48250  Biso   1.000  O
  O3       1.0000 0.47990  0.10830  0.48250  Biso   1.000  O
  O4       1.0000 0.52010  0.62840  0.51750  Biso   1.000  O
  O5       1.0000 0.10830  0.47990  0.51750  Biso   1.000  O
  O6       1.0000 0.37160  0.89170  0.51750  Biso   1.000  O
  O7       1.0000 0.10830  0.62840  0.51750  Biso   1.000  O
  O8       1.0000 0.37160  0.47990  0.51750  Biso   1.000  O
  O9       1.0000 0.52010  0.89170  0.51750  Biso   1.000  O
  O10      1.0000 0.47990  0.37160  0.48250  Biso   1.000  O
  O11      1.0000 0.89170  0.52010  0.48250  Biso   1.000  O
  O12      1.0000 0.62840  0.10830  0.48250  Biso   1.000  O
  C13      1.0000 0.85200  0.27690  0.74070  Biso   1.000  C
  C14      1.0000 0.72310  0.57510  0.74070  Biso   1.000  C
  C15      1.0000 0.42490  0.14800  0.74070  Biso   1.000  C
  C16      1.0000 0.57510  0.72310  0.25930  Biso   1.000  C
  C17      1.0000 0.14800  0.42490  0.25930  Biso   1.000  C
  C18      1.0000 0.27690  0.85200  0.25930  Biso   1.000  C
  C19      1.0000 0.14800  0.72310  0.25930  Biso   1.000  C
  C20      1.0000 0.27690  0.42490  0.25930  Biso   1.000  C
  C21      1.0000 0.57510  0.85200  0.25930  Biso   1.000  C
  C22      1.0000 0.42490  0.27690  0.74070  Biso   1.000  C
  C23      1.0000 0.85200  0.57510  0.74070  Biso   1.000  C
  C24      1.0000 0.72310  0.14800  0.74070  Biso   1.000  C
  C25      1.0000 0.87200  0.25700  0.91780  Biso   1.000  C
  C26      1.0000 0.74300  0.61500  0.91780  Biso   1.000  C
  C27      1.0000 0.38500  0.12800  0.91780  Biso   1.000  C
  C28      1.0000 0.61500  0.74300  0.08220  Biso   1.000  C
  C29      1.0000 0.12800  0.38500  0.08220  Biso   1.000  C
  C30      1.0000 0.25700  0.87200  0.08220  Biso   1.000  C
  C31      1.0000 0.12800  0.74300  0.08220  Biso   1.000  C
  C32      1.0000 0.25700  0.38500  0.08220  Biso   1.000  C
  C33      1.0000 0.61500  0.87200  0.08220  Biso   1.000  C
  C34      1.0000 0.38500  0.25700  0.91780  Biso   1.000  C
  C35      1.0000 0.87200  0.61500  0.91780  Biso   1.000  C
  C36      1.0000 0.74300  0.12800  0.91780  Biso   1.000  C
  H1       1.0000 0.92150  0.29360  0.97850  Biso   1.000  H
  H2       1.0000 0.70640  0.62790  0.97850  Biso   1.000  H
  H3       1.0000 0.37210  0.07850  0.97850  Biso   1.000  H
  H4       1.0000 0.62790  0.70640  0.02150  Biso   1.000  H
  H5       1.0000 0.07850  0.37210  0.02150  Biso   1.000  H
  H6       1.0000 0.29360  0.92150  0.02150  Biso   1.000  H
  H7       1.0000 0.07850  0.70640  0.02150  Biso   1.000  H
  H8       1.0000 0.29360  0.37210  0.02150  Biso   1.000  H
  H9       1.0000 0.62790  0.92150  0.02150  Biso   1.000  H
  H10      1.0000 0.37210  0.29360  0.97850  Biso   1.000  H
  H11      1.0000 0.92150  0.62790  0.97850  Biso   1.000  H
  H12      1.0000 0.70640  0.07850  0.97850  Biso   1.000  H
  O13      1.0000 0.96870  0.41060  0.74760  Biso   1.000  O
  O14      1.0000 0.58940  0.55810  0.74760  Biso   1.000  O
  O15      1.0000 0.44190  0.03130  0.74760  Biso   1.000  O
  O16      1.0000 0.55810  0.58940  0.25240  Biso   1.000  O
  O17      1.0000 0.03130  0.44190  0.25240  Biso   1.000  O
  O18      1.0000 0.41060  0.96870  0.25240  Biso   1.000  O
  O19      1.0000 0.03130  0.58940  0.25240  Biso   1.000  O
  O20      1.0000 0.41060  0.44190  0.25240  Biso   1.000  O
  O21      1.0000 0.55810  0.96870  0.25240  Biso   1.000  O
  O22      1.0000 0.44190  0.41060  0.74760  Biso   1.000  O
  O23      1.0000 0.96870  0.55810  0.74760  Biso   1.000  O
  O24      1.0000 0.58940  0.03130  0.74760  Biso   1.000  O
  O25      1.0000 0.87860  0.43930  0.08930  Biso   1.000  O
  O26      1.0000 0.56070  0.43930  0.08930  Biso   1.000  O
  O27      1.0000 0.56070  0.12140  0.08930  Biso   1.000  O
  O28      1.0000 0.43930  0.56070  0.91070  Biso   1.000  O
  O29      1.0000 0.12140  0.56070  0.91070  Biso   1.000  O
  O30      1.0000 0.43930  0.87860  0.91070  Biso   1.000  O
  H13      1.0000 0.89900  0.47850  0.00400  Biso   1.000  H
  H14      1.0000 0.52150  0.42050  0.00400  Biso   1.000  H
  H15      1.0000 0.57950  0.10100  0.00400  Biso   1.000  H
  H16      1.0000 0.42050  0.52150  0.99600  Biso   1.000  H
  H17      1.0000 0.10100  0.57950  0.99600  Biso   1.000  H
  H18      1.0000 0.47850  0.89900  0.99600  Biso   1.000  H
  H19      1.0000 0.10100  0.52150  0.99600  Biso   1.000  H
  H20      1.0000 0.47850  0.57950  0.99600  Biso   1.000  H
  H21      1.0000 0.42050  0.89900  0.99600  Biso   1.000  H
  H22      1.0000 0.57950  0.47850  0.00400  Biso   1.000  H
  H23      1.0000 0.89900  0.42050  0.00400  Biso   1.000  H
  H24      1.0000 0.52150  0.10100  0.00400  Biso   1.000  H
  O31      1.0000 0.83850  0.16150  0.17680  Biso   1.000  O
  O32      1.0000 0.83850  0.67700  0.17680  Biso   1.000  O
  O33      1.0000 0.32300  0.16150  0.17680  Biso   1.000  O
  O34      1.0000 0.67700  0.83850  0.82320  Biso   1.000  O
  O35      1.0000 0.16150  0.32300  0.82320  Biso   1.000  O
  O36      1.0000 0.16150  0.83850  0.82320  Biso   1.000  O
  C37      1.0000 0.77730  0.22270  0.65010  Biso   1.000  C
  C38      1.0000 0.77730  0.55460  0.65010  Biso   1.000  C
  C39      1.0000 0.44540  0.22270  0.65010  Biso   1.000  C
  C40      1.0000 0.55460  0.77730  0.34990  Biso   1.000  C
  C41      1.0000 0.22270  0.44540  0.34990  Biso   1.000  C
  C42      1.0000 0.22270  0.77730  0.34990  Biso   1.000  C
  H25      1.0000 0.76390  0.23610  0.53150  Biso   1.000  H
  H26      1.0000 0.76390  0.52780  0.53150  Biso   1.000  H
  H27      1.0000 0.47220  0.23610  0.53150  Biso   1.000  H
  H28      1.0000 0.52780  0.76390  0.46850  Biso   1.000  H
  H29      1.0000 0.23610  0.47220  0.46850  Biso   1.000  H
  H30      1.0000 0.23610  0.76390  0.46850  Biso   1.000  H
  C43      1.0000 0.81770  0.18230  0.00270  Biso   1.000  C
  C44      1.0000 0.81770  0.63540  0.00270  Biso   1.000  C
  C45      1.0000 0.36460  0.18230  0.00270  Biso   1.000  C
  C46      1.0000 0.63540  0.81770  0.99730  Biso   1.000  C
  C47      1.0000 0.18230  0.36460  0.99730  Biso   1.000  C
  C48      1.0000 0.18230  0.81770  0.99730  Biso   1.000  C
  C49      1.0000 0.79850  0.08950  0.26100  Biso   1.000  C
  C50      1.0000 0.91050  0.70900  0.26100  Biso   1.000  C
  C51      1.0000 0.29100  0.20150  0.26100  Biso   1.000  C
  C52      1.0000 0.70900  0.91050  0.73900  Biso   1.000  C
  C53      1.0000 0.20150  0.29100  0.73900  Biso   1.000  C
  C54      1.0000 0.08950  0.79850  0.73900  Biso   1.000  C
  C55      1.0000 0.20150  0.91050  0.73900  Biso   1.000  C
  C56      1.0000 0.08950  0.29100  0.73900  Biso   1.000  C
  C57      1.0000 0.70900  0.79850  0.73900  Biso   1.000  C
  C58      1.0000 0.29100  0.08950  0.26100  Biso   1.000  C
  C59      1.0000 0.79850  0.70900  0.26100  Biso   1.000  C
  C60      1.0000 0.91050  0.20150  0.26100  Biso   1.000  C
  H31      1.0000 0.74640  0.04810  0.22160  Biso   1.000  H
  H32      1.0000 0.95190  0.69830  0.22160  Biso   1.000  H
  H33      1.0000 0.30170  0.25360  0.22160  Biso   1.000  H
  H34      1.0000 0.69830  0.95190  0.77840  Biso   1.000  H
  H35      1.0000 0.25360  0.30170  0.77840  Biso   1.000  H
  H36      1.0000 0.04810  0.74640  0.77840  Biso   1.000  H
  H37      1.0000 0.25360  0.95190  0.77840  Biso   1.000  H
  H38      1.0000 0.04810  0.30170  0.77840  Biso   1.000  H
  H39      1.0000 0.69830  0.74640  0.77840  Biso   1.000  H
  H40      1.0000 0.30170  0.04810  0.22160  Biso   1.000  H
  H41      1.0000 0.74640  0.69830  0.22160  Biso   1.000  H
  H42      1.0000 0.95190  0.25360  0.22160  Biso   1.000  H
  C61      1.0000 0.76600  0.98100  0.43600  Biso   1.000  C
  C62      1.0000 0.01900  0.78500  0.43600  Biso   1.000  C
  C63      1.0000 0.21500  0.23400  0.43600  Biso   1.000  C
  C64      1.0000 0.78500  0.01900  0.56400  Biso   1.000  C
  C65      1.0000 0.23400  0.21500  0.56400  Biso   1.000  C
  C66      1.0000 0.98100  0.76600  0.56400  Biso   1.000  C
  C67      1.0000 0.23400  0.01900  0.56400  Biso   1.000  C
  C68      1.0000 0.98100  0.21500  0.56400  Biso   1.000  C
  C69      1.0000 0.78500  0.76600  0.56400  Biso   1.000  C
  C70      1.0000 0.21500  0.98100  0.43600  Biso   1.000  C
  C71      1.0000 0.76600  0.78500  0.43600  Biso   1.000  C
  C72      1.0000 0.01900  0.23400  0.43600  Biso   1.000  C
  C73      1.0000 0.84200  0.08000  0.41800  Biso   1.000  C
  C74      1.0000 0.92000  0.76200  0.41800  Biso   1.000  C
  C75      1.0000 0.23800  0.15800  0.41800  Biso   1.000  C
  C76      1.0000 0.76200  0.92000  0.58200  Biso   1.000  C
  C77      1.0000 0.15800  0.23800  0.58200  Biso   1.000  C
  C78      1.0000 0.08000  0.84200  0.58200  Biso   1.000  C
  C79      1.0000 0.15800  0.92000  0.58200  Biso   1.000  C
  C80      1.0000 0.08000  0.23800  0.58200  Biso   1.000  C
  C81      1.0000 0.76200  0.84200  0.58200  Biso   1.000  C
  C82      1.0000 0.23800  0.08000  0.41800  Biso   1.000  C
  C83      1.0000 0.84200  0.76200  0.41800  Biso   1.000  C
  C84      1.0000 0.92000  0.15800  0.41800  Biso   1.000  C
  O37      1.0000 0.72320  0.27680  0.17000  Biso   1.000  O
  O38      1.0000 0.72320  0.44640  0.17000  Biso   1.000  O
  O39      1.0000 0.55360  0.27680  0.17000  Biso   1.000  O
  O40      1.0000 0.44640  0.72320  0.83000  Biso   1.000  O
  O41      1.0000 0.27680  0.55360  0.83000  Biso   1.000  O
  O42      1.0000 0.27680  0.72320  0.83000  Biso   1.000  O
  H43      1.0000 0.82840  0.42770  0.11560  Biso   1.000  H
  H44      1.0000 0.57230  0.40070  0.11560  Biso   1.000  H
  H45      1.0000 0.59930  0.17160  0.11560  Biso   1.000  H
  H46      1.0000 0.40070  0.57230  0.88440  Biso   1.000  H
  H47      1.0000 0.17160  0.59930  0.88440  Biso   1.000  H
  H48      1.0000 0.42770  0.82840  0.88440  Biso   1.000  H
  H49      1.0000 0.17160  0.57230  0.88440  Biso   1.000  H
  H50      1.0000 0.42770  0.59930  0.88440  Biso   1.000  H
  H51      1.0000 0.40070  0.82840  0.88440  Biso   1.000  H
  H52      1.0000 0.59930  0.42770  0.11560  Biso   1.000  H
  H53      1.0000 0.82840  0.40070  0.11560  Biso   1.000  H
  H54      1.0000 0.57230  0.17160  0.11560  Biso   1.000  H
