data_image0
_cell_length_a       12.894
_cell_length_b       13.64
_cell_length_c       7.799
_cell_angle_alpha    90
_cell_angle_beta     90
_cell_angle_gamma    90

_symmetry_space_group_name_H-M    "P 1"
_symmetry_int_tables_number       1

loop_
  _symmetry_equiv_pos_as_xyz
  'x, y, z'

loop_
  _atom_site_label
  _atom_site_occupancy
  _atom_site_fract_x
  _atom_site_fract_y
  _atom_site_fract_z
  _atom_site_thermal_displace_type
  _atom_site_B_iso_or_equiv
  _atom_site_type_symbol
  Cu1      1.0000 0.39960  0.44720  0.35680  Biso   1.000  Cu
  Cu2      1.0000 0.60040  0.55280  0.85680  Biso   1.000  Cu
  Cu3      1.0000 0.10040  0.94720  0.85680  Biso   1.000  Cu
  Cu4      1.0000 0.89960  0.05280  0.35680  Biso   1.000  Cu
  N1       1.0000 0.32870  0.38630  0.55640  Biso   1.000  N
  N2       1.0000 0.67130  0.61370  0.05640  Biso   1.000  N
  N3       1.0000 0.17130  0.88630  0.05640  Biso   1.000  N
  N4       1.0000 0.82870  0.11370  0.55640  Biso   1.000  N
  N5       1.0000 0.25380  0.45890  0.27230  Biso   1.000  N
  N6       1.0000 0.74620  0.54110  0.77230  Biso   1.000  N
  N7       1.0000 0.24620  0.95890  0.77230  Biso   1.000  N
  N8       1.0000 0.75380  0.04110  0.27230  Biso   1.000  N
  C1       1.0000 0.18820  0.42440  0.37600  Biso   1.000  C
  C2       1.0000 0.81180  0.57560  0.87600  Biso   1.000  C
  C3       1.0000 0.31180  0.92440  0.87600  Biso   1.000  C
  C4       1.0000 0.68820  0.07560  0.37600  Biso   1.000  C
  C5       1.0000 0.22760  0.38280  0.52770  Biso   1.000  C
  C6       1.0000 0.77240  0.61720  0.02770  Biso   1.000  C
  C7       1.0000 0.27240  0.88280  0.02770  Biso   1.000  C
  C8       1.0000 0.72760  0.11720  0.52770  Biso   1.000  C
  C9       1.0000 0.34490  0.34960  0.71040  Biso   1.000  C
  C10      1.0000 0.65510  0.65040  0.21040  Biso   1.000  C
  C11      1.0000 0.15510  0.84960  0.21040  Biso   1.000  C
  C12      1.0000 0.84490  0.15040  0.71040  Biso   1.000  C
  C13      1.0000 0.30230  0.58720  0.06910  Biso   1.000  C
  C14      1.0000 0.69770  0.41280  0.56910  Biso   1.000  C
  C15      1.0000 0.19770  0.08720  0.56910  Biso   1.000  C
  C16      1.0000 0.80230  0.91280  0.06910  Biso   1.000  C
  C17      1.0000 0.41250  0.55150  0.04190  Biso   1.000  C
  C18      1.0000 0.58750  0.44850  0.54190  Biso   1.000  C
  C19      1.0000 0.08750  0.05150  0.54190  Biso   1.000  C
  C20      1.0000 0.91250  0.94850  0.04190  Biso   1.000  C
  N9       1.0000 0.18010  0.34550  0.66180  Biso   1.000  N
  N10      1.0000 0.81990  0.65450  0.16180  Biso   1.000  N
  N11      1.0000 0.31990  0.84550  0.16180  Biso   1.000  N
  N12      1.0000 0.68010  0.15450  0.66180  Biso   1.000  N
  C21      1.0000 0.22630  0.50330  0.11460  Biso   1.000  C
  C22      1.0000 0.77370  0.49670  0.61460  Biso   1.000  C
  C23      1.0000 0.27370  0.00330  0.61460  Biso   1.000  C
  C24      1.0000 0.72630  0.99670  0.11460  Biso   1.000  C
  C25      1.0000 0.06860  0.32690  0.68000  Biso   1.000  C
  C26      1.0000 0.93140  0.67310  0.18000  Biso   1.000  C
  C27      1.0000 0.43140  0.82690  0.18000  Biso   1.000  C
  C28      1.0000 0.56860  0.17310  0.68000  Biso   1.000  C
  C29      1.0000 0.25330  0.32060  0.77800  Biso   1.000  C
  C30      1.0000 0.74670  0.67940  0.27800  Biso   1.000  C
  C31      1.0000 0.24670  0.82060  0.27800  Biso   1.000  C
  C32      1.0000 0.75330  0.17940  0.77800  Biso   1.000  C
  O1       1.0000 0.45310  0.48980  0.14040  Biso   1.000  O
  O2       1.0000 0.54690  0.51020  0.64040  Biso   1.000  O
  O3       1.0000 0.04690  0.98980  0.64040  Biso   1.000  O
  O4       1.0000 0.95310  0.01020  0.14040  Biso   1.000  O
  O5       1.0000 0.45860  0.58880  0.91420  Biso   1.000  O
  O6       1.0000 0.54140  0.41120  0.41420  Biso   1.000  O
  O7       1.0000 0.04140  0.08880  0.41420  Biso   1.000  O
  O8       1.0000 0.95860  0.91120  0.91420  Biso   1.000  O
  O9       1.0000 0.38760  0.61030  0.46890  Biso   1.000  O
  O10      1.0000 0.61240  0.38970  0.96890  Biso   1.000  O
  O11      1.0000 0.11240  0.11030  0.96890  Biso   1.000  O
  O12      1.0000 0.88760  0.88970  0.46890  Biso   1.000  O
  P1       1.0000 0.09830  0.66170  0.65850  Biso   1.000  P
  P2       1.0000 0.90170  0.33830  0.15850  Biso   1.000  P
  P3       1.0000 0.40170  0.16170  0.15850  Biso   1.000  P
  P4       1.0000 0.59830  0.83830  0.65850  Biso   1.000  P
  F1       1.0000 0.12530  0.64490  0.46680  Biso   1.000  F
  F2       1.0000 0.87470  0.35510  0.96680  Biso   1.000  F
  F3       1.0000 0.37470  0.14490  0.96680  Biso   1.000  F
  F4       1.0000 0.62530  0.85510  0.46680  Biso   1.000  F
  F5       1.0000 0.00500  0.60600  0.60800  Biso   1.000  F
  F6       1.0000 0.99500  0.39400  0.10800  Biso   1.000  F
  F7       1.0000 0.49500  0.10600  0.10800  Biso   1.000  F
  F8       1.0000 0.50500  0.89400  0.60800  Biso   1.000  F
  F9       1.0000 0.98040  0.69400  0.63800  Biso   1.000  F
  F10      1.0000 0.01960  0.30600  0.13800  Biso   1.000  F
  F11      1.0000 0.51960  0.19400  0.13800  Biso   1.000  F
  F12      1.0000 0.48040  0.80600  0.63800  Biso   1.000  F
  F13      1.0000 0.07300  0.63500  0.84400  Biso   1.000  F
  F14      1.0000 0.92700  0.36500  0.34400  Biso   1.000  F
  F15      1.0000 0.42700  0.13500  0.34400  Biso   1.000  F
  F16      1.0000 0.57300  0.86500  0.84400  Biso   1.000  F
  F17      1.0000 0.08200  0.69200  0.83800  Biso   1.000  F
  F18      1.0000 0.91800  0.30800  0.33800  Biso   1.000  F
  F19      1.0000 0.41800  0.19200  0.33800  Biso   1.000  F
  F20      1.0000 0.58200  0.80800  0.83800  Biso   1.000  F
  F21      1.0000 0.08250  0.76490  0.59800  Biso   1.000  F
  F22      1.0000 0.91750  0.23510  0.09800  Biso   1.000  F
  F23      1.0000 0.41750  0.26490  0.09800  Biso   1.000  F
  F24      1.0000 0.58250  0.73510  0.59800  Biso   1.000  F
  F25      1.0000 0.17100  0.57430  0.69900  Biso   1.000  F
  F26      1.0000 0.82900  0.42570  0.19900  Biso   1.000  F
  F27      1.0000 0.32900  0.07430  0.19900  Biso   1.000  F
  F28      1.0000 0.67100  0.92570  0.69900  Biso   1.000  F
  F29      1.0000 0.06700  0.55400  0.68000  Biso   1.000  F
  F30      1.0000 0.93300  0.44600  0.18000  Biso   1.000  F
  F31      1.0000 0.43300  0.05400  0.18000  Biso   1.000  F
  F32      1.0000 0.56700  0.94600  0.68000  Biso   1.000  F
  F33      1.0000 0.21170  0.66100  0.68000  Biso   1.000  F
  F34      1.0000 0.78830  0.33900  0.18000  Biso   1.000  F
  F35      1.0000 0.28830  0.16100  0.18000  Biso   1.000  F
  F36      1.0000 0.71170  0.83900  0.68000  Biso   1.000  F
  F37      1.0000 0.18700  0.73100  0.69500  Biso   1.000  F
  F38      1.0000 0.81300  0.26900  0.19500  Biso   1.000  F
  F39      1.0000 0.31300  0.23100  0.19500  Biso   1.000  F
  F40      1.0000 0.68700  0.76900  0.69500  Biso   1.000  F
  H1       1.0000 0.11520  0.42530  0.35150  Biso   1.000  H
  H2       1.0000 0.88480  0.57470  0.85150  Biso   1.000  H
  H3       1.0000 0.38480  0.92530  0.85150  Biso   1.000  H
  H4       1.0000 0.61520  0.07470  0.35150  Biso   1.000  H
  H5       1.0000 0.41130  0.34010  0.76340  Biso   1.000  H
  H6       1.0000 0.58870  0.65990  0.26340  Biso   1.000  H
  H7       1.0000 0.08870  0.84010  0.26340  Biso   1.000  H
  H8       1.0000 0.91130  0.15990  0.76340  Biso   1.000  H
  H9       1.0000 0.30260  0.63430  0.16060  Biso   1.000  H
  H10      1.0000 0.69740  0.36570  0.66060  Biso   1.000  H
  H11      1.0000 0.19740  0.13430  0.66060  Biso   1.000  H
  H12      1.0000 0.80260  0.86570  0.16060  Biso   1.000  H
  H13      1.0000 0.27840  0.61980  0.96740  Biso   1.000  H
  H14      1.0000 0.72160  0.38020  0.46740  Biso   1.000  H
  H15      1.0000 0.22160  0.11980  0.46740  Biso   1.000  H
  H16      1.0000 0.77840  0.88020  0.96740  Biso   1.000  H
  H17      1.0000 0.45140  0.57520  0.94540  Biso   1.000  H
  H18      1.0000 0.54860  0.42480  0.44540  Biso   1.000  H
  H19      1.0000 0.04860  0.07520  0.44540  Biso   1.000  H
  H20      1.0000 0.95140  0.92480  0.94540  Biso   1.000  H
  H21      1.0000 0.22860  0.45390  0.02700  Biso   1.000  H
  H22      1.0000 0.77140  0.54610  0.52700  Biso   1.000  H
  H23      1.0000 0.27140  0.95390  0.52700  Biso   1.000  H
  H24      1.0000 0.72860  0.04610  0.02700  Biso   1.000  H
  H25      1.0000 0.15690  0.52840  0.12050  Biso   1.000  H
  H26      1.0000 0.84310  0.47160  0.62050  Biso   1.000  H
  H27      1.0000 0.34310  0.02840  0.62050  Biso   1.000  H
  H28      1.0000 0.65690  0.97160  0.12050  Biso   1.000  H
  H29      1.0000 0.03150  0.34850  0.57980  Biso   1.000  H
  H30      1.0000 0.96850  0.65150  0.07980  Biso   1.000  H
  H31      1.0000 0.46850  0.84850  0.07980  Biso   1.000  H
  H32      1.0000 0.53150  0.15150  0.57980  Biso   1.000  H
  H33      1.0000 0.04310  0.36110  0.77870  Biso   1.000  H
  H34      1.0000 0.95690  0.63890  0.27870  Biso   1.000  H
  H35      1.0000 0.45690  0.86110  0.27870  Biso   1.000  H
  H36      1.0000 0.54310  0.13890  0.77870  Biso   1.000  H
  H37      1.0000 0.05850  0.25770  0.69460  Biso   1.000  H
  H38      1.0000 0.94150  0.74230  0.19460  Biso   1.000  H
  H39      1.0000 0.44150  0.75770  0.19460  Biso   1.000  H
  H40      1.0000 0.55850  0.24230  0.69460  Biso   1.000  H
  H41      1.0000 0.24010  0.29300  0.88910  Biso   1.000  H
  H42      1.0000 0.75990  0.70700  0.38910  Biso   1.000  H
  H43      1.0000 0.25990  0.79300  0.38910  Biso   1.000  H
  H44      1.0000 0.74010  0.20700  0.88910  Biso   1.000  H
  H45      1.0000 0.42340  0.60170  0.58460  Biso   1.000  H
  H46      1.0000 0.57660  0.39830  0.08460  Biso   1.000  H
  H47      1.0000 0.07660  0.10170  0.08460  Biso   1.000  H
  H48      1.0000 0.92340  0.89830  0.58460  Biso   1.000  H
  H49      1.0000 0.33290  0.63920  0.52320  Biso   1.000  H
  H50      1.0000 0.66710  0.36080  0.02320  Biso   1.000  H
  H51      1.0000 0.16710  0.13920  0.02320  Biso   1.000  H
  H52      1.0000 0.83290  0.86080  0.52320  Biso   1.000  H
