data_image0
_cell_length_a       18.5444
_cell_length_b       18.5444
_cell_length_c       6.7557
_cell_angle_alpha    90
_cell_angle_beta     90
_cell_angle_gamma    120

_symmetry_space_group_name_H-M    "P 1"
_symmetry_int_tables_number       1

loop_
  _symmetry_equiv_pos_as_xyz
  'x, y, z'

loop_
  _atom_site_label
  _atom_site_occupancy
  _atom_site_fract_x
  _atom_site_fract_y
  _atom_site_fract_z
  _atom_site_thermal_displace_type
  _atom_site_B_iso_or_equiv
  _atom_site_type_symbol
  Cu1      1.0000 0.52349  0.04697  0.15640  Biso   1.000  Cu
  Cu2      1.0000 0.95303  0.47652  0.15640  Biso   1.000  Cu
  Cu3      1.0000 0.52348  0.47651  0.15640  Biso   1.000  Cu
  Cu4      1.0000 0.47652  0.95303  0.84360  Biso   1.000  Cu
  Cu5      1.0000 0.47651  0.52348  0.84360  Biso   1.000  Cu
  Cu6      1.0000 0.04697  0.52349  0.84360  Biso   1.000  Cu
  O1       1.0000 0.62843  0.10850  0.01470  Biso   1.000  O
  O2       1.0000 0.89150  0.51993  0.01470  Biso   1.000  O
  O3       1.0000 0.48007  0.37157  0.01470  Biso   1.000  O
  O4       1.0000 0.51993  0.89150  0.98530  Biso   1.000  O
  O5       1.0000 0.37157  0.48007  0.98530  Biso   1.000  O
  O6       1.0000 0.10850  0.62843  0.98530  Biso   1.000  O
  O7       1.0000 0.37157  0.89150  0.98530  Biso   1.000  O
  O8       1.0000 0.10850  0.48007  0.98530  Biso   1.000  O
  O9       1.0000 0.51993  0.62843  0.98530  Biso   1.000  O
  O10      1.0000 0.48007  0.10850  0.01470  Biso   1.000  O
  O11      1.0000 0.62843  0.51993  0.01470  Biso   1.000  O
  O12      1.0000 0.89150  0.37157  0.01470  Biso   1.000  O
  O13      1.0000 0.56217  0.12430  0.41410  Biso   1.000  O
  O14      1.0000 0.87570  0.43787  0.41410  Biso   1.000  O
  O15      1.0000 0.56213  0.43783  0.41410  Biso   1.000  O
  O16      1.0000 0.43787  0.87570  0.58590  Biso   1.000  O
  O17      1.0000 0.43783  0.56213  0.58590  Biso   1.000  O
  O18      1.0000 0.12430  0.56217  0.58590  Biso   1.000  O
  O19      1.0000 0.58870  0.03030  0.74440  Biso   1.000  O
  O20      1.0000 0.96970  0.55840  0.74440  Biso   1.000  O
  O21      1.0000 0.44160  0.41130  0.74440  Biso   1.000  O
  O22      1.0000 0.55840  0.96970  0.25560  Biso   1.000  O
  O23      1.0000 0.41130  0.44160  0.25560  Biso   1.000  O
  O24      1.0000 0.03030  0.58870  0.25560  Biso   1.000  O
  O25      1.0000 0.41130  0.96970  0.25560  Biso   1.000  O
  O26      1.0000 0.03030  0.44160  0.25560  Biso   1.000  O
  O27      1.0000 0.55840  0.58870  0.25560  Biso   1.000  O
  O28      1.0000 0.44160  0.03030  0.74440  Biso   1.000  O
  O29      1.0000 0.58870  0.55840  0.74440  Biso   1.000  O
  O30      1.0000 0.96970  0.41130  0.74440  Biso   1.000  O
  C1       1.0000 0.64050  0.09120  0.84350  Biso   1.000  C
  C2       1.0000 0.90880  0.54930  0.84350  Biso   1.000  C
  C3       1.0000 0.45070  0.35950  0.84350  Biso   1.000  C
  C4       1.0000 0.54930  0.90880  0.15650  Biso   1.000  C
  C5       1.0000 0.35950  0.45070  0.15650  Biso   1.000  C
  C6       1.0000 0.09120  0.64050  0.15650  Biso   1.000  C
  C7       1.0000 0.35950  0.90880  0.15650  Biso   1.000  C
  C8       1.0000 0.09120  0.45070  0.15650  Biso   1.000  C
  C9       1.0000 0.54930  0.64050  0.15650  Biso   1.000  C
  C10      1.0000 0.45070  0.09120  0.84350  Biso   1.000  C
  C11      1.0000 0.64050  0.54930  0.84350  Biso   1.000  C
  C12      1.0000 0.90880  0.35950  0.84350  Biso   1.000  C
  H1       1.0000 0.60630  0.12850  0.46160  Biso   1.000  H
  H2       1.0000 0.87150  0.47780  0.46160  Biso   1.000  H
  H3       1.0000 0.52220  0.39370  0.46160  Biso   1.000  H
  H4       1.0000 0.47780  0.87150  0.53840  Biso   1.000  H
  H5       1.0000 0.39370  0.52220  0.53840  Biso   1.000  H
  H6       1.0000 0.12850  0.60630  0.53840  Biso   1.000  H
  H7       1.0000 0.39370  0.87150  0.53840  Biso   1.000  H
  H8       1.0000 0.12850  0.52220  0.53840  Biso   1.000  H
  H9       1.0000 0.47780  0.60630  0.53840  Biso   1.000  H
  H10      1.0000 0.52220  0.12850  0.46160  Biso   1.000  H
  H11      1.0000 0.60630  0.47780  0.46160  Biso   1.000  H
  H12      1.0000 0.87150  0.39370  0.46160  Biso   1.000  H
  C13      1.0000 0.72260  0.14800  0.74930  Biso   1.000  C
  C14      1.0000 0.85200  0.57460  0.74930  Biso   1.000  C
  C15      1.0000 0.42540  0.27740  0.74930  Biso   1.000  C
  C16      1.0000 0.57460  0.85200  0.25070  Biso   1.000  C
  C17      1.0000 0.27740  0.42540  0.25070  Biso   1.000  C
  C18      1.0000 0.14800  0.72260  0.25070  Biso   1.000  C
  C19      1.0000 0.27740  0.85200  0.25070  Biso   1.000  C
  C20      1.0000 0.14800  0.42540  0.25070  Biso   1.000  C
  C21      1.0000 0.57460  0.72260  0.25070  Biso   1.000  C
  C22      1.0000 0.42540  0.14800  0.74930  Biso   1.000  C
  C23      1.0000 0.72260  0.57460  0.74930  Biso   1.000  C
  C24      1.0000 0.85200  0.27740  0.74930  Biso   1.000  C
  C25      1.0000 0.74360  0.12680  0.56940  Biso   1.000  C
  C26      1.0000 0.87320  0.61680  0.56940  Biso   1.000  C
  C27      1.0000 0.38320  0.25640  0.56940  Biso   1.000  C
  C28      1.0000 0.61680  0.87320  0.43060  Biso   1.000  C
  C29      1.0000 0.25640  0.38320  0.43060  Biso   1.000  C
  C30      1.0000 0.12680  0.74360  0.43060  Biso   1.000  C
  C31      1.0000 0.25640  0.87320  0.43060  Biso   1.000  C
  C32      1.0000 0.12680  0.38320  0.43060  Biso   1.000  C
  C33      1.0000 0.61680  0.74360  0.43060  Biso   1.000  C
  C34      1.0000 0.38320  0.12680  0.56940  Biso   1.000  C
  C35      1.0000 0.74360  0.61680  0.56940  Biso   1.000  C
  C36      1.0000 0.87320  0.25640  0.56940  Biso   1.000  C
  C37      1.0000 0.77691  0.22309  0.84020  Biso   1.000  C
  C38      1.0000 0.77691  0.55382  0.84020  Biso   1.000  C
  C39      1.0000 0.44618  0.22309  0.84020  Biso   1.000  C
  C40      1.0000 0.55382  0.77691  0.15980  Biso   1.000  C
  C41      1.0000 0.22309  0.44618  0.15980  Biso   1.000  C
  C42      1.0000 0.22309  0.77691  0.15980  Biso   1.000  C
  H13      1.0000 0.70680  0.07670  0.50810  Biso   1.000  H
  H14      1.0000 0.92330  0.63010  0.50810  Biso   1.000  H
  H15      1.0000 0.36990  0.29320  0.50810  Biso   1.000  H
  H16      1.0000 0.63010  0.92330  0.49190  Biso   1.000  H
  H17      1.0000 0.29320  0.36990  0.49190  Biso   1.000  H
  H18      1.0000 0.07670  0.70680  0.49190  Biso   1.000  H
  H19      1.0000 0.29320  0.92330  0.49190  Biso   1.000  H
  H20      1.0000 0.07670  0.36990  0.49190  Biso   1.000  H
  H21      1.0000 0.63010  0.70680  0.49190  Biso   1.000  H
  H22      1.0000 0.36990  0.07670  0.50810  Biso   1.000  H
  H23      1.0000 0.70680  0.63010  0.50810  Biso   1.000  H
  H24      1.0000 0.92330  0.29320  0.50810  Biso   1.000  H
  C43      1.0000 0.81960  0.18040  0.48180  Biso   1.000  C
  C44      1.0000 0.81960  0.63920  0.48180  Biso   1.000  C
  C45      1.0000 0.36080  0.18040  0.48180  Biso   1.000  C
  C46      1.0000 0.63920  0.81960  0.51820  Biso   1.000  C
  C47      1.0000 0.18040  0.36080  0.51820  Biso   1.000  C
  C48      1.0000 0.18040  0.81960  0.51820  Biso   1.000  C
  H25      1.0000 0.76310  0.23690  0.96120  Biso   1.000  H
  H26      1.0000 0.76310  0.52620  0.96120  Biso   1.000  H
  H27      1.0000 0.47380  0.23690  0.96120  Biso   1.000  H
  H28      1.0000 0.52620  0.76310  0.03880  Biso   1.000  H
  H29      1.0000 0.23690  0.47380  0.03880  Biso   1.000  H
  H30      1.0000 0.23690  0.76310  0.03880  Biso   1.000  H
  O31      1.0000 0.84168  0.15832  0.30860  Biso   1.000  O
  O32      1.0000 0.84168  0.68336  0.30860  Biso   1.000  O
  O33      1.0000 0.31664  0.15832  0.30860  Biso   1.000  O
  O34      1.0000 0.68336  0.84168  0.69140  Biso   1.000  O
  O35      1.0000 0.15832  0.31664  0.69140  Biso   1.000  O
  O36      1.0000 0.15832  0.84168  0.69140  Biso   1.000  O
  C49      1.0000 0.91550  0.20550  0.21770  Biso   1.000  C
  C50      1.0000 0.79450  0.71000  0.21770  Biso   1.000  C
  C51      1.0000 0.29000  0.08450  0.21770  Biso   1.000  C
  C52      1.0000 0.71000  0.79450  0.78230  Biso   1.000  C
  C53      1.0000 0.08450  0.29000  0.78230  Biso   1.000  C
  C54      1.0000 0.20550  0.91550  0.78230  Biso   1.000  C
  C55      1.0000 0.08450  0.79450  0.78230  Biso   1.000  C
  C56      1.0000 0.20550  0.29000  0.78230  Biso   1.000  C
  C57      1.0000 0.71000  0.91550  0.78230  Biso   1.000  C
  C58      1.0000 0.29000  0.20550  0.21770  Biso   1.000  C
  C59      1.0000 0.91550  0.71000  0.21770  Biso   1.000  C
  C60      1.0000 0.79450  0.08450  0.21770  Biso   1.000  C
  H31      1.0000 0.95680  0.25790  0.25930  Biso   1.000  H
  H32      1.0000 0.74210  0.69890  0.25930  Biso   1.000  H
  H33      1.0000 0.30110  0.04320  0.25930  Biso   1.000  H
  H34      1.0000 0.69890  0.74210  0.74070  Biso   1.000  H
  H35      1.0000 0.04320  0.30110  0.74070  Biso   1.000  H
  H36      1.0000 0.25790  0.95680  0.74070  Biso   1.000  H
  H37      1.0000 0.04320  0.74210  0.74070  Biso   1.000  H
  H38      1.0000 0.25790  0.30110  0.74070  Biso   1.000  H
  H39      1.0000 0.69890  0.95680  0.74070  Biso   1.000  H
  H40      1.0000 0.30110  0.25790  0.25930  Biso   1.000  H
  H41      1.0000 0.95680  0.69890  0.25930  Biso   1.000  H
  H42      1.0000 0.74210  0.04320  0.25930  Biso   1.000  H
  C61      1.0000 0.92030  0.16000  0.03780  Biso   1.000  C
  C62      1.0000 0.84000  0.76030  0.03780  Biso   1.000  C
  C63      1.0000 0.23970  0.07970  0.03780  Biso   1.000  C
  C64      1.0000 0.76030  0.84000  0.96220  Biso   1.000  C
  C65      1.0000 0.07970  0.23970  0.96220  Biso   1.000  C
  C66      1.0000 0.16000  0.92030  0.96220  Biso   1.000  C
  C67      1.0000 0.07970  0.84000  0.96220  Biso   1.000  C
  C68      1.0000 0.16000  0.23970  0.96220  Biso   1.000  C
  C69      1.0000 0.76030  0.92030  0.96220  Biso   1.000  C
  C70      1.0000 0.23970  0.16000  0.03780  Biso   1.000  C
  C71      1.0000 0.92030  0.76030  0.03780  Biso   1.000  C
  C72      1.0000 0.84000  0.07970  0.03780  Biso   1.000  C
  H43      1.0000 0.92620  0.19130  0.91810  Biso   1.000  H
  H44      1.0000 0.80870  0.73490  0.91810  Biso   1.000  H
  H45      1.0000 0.26510  0.07380  0.91810  Biso   1.000  H
  H46      1.0000 0.73490  0.80870  0.08190  Biso   1.000  H
  H47      1.0000 0.07380  0.26510  0.08190  Biso   1.000  H
  H48      1.0000 0.19130  0.92620  0.08190  Biso   1.000  H
  H49      1.0000 0.07380  0.80870  0.08190  Biso   1.000  H
  H50      1.0000 0.19130  0.26510  0.08190  Biso   1.000  H
  H51      1.0000 0.73490  0.92620  0.08190  Biso   1.000  H
  H52      1.0000 0.26510  0.19130  0.91810  Biso   1.000  H
  H53      1.0000 0.92620  0.73490  0.91810  Biso   1.000  H
  H54      1.0000 0.80870  0.07380  0.91810  Biso   1.000  H
  H55      1.0000 0.96710  0.15040  0.04760  Biso   1.000  H
  H56      1.0000 0.84960  0.81670  0.04760  Biso   1.000  H
  H57      1.0000 0.18330  0.03290  0.04760  Biso   1.000  H
  H58      1.0000 0.81670  0.84960  0.95240  Biso   1.000  H
  H59      1.0000 0.03290  0.18330  0.95240  Biso   1.000  H
  H60      1.0000 0.15040  0.96710  0.95240  Biso   1.000  H
  H61      1.0000 0.03290  0.84960  0.95240  Biso   1.000  H
  H62      1.0000 0.15040  0.18330  0.95240  Biso   1.000  H
  H63      1.0000 0.81670  0.96710  0.95240  Biso   1.000  H
  H64      1.0000 0.18330  0.15040  0.04760  Biso   1.000  H
  H65      1.0000 0.96710  0.81670  0.04760  Biso   1.000  H
  H66      1.0000 0.84960  0.03290  0.04760  Biso   1.000  H
  H67      1.0000 0.57210  0.16990  0.38280  Biso   1.000  H
  H68      1.0000 0.83010  0.40220  0.38280  Biso   1.000  H
  H69      1.0000 0.59780  0.42790  0.38280  Biso   1.000  H
  H70      1.0000 0.40220  0.83010  0.61720  Biso   1.000  H
  H71      1.0000 0.42790  0.59780  0.61720  Biso   1.000  H
  H72      1.0000 0.16990  0.57210  0.61720  Biso   1.000  H
  H73      1.0000 0.42790  0.83010  0.61720  Biso   1.000  H
  H74      1.0000 0.16990  0.59780  0.61720  Biso   1.000  H
  H75      1.0000 0.40220  0.57210  0.61720  Biso   1.000  H
  H76      1.0000 0.59780  0.16990  0.38280  Biso   1.000  H
  H77      1.0000 0.57210  0.40220  0.38280  Biso   1.000  H
  H78      1.0000 0.83010  0.42790  0.38280  Biso   1.000  H
