data_image0
_cell_length_a       24.68
_cell_length_b       7.601
_cell_length_c       14.137
_cell_angle_alpha    90
_cell_angle_beta     102.81
_cell_angle_gamma    90

_symmetry_space_group_name_H-M    "P 1"
_symmetry_int_tables_number       1

loop_
  _symmetry_equiv_pos_as_xyz
  'x, y, z'

loop_
  _atom_site_label
  _atom_site_occupancy
  _atom_site_fract_x
  _atom_site_fract_y
  _atom_site_fract_z
  _atom_site_thermal_displace_type
  _atom_site_B_iso_or_equiv
  _atom_site_type_symbol
  Cu1      1.0000 0.31120  0.09890  0.26860  Biso   1.000  Cu
  Cu2      1.0000 0.68880  0.09890  0.23140  Biso   1.000  Cu
  Cu3      1.0000 0.81120  0.59890  0.26860  Biso   1.000  Cu
  Cu4      1.0000 0.18880  0.59890  0.23140  Biso   1.000  Cu
  Cu5      1.0000 0.68880  0.90110  0.73140  Biso   1.000  Cu
  Cu6      1.0000 0.31120  0.90110  0.76860  Biso   1.000  Cu
  Cu7      1.0000 0.18880  0.40110  0.73140  Biso   1.000  Cu
  Cu8      1.0000 0.81120  0.40110  0.76860  Biso   1.000  Cu
  N1       1.0000 0.43190  0.74590  0.31530  Biso   1.000  N
  N2       1.0000 0.56810  0.74590  0.18470  Biso   1.000  N
  N3       1.0000 0.93190  0.24590  0.31530  Biso   1.000  N
  N4       1.0000 0.06810  0.24590  0.18470  Biso   1.000  N
  N5       1.0000 0.56810  0.25410  0.68470  Biso   1.000  N
  N6       1.0000 0.43190  0.25410  0.81530  Biso   1.000  N
  N7       1.0000 0.06810  0.75410  0.68470  Biso   1.000  N
  N8       1.0000 0.93190  0.75410  0.81530  Biso   1.000  N
  N9       1.0000 0.35390  0.88680  0.26380  Biso   1.000  N
  N10      1.0000 0.64610  0.88680  0.23620  Biso   1.000  N
  N11      1.0000 0.85390  0.38680  0.26380  Biso   1.000  N
  N12      1.0000 0.14610  0.38680  0.23620  Biso   1.000  N
  N13      1.0000 0.64610  0.11320  0.73620  Biso   1.000  N
  N14      1.0000 0.35390  0.11320  0.76380  Biso   1.000  N
  N15      1.0000 0.14610  0.61320  0.73620  Biso   1.000  N
  N16      1.0000 0.85390  0.61320  0.76380  Biso   1.000  N
  N17      1.0000 0.36850  0.13440  0.39060  Biso   1.000  N
  N18      1.0000 0.63150  0.13440  0.10940  Biso   1.000  N
  N19      1.0000 0.86850  0.63440  0.39060  Biso   1.000  N
  N20      1.0000 0.13150  0.63440  0.10940  Biso   1.000  N
  N21      1.0000 0.63150  0.86560  0.60940  Biso   1.000  N
  N22      1.0000 0.36850  0.86560  0.89060  Biso   1.000  N
  N23      1.0000 0.13150  0.36560  0.60940  Biso   1.000  N
  N24      1.0000 0.86850  0.36560  0.89060  Biso   1.000  N
  O1       1.0000 0.24720  0.55250  0.34540  Biso   1.000  O
  O2       1.0000 0.75280  0.55250  0.15460  Biso   1.000  O
  O3       1.0000 0.74720  0.05250  0.34540  Biso   1.000  O
  O4       1.0000 0.25280  0.05250  0.15460  Biso   1.000  O
  O5       1.0000 0.75280  0.44750  0.65460  Biso   1.000  O
  O6       1.0000 0.24720  0.44750  0.84540  Biso   1.000  O
  O7       1.0000 0.25280  0.94750  0.65460  Biso   1.000  O
  O8       1.0000 0.74720  0.94750  0.84540  Biso   1.000  O
  O9       1.0000 0.27740  0.32660  0.27610  Biso   1.000  O
  O10      1.0000 0.72260  0.32660  0.22390  Biso   1.000  O
  O11      1.0000 0.77740  0.82660  0.27610  Biso   1.000  O
  O12      1.0000 0.22260  0.82660  0.22390  Biso   1.000  O
  O13      1.0000 0.72260  0.67340  0.72390  Biso   1.000  O
  O14      1.0000 0.27740  0.67340  0.77610  Biso   1.000  O
  O15      1.0000 0.22260  0.17340  0.72390  Biso   1.000  O
  O16      1.0000 0.77740  0.17340  0.77610  Biso   1.000  O
  O17      1.0000 0.26380  0.96500  0.42120  Biso   1.000  O
  O18      1.0000 0.73620  0.96500  0.07880  Biso   1.000  O
  O19      1.0000 0.76380  0.46500  0.42120  Biso   1.000  O
  O20      1.0000 0.23620  0.46500  0.07880  Biso   1.000  O
  O21      1.0000 0.73620  0.03500  0.57880  Biso   1.000  O
  O22      1.0000 0.26380  0.03500  0.92120  Biso   1.000  O
  O23      1.0000 0.23620  0.53500  0.57880  Biso   1.000  O
  O24      1.0000 0.76380  0.53500  0.92120  Biso   1.000  O
  C1       1.0000 0.39870  0.64190  0.24760  Biso   1.000  C
  C2       1.0000 0.60130  0.64190  0.25240  Biso   1.000  C
  C3       1.0000 0.89870  0.14190  0.24760  Biso   1.000  C
  C4       1.0000 0.10130  0.14190  0.25240  Biso   1.000  C
  C5       1.0000 0.60130  0.35810  0.75240  Biso   1.000  C
  C6       1.0000 0.39870  0.35810  0.74760  Biso   1.000  C
  C7       1.0000 0.10130  0.85810  0.75240  Biso   1.000  C
  C8       1.0000 0.89870  0.85810  0.74760  Biso   1.000  C
  C9       1.0000 0.35070  0.72690  0.21750  Biso   1.000  C
  C10      1.0000 0.64930  0.72690  0.28250  Biso   1.000  C
  C11      1.0000 0.85070  0.22690  0.21750  Biso   1.000  C
  C12      1.0000 0.14930  0.22690  0.28250  Biso   1.000  C
  C13      1.0000 0.64930  0.27310  0.78250  Biso   1.000  C
  C14      1.0000 0.35070  0.27310  0.71750  Biso   1.000  C
  C15      1.0000 0.14930  0.77310  0.78250  Biso   1.000  C
  C16      1.0000 0.85070  0.77310  0.71750  Biso   1.000  C
  C17      1.0000 0.40290  0.89370  0.32210  Biso   1.000  C
  C18      1.0000 0.59710  0.89370  0.17790  Biso   1.000  C
  C19      1.0000 0.90290  0.39370  0.32210  Biso   1.000  C
  C20      1.0000 0.09710  0.39370  0.17790  Biso   1.000  C
  C21      1.0000 0.59710  0.10630  0.67790  Biso   1.000  C
  C22      1.0000 0.40290  0.10630  0.82210  Biso   1.000  C
  C23      1.0000 0.09710  0.60630  0.67790  Biso   1.000  C
  C24      1.0000 0.90290  0.60630  0.82210  Biso   1.000  C
  C25      1.0000 0.48650  0.70180  0.37180  Biso   1.000  C
  C26      1.0000 0.51350  0.70180  0.12820  Biso   1.000  C
  C27      1.0000 0.98650  0.20180  0.37180  Biso   1.000  C
  C28      1.0000 0.01350  0.20180  0.12820  Biso   1.000  C
  C29      1.0000 0.51350  0.29820  0.62820  Biso   1.000  C
  C30      1.0000 0.48650  0.29820  0.87180  Biso   1.000  C
  C31      1.0000 0.01350  0.79820  0.62820  Biso   1.000  C
  C32      1.0000 0.98650  0.79820  0.87180  Biso   1.000  C
  C33      1.0000 0.42100  0.04860  0.38360  Biso   1.000  C
  C34      1.0000 0.57900  0.04860  0.11640  Biso   1.000  C
  C35      1.0000 0.92100  0.54860  0.38360  Biso   1.000  C
  C36      1.0000 0.07900  0.54860  0.11640  Biso   1.000  C
  C37      1.0000 0.57900  0.95140  0.61640  Biso   1.000  C
  C38      1.0000 0.42100  0.95140  0.88360  Biso   1.000  C
  C39      1.0000 0.07900  0.45140  0.61640  Biso   1.000  C
  C40      1.0000 0.92100  0.45140  0.88360  Biso   1.000  C
  C41      1.0000 0.37640  0.31560  0.42900  Biso   1.000  C
  C42      1.0000 0.62360  0.31560  0.07100  Biso   1.000  C
  C43      1.0000 0.87640  0.81560  0.42900  Biso   1.000  C
  C44      1.0000 0.12360  0.81560  0.07100  Biso   1.000  C
  C45      1.0000 0.62360  0.68440  0.57100  Biso   1.000  C
  C46      1.0000 0.37640  0.68440  0.92900  Biso   1.000  C
  C47      1.0000 0.12360  0.18440  0.57100  Biso   1.000  C
  C48      1.0000 0.87640  0.18440  0.92900  Biso   1.000  C
  C49      1.0000 0.32250  0.39510  0.43950  Biso   1.000  C
  C50      1.0000 0.67750  0.39510  0.06050  Biso   1.000  C
  C51      1.0000 0.82250  0.89510  0.43950  Biso   1.000  C
  C52      1.0000 0.17750  0.89510  0.06050  Biso   1.000  C
  C53      1.0000 0.67750  0.60490  0.56050  Biso   1.000  C
  C54      1.0000 0.32250  0.60490  0.93950  Biso   1.000  C
  C55      1.0000 0.17750  0.10490  0.56050  Biso   1.000  C
  C56      1.0000 0.82250  0.10490  0.93950  Biso   1.000  C
  C57      1.0000 0.28010  0.42570  0.34760  Biso   1.000  C
  C58      1.0000 0.71990  0.42570  0.15240  Biso   1.000  C
  C59      1.0000 0.78010  0.92570  0.34760  Biso   1.000  C
  C60      1.0000 0.21990  0.92570  0.15240  Biso   1.000  C
  C61      1.0000 0.71990  0.57430  0.65240  Biso   1.000  C
  C62      1.0000 0.28010  0.57430  0.84760  Biso   1.000  C
  C63      1.0000 0.21990  0.07430  0.65240  Biso   1.000  C
  C64      1.0000 0.78010  0.07430  0.84760  Biso   1.000  C
  Cl1      1.0000 0.40770  0.79890  0.61010  Biso   1.000  Cl
  Cl2      1.0000 0.59230  0.79890  0.88990  Biso   1.000  Cl
  Cl3      1.0000 0.90770  0.29890  0.61010  Biso   1.000  Cl
  Cl4      1.0000 0.09230  0.29890  0.88990  Biso   1.000  Cl
  Cl5      1.0000 0.59230  0.20110  0.38990  Biso   1.000  Cl
  Cl6      1.0000 0.40770  0.20110  0.11010  Biso   1.000  Cl
  Cl7      1.0000 0.09230  0.70110  0.38990  Biso   1.000  Cl
  Cl8      1.0000 0.90770  0.70110  0.11010  Biso   1.000  Cl
  O25      1.0000 0.37400  0.75110  0.67200  Biso   1.000  O
  O26      1.0000 0.62600  0.75110  0.82800  Biso   1.000  O
  O27      1.0000 0.87400  0.25110  0.67200  Biso   1.000  O
  O28      1.0000 0.12600  0.25110  0.82800  Biso   1.000  O
  O29      1.0000 0.62600  0.24890  0.32800  Biso   1.000  O
  O30      1.0000 0.37400  0.24890  0.17200  Biso   1.000  O
  O31      1.0000 0.12600  0.74890  0.32800  Biso   1.000  O
  O32      1.0000 0.87400  0.74890  0.17200  Biso   1.000  O
  O33      1.0000 0.45750  0.74100  0.68530  Biso   1.000  O
  O34      1.0000 0.54250  0.74100  0.81470  Biso   1.000  O
  O35      1.0000 0.95750  0.24100  0.68530  Biso   1.000  O
  O36      1.0000 0.04250  0.24100  0.81470  Biso   1.000  O
  O37      1.0000 0.54250  0.25900  0.31470  Biso   1.000  O
  O38      1.0000 0.45750  0.25900  0.18530  Biso   1.000  O
  O39      1.0000 0.04250  0.75900  0.31470  Biso   1.000  O
  O40      1.0000 0.95750  0.75900  0.18530  Biso   1.000  O
  O41      1.0000 0.43690  0.66900  0.58710  Biso   1.000  O
  O42      1.0000 0.56310  0.66900  0.91290  Biso   1.000  O
  O43      1.0000 0.93690  0.16900  0.58710  Biso   1.000  O
  O44      1.0000 0.06310  0.16900  0.91290  Biso   1.000  O
  O45      1.0000 0.56310  0.33100  0.41290  Biso   1.000  O
  O46      1.0000 0.43690  0.33100  0.08710  Biso   1.000  O
  O47      1.0000 0.06310  0.83100  0.41290  Biso   1.000  O
  O48      1.0000 0.93690  0.83100  0.08710  Biso   1.000  O
  O49      1.0000 0.43610  0.94400  0.62300  Biso   1.000  O
  O50      1.0000 0.56390  0.94400  0.87700  Biso   1.000  O
  O51      1.0000 0.93610  0.44400  0.62300  Biso   1.000  O
  O52      1.0000 0.06390  0.44400  0.87700  Biso   1.000  O
  O53      1.0000 0.56390  0.05600  0.37700  Biso   1.000  O
  O54      1.0000 0.43610  0.05600  0.12300  Biso   1.000  O
  O55      1.0000 0.06390  0.55600  0.37700  Biso   1.000  O
  O56      1.0000 0.93610  0.55600  0.12300  Biso   1.000  O
  O57      1.0000 0.41860  0.98400  0.61340  Biso   1.000  O
  O58      1.0000 0.58140  0.98400  0.88660  Biso   1.000  O
  O59      1.0000 0.91860  0.48400  0.61340  Biso   1.000  O
  O60      1.0000 0.08140  0.48400  0.88660  Biso   1.000  O
  O61      1.0000 0.58140  0.01600  0.38660  Biso   1.000  O
  O62      1.0000 0.41860  0.01600  0.11340  Biso   1.000  O
  O63      1.0000 0.08140  0.51600  0.38660  Biso   1.000  O
  O64      1.0000 0.91860  0.51600  0.11340  Biso   1.000  O
  O65      1.0000 0.36170  0.83010  0.52410  Biso   1.000  O
  O66      1.0000 0.63830  0.83010  0.97590  Biso   1.000  O
  O67      1.0000 0.86170  0.33010  0.52410  Biso   1.000  O
  O68      1.0000 0.13830  0.33010  0.97590  Biso   1.000  O
  O69      1.0000 0.63830  0.16990  0.47590  Biso   1.000  O
  O70      1.0000 0.36170  0.16990  0.02410  Biso   1.000  O
  O71      1.0000 0.13830  0.66990  0.47590  Biso   1.000  O
  O72      1.0000 0.86170  0.66990  0.02410  Biso   1.000  O
  O73      1.0000 0.41420  0.70500  0.53270  Biso   1.000  O
  O74      1.0000 0.58580  0.70500  0.96730  Biso   1.000  O
  O75      1.0000 0.91420  0.20500  0.53270  Biso   1.000  O
  O76      1.0000 0.08580  0.20500  0.96730  Biso   1.000  O
  O77      1.0000 0.58580  0.29500  0.46730  Biso   1.000  O
  O78      1.0000 0.41420  0.29500  0.03270  Biso   1.000  O
  O79      1.0000 0.08580  0.79500  0.46730  Biso   1.000  O
  O80      1.0000 0.91420  0.79500  0.03270  Biso   1.000  O
  H1       1.0000 0.35400  0.07600  0.43600  Biso   1.000  H
  H2       1.0000 0.64600  0.07600  0.06400  Biso   1.000  H
  H3       1.0000 0.85400  0.57600  0.43600  Biso   1.000  H
  H4       1.0000 0.14600  0.57600  0.06400  Biso   1.000  H
  H5       1.0000 0.64600  0.92400  0.56400  Biso   1.000  H
  H6       1.0000 0.35400  0.92400  0.93600  Biso   1.000  H
  H7       1.0000 0.14600  0.42400  0.56400  Biso   1.000  H
  H8       1.0000 0.85400  0.42400  0.93600  Biso   1.000  H
  H9       1.0000 0.28590  0.90600  0.47200  Biso   1.000  H
  H10      1.0000 0.71410  0.90600  0.02800  Biso   1.000  H
  H11      1.0000 0.78590  0.40600  0.47200  Biso   1.000  H
  H12      1.0000 0.21410  0.40600  0.02800  Biso   1.000  H
  H13      1.0000 0.71410  0.09400  0.52800  Biso   1.000  H
  H14      1.0000 0.28590  0.09400  0.97200  Biso   1.000  H
  H15      1.0000 0.21410  0.59400  0.52800  Biso   1.000  H
  H16      1.0000 0.78590  0.59400  0.97200  Biso   1.000  H
  H17      1.0000 0.25120  0.83630  0.39030  Biso   1.000  H
  H18      1.0000 0.74880  0.83630  0.10970  Biso   1.000  H
  H19      1.0000 0.75120  0.33630  0.39030  Biso   1.000  H
  H20      1.0000 0.24880  0.33630  0.10970  Biso   1.000  H
  H21      1.0000 0.74880  0.16370  0.60970  Biso   1.000  H
  H22      1.0000 0.25120  0.16370  0.89030  Biso   1.000  H
  H23      1.0000 0.24880  0.66370  0.60970  Biso   1.000  H
  H24      1.0000 0.75120  0.66370  0.89030  Biso   1.000  H
  H25      1.0000 0.40780  0.52940  0.22450  Biso   1.000  H
  H26      1.0000 0.59220  0.52940  0.27550  Biso   1.000  H
  H27      1.0000 0.90780  0.02940  0.22450  Biso   1.000  H
  H28      1.0000 0.09220  0.02940  0.27550  Biso   1.000  H
  H29      1.0000 0.59220  0.47060  0.77550  Biso   1.000  H
  H30      1.0000 0.40780  0.47060  0.72450  Biso   1.000  H
  H31      1.0000 0.09220  0.97060  0.77550  Biso   1.000  H
  H32      1.0000 0.90780  0.97060  0.72450  Biso   1.000  H
  H33      1.0000 0.31890  0.68390  0.17140  Biso   1.000  H
  H34      1.0000 0.68110  0.68390  0.32860  Biso   1.000  H
  H35      1.0000 0.81890  0.18390  0.17140  Biso   1.000  H
  H36      1.0000 0.18110  0.18390  0.32860  Biso   1.000  H
  H37      1.0000 0.68110  0.31610  0.82860  Biso   1.000  H
  H38      1.0000 0.31890  0.31610  0.67140  Biso   1.000  H
  H39      1.0000 0.18110  0.81610  0.82860  Biso   1.000  H
  H40      1.0000 0.81890  0.81610  0.67140  Biso   1.000  H
  H41      1.0000 0.50120  0.79640  0.41480  Biso   1.000  H
  H42      1.0000 0.49880  0.79640  0.08520  Biso   1.000  H
  H43      1.0000 0.00120  0.29640  0.41480  Biso   1.000  H
  H44      1.0000 0.99880  0.29640  0.08520  Biso   1.000  H
  H45      1.0000 0.49880  0.20360  0.58520  Biso   1.000  H
  H46      1.0000 0.50120  0.20360  0.91480  Biso   1.000  H
  H47      1.0000 0.99880  0.70360  0.58520  Biso   1.000  H
  H48      1.0000 0.00120  0.70360  0.91480  Biso   1.000  H
  H49      1.0000 0.48380  0.59770  0.40900  Biso   1.000  H
  H50      1.0000 0.51620  0.59770  0.09100  Biso   1.000  H
  H51      1.0000 0.98380  0.09770  0.40900  Biso   1.000  H
  H52      1.0000 0.01620  0.09770  0.09100  Biso   1.000  H
  H53      1.0000 0.51620  0.40230  0.59100  Biso   1.000  H
  H54      1.0000 0.48380  0.40230  0.90900  Biso   1.000  H
  H55      1.0000 0.01620  0.90230  0.59100  Biso   1.000  H
  H56      1.0000 0.98380  0.90230  0.90900  Biso   1.000  H
  H57      1.0000 0.51060  0.67960  0.32840  Biso   1.000  H
  H58      1.0000 0.48940  0.67960  0.17160  Biso   1.000  H
  H59      1.0000 0.01060  0.17960  0.32840  Biso   1.000  H
  H60      1.0000 0.98940  0.17960  0.17160  Biso   1.000  H
  H61      1.0000 0.48940  0.32040  0.67160  Biso   1.000  H
  H62      1.0000 0.51060  0.32040  0.82840  Biso   1.000  H
  H63      1.0000 0.98940  0.82040  0.67160  Biso   1.000  H
  H64      1.0000 0.01060  0.82040  0.82840  Biso   1.000  H
  H65      1.0000 0.44270  0.01610  0.44620  Biso   1.000  H
  H66      1.0000 0.55730  0.01610  0.05380  Biso   1.000  H
  H67      1.0000 0.94270  0.51610  0.44620  Biso   1.000  H
  H68      1.0000 0.05730  0.51610  0.05380  Biso   1.000  H
  H69      1.0000 0.55730  0.98390  0.55380  Biso   1.000  H
  H70      1.0000 0.44270  0.98390  0.94620  Biso   1.000  H
  H71      1.0000 0.05730  0.48390  0.55380  Biso   1.000  H
  H72      1.0000 0.94270  0.48390  0.94620  Biso   1.000  H
  H73      1.0000 0.44240  0.12580  0.35230  Biso   1.000  H
  H74      1.0000 0.55760  0.12580  0.14770  Biso   1.000  H
  H75      1.0000 0.94240  0.62580  0.35230  Biso   1.000  H
  H76      1.0000 0.05760  0.62580  0.14770  Biso   1.000  H
  H77      1.0000 0.55760  0.87420  0.64770  Biso   1.000  H
  H78      1.0000 0.44240  0.87420  0.85230  Biso   1.000  H
  H79      1.0000 0.05760  0.37420  0.64770  Biso   1.000  H
  H80      1.0000 0.94240  0.37420  0.85230  Biso   1.000  H
  H81      1.0000 0.39110  0.38750  0.38470  Biso   1.000  H
  H82      1.0000 0.60890  0.38750  0.11530  Biso   1.000  H
  H83      1.0000 0.89110  0.88750  0.38470  Biso   1.000  H
  H84      1.0000 0.10890  0.88750  0.11530  Biso   1.000  H
  H85      1.0000 0.60890  0.61250  0.61530  Biso   1.000  H
  H86      1.0000 0.39110  0.61250  0.88470  Biso   1.000  H
  H87      1.0000 0.10890  0.11250  0.61530  Biso   1.000  H
  H88      1.0000 0.89110  0.11250  0.88470  Biso   1.000  H
  H89      1.0000 0.40250  0.31630  0.49050  Biso   1.000  H
  H90      1.0000 0.59750  0.31630  0.00950  Biso   1.000  H
  H91      1.0000 0.90250  0.81630  0.49050  Biso   1.000  H
  H92      1.0000 0.09750  0.81630  0.00950  Biso   1.000  H
  H93      1.0000 0.59750  0.68370  0.50950  Biso   1.000  H
  H94      1.0000 0.40250  0.68370  0.99050  Biso   1.000  H
  H95      1.0000 0.09750  0.18370  0.50950  Biso   1.000  H
  H96      1.0000 0.90250  0.18370  0.99050  Biso   1.000  H
  H97      1.0000 0.32920  0.50310  0.47530  Biso   1.000  H
  H98      1.0000 0.67080  0.50310  0.02470  Biso   1.000  H
  H99      1.0000 0.82920  0.00310  0.47530  Biso   1.000  H
  H100     1.0000 0.17080  0.00310  0.02470  Biso   1.000  H
  H101     1.0000 0.67080  0.49690  0.52470  Biso   1.000  H
  H102     1.0000 0.32920  0.49690  0.97530  Biso   1.000  H
  H103     1.0000 0.17080  0.99690  0.52470  Biso   1.000  H
  H104     1.0000 0.82920  0.99690  0.97530  Biso   1.000  H
  H105     1.0000 0.30650  0.31370  0.47740  Biso   1.000  H
  H106     1.0000 0.69350  0.31370  0.02260  Biso   1.000  H
  H107     1.0000 0.80650  0.81370  0.47740  Biso   1.000  H
  H108     1.0000 0.19350  0.81370  0.02260  Biso   1.000  H
  H109     1.0000 0.69350  0.68630  0.52260  Biso   1.000  H
  H110     1.0000 0.30650  0.68630  0.97740  Biso   1.000  H
  H111     1.0000 0.19350  0.18630  0.52260  Biso   1.000  H
  H112     1.0000 0.80650  0.18630  0.97740  Biso   1.000  H
