data_image0
_cell_length_a       6.837
_cell_length_b       10.779
_cell_length_c       10.945
_cell_angle_alpha    81.035
_cell_angle_beta     78.055
_cell_angle_gamma    76.636

_symmetry_space_group_name_H-M    "P 1"
_symmetry_int_tables_number       1

loop_
  _symmetry_equiv_pos_as_xyz
  'x, y, z'

loop_
  _atom_site_label
  _atom_site_occupancy
  _atom_site_fract_x
  _atom_site_fract_y
  _atom_site_fract_z
  _atom_site_thermal_displace_type
  _atom_site_B_iso_or_equiv
  _atom_site_type_symbol
  Cu1      1.0000 0.34643  0.25668  0.69043  Biso   1.000  Cu
  Cu2      1.0000 0.65357  0.74332  0.30957  Biso   1.000  Cu
  N1       1.0000 0.10480  0.36160  0.78380  Biso   1.000  N
  N2       1.0000 0.89520  0.63840  0.21620  Biso   1.000  N
  N3       1.0000 0.45170  0.41640  0.67430  Biso   1.000  N
  N4       1.0000 0.54830  0.58360  0.32570  Biso   1.000  N
  O1       1.0000 0.22990  0.10620  0.70210  Biso   1.000  O
  O2       1.0000 0.77010  0.89380  0.29790  Biso   1.000  O
  O3       1.0000 0.09280  0.22680  0.54670  Biso   1.000  O
  O4       1.0000 0.90720  0.77320  0.45330  Biso   1.000  O
  O5       1.0000 0.58800  0.16620  0.58670  Biso   1.000  O
  O6       1.0000 0.41200  0.83380  0.41330  Biso   1.000  O
  O7       1.0000 0.70840  0.08850  0.76110  Biso   1.000  O
  O8       1.0000 0.29160  0.91150  0.23890  Biso   1.000  O
  C1       1.0000 0.93480  0.32200  0.84470  Biso   1.000  C
  C2       1.0000 0.06520  0.67800  0.15530  Biso   1.000  C
  H1       1.0000 0.92690  0.23530  0.84380  Biso   1.000  H
  H2       1.0000 0.07310  0.76470  0.15620  Biso   1.000  H
  C3       1.0000 0.77200  0.40140  0.90800  Biso   1.000  C
  C4       1.0000 0.22800  0.59860  0.09200  Biso   1.000  C
  H3       1.0000 0.65280  0.37080  0.94940  Biso   1.000  H
  H4       1.0000 0.34720  0.62920  0.05060  Biso   1.000  H
  C5       1.0000 0.78520  0.52610  0.90990  Biso   1.000  C
  C6       1.0000 0.21480  0.47390  0.09010  Biso   1.000  C
  H5       1.0000 0.67520  0.58300  0.95390  Biso   1.000  H
  H6       1.0000 0.32480  0.41700  0.04610  Biso   1.000  H
  C7       1.0000 0.95860  0.56830  0.84800  Biso   1.000  C
  C8       1.0000 0.04140  0.43170  0.15200  Biso   1.000  C
  H7       1.0000 0.96870  0.65490  0.84700  Biso   1.000  H
  H8       1.0000 0.03130  0.34510  0.15300  Biso   1.000  H
  C9       1.0000 0.11630  0.48340  0.78790  Biso   1.000  C
  C10      1.0000 0.88370  0.51660  0.21210  Biso   1.000  C
  C11      1.0000 0.31610  0.51560  0.72290  Biso   1.000  C
  C12      1.0000 0.68390  0.48440  0.27710  Biso   1.000  C
  C13      1.0000 0.36530  0.63350  0.71290  Biso   1.000  C
  C14      1.0000 0.63470  0.36650  0.28710  Biso   1.000  C
  H9       1.0000 0.26920  0.70310  0.74840  Biso   1.000  H
  H10      1.0000 0.73080  0.29690  0.25160  Biso   1.000  H
  C15      1.0000 0.55530  0.64950  0.65080  Biso   1.000  C
  C16      1.0000 0.44470  0.35050  0.34920  Biso   1.000  C
  H11      1.0000 0.59030  0.73120  0.64160  Biso   1.000  H
  H12      1.0000 0.40970  0.26880  0.35840  Biso   1.000  H
  C17      1.0000 0.69400  0.54870  0.60230  Biso   1.000  C
  C18      1.0000 0.30600  0.45130  0.39770  Biso   1.000  C
  H13      1.0000 0.82720  0.55840  0.56110  Biso   1.000  H
  H14      1.0000 0.17280  0.44160  0.43890  Biso   1.000  H
  C19      1.0000 0.63640  0.43160  0.61460  Biso   1.000  C
  C20      1.0000 0.36360  0.56840  0.38540  Biso   1.000  C
  H15      1.0000 0.73050  0.36090  0.57970  Biso   1.000  H
  H16      1.0000 0.26950  0.63910  0.42030  Biso   1.000  H
  C21      1.0000 0.87250  0.99340  0.57870  Biso   1.000  C
  C22      1.0000 0.12750  0.00660  0.42130  Biso   1.000  C
  H17      1.0000 0.85540  0.90560  0.61860  Biso   1.000  H
  H18      1.0000 0.14460  0.09440  0.38140  Biso   1.000  H
  C23      1.0000 0.71020  0.09130  0.64610  Biso   1.000  C
  C24      1.0000 0.28980  0.90870  0.35390  Biso   1.000  C
  C25      1.0000 0.14280  0.12120  0.60760  Biso   1.000  C
  C26      1.0000 0.85720  0.87880  0.39240  Biso   1.000  C
  C27      1.0000 0.10440  0.00200  0.56420  Biso   1.000  C
  C28      1.0000 0.89560  0.99800  0.43580  Biso   1.000  C
  H19      1.0000 0.18710  0.92120  0.60130  Biso   1.000  H
  H20      1.0000 0.81290  0.07880  0.39870  Biso   1.000  H
  O9       1.0000 0.43650  0.19990  0.95150  Biso   1.000  O
  O10      1.0000 0.56350  0.80010  0.04850  Biso   1.000  O
  H21      1.0000 0.51800  0.14900  0.90300  Biso   1.000  H
  H22      1.0000 0.48200  0.85100  0.09700  Biso   1.000  H
  H23      1.0000 0.34400  0.15700  0.97700  Biso   1.000  H
  H24      1.0000 0.65600  0.84300  0.02300  Biso   1.000  H
  O11      1.0000 0.30700  0.87540  0.85980  Biso   1.000  O
  O12      1.0000 0.69300  0.12460  0.14020  Biso   1.000  O
  H25      1.0000 0.27700  0.94900  0.81700  Biso   1.000  H
  H26      1.0000 0.72300  0.05100  0.18300  Biso   1.000  H
  H27      1.0000 0.43100  0.86000  0.87100  Biso   1.000  H
  H28      1.0000 0.56900  0.14000  0.12900  Biso   1.000  H
  O13      1.0000 0.10020  0.12300  0.09660  Biso   1.000  O
  O14      1.0000 0.89980  0.87700  0.90340  Biso   1.000  O
  H29      1.0000 0.16000  0.06700  0.14700  Biso   1.000  H
  H30      1.0000 0.84000  0.93300  0.85300  Biso   1.000  H
  H31      1.0000 0.00600  0.09300  0.07800  Biso   1.000  H
  H32      1.0000 0.99400  0.90700  0.92200  Biso   1.000  H
