data_image0
_cell_length_a       20.262
_cell_length_b       9.53
_cell_length_c       11.444
_cell_angle_alpha    90
_cell_angle_beta     117.095
_cell_angle_gamma    90

_symmetry_space_group_name_H-M    "P 1"
_symmetry_int_tables_number       1

loop_
  _symmetry_equiv_pos_as_xyz
  'x, y, z'

loop_
  _atom_site_label
  _atom_site_occupancy
  _atom_site_fract_x
  _atom_site_fract_y
  _atom_site_fract_z
  _atom_site_thermal_displace_type
  _atom_site_B_iso_or_equiv
  _atom_site_type_symbol
  C1       1.0000 0.13362  0.82420  0.09470  Biso   1.000  C
  C2       1.0000 0.86638  0.82420  0.40530  Biso   1.000  C
  C3       1.0000 0.63362  0.32420  0.09470  Biso   1.000  C
  C4       1.0000 0.36638  0.32420  0.40530  Biso   1.000  C
  C5       1.0000 0.86638  0.17580  0.90530  Biso   1.000  C
  C6       1.0000 0.13362  0.17580  0.59470  Biso   1.000  C
  C7       1.0000 0.36638  0.67580  0.90530  Biso   1.000  C
  C8       1.0000 0.63362  0.67580  0.59470  Biso   1.000  C
  H1       1.0000 0.12360  0.81310  0.16570  Biso   1.000  H
  H2       1.0000 0.87640  0.81310  0.33430  Biso   1.000  H
  H3       1.0000 0.62360  0.31310  0.16570  Biso   1.000  H
  H4       1.0000 0.37640  0.31310  0.33430  Biso   1.000  H
  H5       1.0000 0.87640  0.18690  0.83430  Biso   1.000  H
  H6       1.0000 0.12360  0.18690  0.66570  Biso   1.000  H
  H7       1.0000 0.37640  0.68690  0.83430  Biso   1.000  H
  H8       1.0000 0.62360  0.68690  0.66570  Biso   1.000  H
  C9       1.0000 0.19834  0.76600  0.10160  Biso   1.000  C
  C10      1.0000 0.80166  0.76600  0.39840  Biso   1.000  C
  C11      1.0000 0.69834  0.26600  0.10160  Biso   1.000  C
  C12      1.0000 0.30166  0.26600  0.39840  Biso   1.000  C
  C13      1.0000 0.80166  0.23400  0.89840  Biso   1.000  C
  C14      1.0000 0.19834  0.23400  0.60160  Biso   1.000  C
  C15      1.0000 0.30166  0.73400  0.89840  Biso   1.000  C
  C16      1.0000 0.69834  0.73400  0.60160  Biso   1.000  C
  H9       1.0000 0.23070  0.71820  0.17690  Biso   1.000  H
  H10      1.0000 0.76930  0.71820  0.32310  Biso   1.000  H
  H11      1.0000 0.73070  0.21820  0.17690  Biso   1.000  H
  H12      1.0000 0.26930  0.21820  0.32310  Biso   1.000  H
  H13      1.0000 0.76930  0.28180  0.82310  Biso   1.000  H
  H14      1.0000 0.23070  0.28180  0.67690  Biso   1.000  H
  H15      1.0000 0.26930  0.78180  0.82310  Biso   1.000  H
  H16      1.0000 0.73070  0.78180  0.67690  Biso   1.000  H
  C17      1.0000 0.21491  0.77847  0.99749  Biso   1.000  C
  C18      1.0000 0.78509  0.77847  0.50251  Biso   1.000  C
  C19      1.0000 0.71491  0.27847  0.99749  Biso   1.000  C
  C20      1.0000 0.28509  0.27847  0.50251  Biso   1.000  C
  C21      1.0000 0.78509  0.22153  0.00251  Biso   1.000  C
  C22      1.0000 0.21491  0.22153  0.49749  Biso   1.000  C
  C23      1.0000 0.28509  0.72153  0.00251  Biso   1.000  C
  C24      1.0000 0.71491  0.72153  0.49749  Biso   1.000  C
  C25      1.0000 0.16344  0.85030  0.88710  Biso   1.000  C
  C26      1.0000 0.83656  0.85030  0.61290  Biso   1.000  C
  C27      1.0000 0.66344  0.35030  0.88710  Biso   1.000  C
  C28      1.0000 0.33656  0.35030  0.61290  Biso   1.000  C
  C29      1.0000 0.83656  0.14970  0.11290  Biso   1.000  C
  C30      1.0000 0.16344  0.14970  0.38710  Biso   1.000  C
  C31      1.0000 0.33656  0.64970  0.11290  Biso   1.000  C
  C32      1.0000 0.66344  0.64970  0.38710  Biso   1.000  C
  H17      1.0000 0.17100  0.85930  0.81320  Biso   1.000  H
  H18      1.0000 0.82900  0.85930  0.68680  Biso   1.000  H
  H19      1.0000 0.67100  0.35930  0.81320  Biso   1.000  H
  H20      1.0000 0.32900  0.35930  0.68680  Biso   1.000  H
  H21      1.0000 0.82900  0.14070  0.18680  Biso   1.000  H
  H22      1.0000 0.17100  0.14070  0.31320  Biso   1.000  H
  H23      1.0000 0.32900  0.64070  0.18680  Biso   1.000  H
  H24      1.0000 0.67100  0.64070  0.31320  Biso   1.000  H
  C33      1.0000 0.10126  0.90800  0.88870  Biso   1.000  C
  C34      1.0000 0.89874  0.90800  0.61130  Biso   1.000  C
  C35      1.0000 0.60126  0.40800  0.88870  Biso   1.000  C
  C36      1.0000 0.39874  0.40800  0.61130  Biso   1.000  C
  C37      1.0000 0.89874  0.09200  0.11130  Biso   1.000  C
  C38      1.0000 0.10126  0.09200  0.38870  Biso   1.000  C
  C39      1.0000 0.39874  0.59200  0.11130  Biso   1.000  C
  C40      1.0000 0.60126  0.59200  0.38870  Biso   1.000  C
  H25      1.0000 0.06860  0.95830  0.81550  Biso   1.000  H
  H26      1.0000 0.93140  0.95830  0.68450  Biso   1.000  H
  H27      1.0000 0.56860  0.45830  0.81550  Biso   1.000  H
  H28      1.0000 0.43140  0.45830  0.68450  Biso   1.000  H
  H29      1.0000 0.93140  0.04170  0.18450  Biso   1.000  H
  H30      1.0000 0.06860  0.04170  0.31550  Biso   1.000  H
  H31      1.0000 0.43140  0.54170  0.18450  Biso   1.000  H
  H32      1.0000 0.56860  0.54170  0.31550  Biso   1.000  H
  C41      1.0000 0.93276  0.77980  0.03887  Biso   1.000  C
  C42      1.0000 0.06724  0.77980  0.46113  Biso   1.000  C
  C43      1.0000 0.43276  0.27980  0.03887  Biso   1.000  C
  C44      1.0000 0.56724  0.27980  0.46113  Biso   1.000  C
  C45      1.0000 0.06724  0.22020  0.96113  Biso   1.000  C
  C46      1.0000 0.93276  0.22020  0.53887  Biso   1.000  C
  C47      1.0000 0.56724  0.72020  0.96113  Biso   1.000  C
  C48      1.0000 0.43276  0.72020  0.53887  Biso   1.000  C
  C49      1.0000 0.90927  0.67578  0.11182  Biso   1.000  C
  C50      1.0000 0.09073  0.67578  0.38818  Biso   1.000  C
  C51      1.0000 0.40927  0.17578  0.11182  Biso   1.000  C
  C52      1.0000 0.59073  0.17578  0.38818  Biso   1.000  C
  C53      1.0000 0.09073  0.32422  0.88818  Biso   1.000  C
  C54      1.0000 0.90927  0.32422  0.61182  Biso   1.000  C
  C55      1.0000 0.59073  0.82422  0.88818  Biso   1.000  C
  C56      1.0000 0.40927  0.82422  0.61182  Biso   1.000  C
  C57      1.0000 0.83343  0.65570  0.06670  Biso   1.000  C
  C58      1.0000 0.16657  0.65570  0.43330  Biso   1.000  C
  C59      1.0000 0.33343  0.15570  0.06670  Biso   1.000  C
  C60      1.0000 0.66657  0.15570  0.43330  Biso   1.000  C
  C61      1.0000 0.16657  0.34430  0.93330  Biso   1.000  C
  C62      1.0000 0.83343  0.34430  0.56670  Biso   1.000  C
  C63      1.0000 0.66657  0.84430  0.93330  Biso   1.000  C
  C64      1.0000 0.33343  0.84430  0.56670  Biso   1.000  C
  H33      1.0000 0.80040  0.69950  0.98950  Biso   1.000  H
  H34      1.0000 0.19960  0.69950  0.51050  Biso   1.000  H
  H35      1.0000 0.30040  0.19950  0.98950  Biso   1.000  H
  H36      1.0000 0.69960  0.19950  0.51050  Biso   1.000  H
  H37      1.0000 0.19960  0.30050  0.01050  Biso   1.000  H
  H38      1.0000 0.80040  0.30050  0.48950  Biso   1.000  H
  H39      1.0000 0.69960  0.80050  0.01050  Biso   1.000  H
  H40      1.0000 0.30040  0.80050  0.48950  Biso   1.000  H
  C65      1.0000 0.80596  0.57250  0.13340  Biso   1.000  C
  C66      1.0000 0.19404  0.57250  0.36660  Biso   1.000  C
  C67      1.0000 0.30596  0.07250  0.13340  Biso   1.000  C
  C68      1.0000 0.69404  0.07250  0.36660  Biso   1.000  C
  C69      1.0000 0.19404  0.42750  0.86660  Biso   1.000  C
  C70      1.0000 0.80596  0.42750  0.63340  Biso   1.000  C
  C71      1.0000 0.69404  0.92750  0.86660  Biso   1.000  C
  C72      1.0000 0.30596  0.92750  0.63340  Biso   1.000  C
  H41      1.0000 0.75510  0.56320  0.10300  Biso   1.000  H
  H42      1.0000 0.24490  0.56320  0.39700  Biso   1.000  H
  H43      1.0000 0.25510  0.06320  0.10300  Biso   1.000  H
  H44      1.0000 0.74490  0.06320  0.39700  Biso   1.000  H
  H45      1.0000 0.24490  0.43680  0.89700  Biso   1.000  H
  H46      1.0000 0.75510  0.43680  0.60300  Biso   1.000  H
  H47      1.0000 0.74490  0.93680  0.89700  Biso   1.000  H
  H48      1.0000 0.25510  0.93680  0.60300  Biso   1.000  H
  C73      1.0000 0.85472  0.50331  0.24540  Biso   1.000  C
  C74      1.0000 0.14528  0.50331  0.25460  Biso   1.000  C
  C75      1.0000 0.35472  0.00331  0.24540  Biso   1.000  C
  C76      1.0000 0.64528  0.00331  0.25460  Biso   1.000  C
  C77      1.0000 0.14528  0.49669  0.75460  Biso   1.000  C
  C78      1.0000 0.85472  0.49669  0.74540  Biso   1.000  C
  C79      1.0000 0.64528  0.99669  0.75460  Biso   1.000  C
  C80      1.0000 0.35472  0.99669  0.74540  Biso   1.000  C
  H49      1.0000 0.83680  0.44650  0.29070  Biso   1.000  H
  H50      1.0000 0.16320  0.44650  0.20930  Biso   1.000  H
  H51      1.0000 0.33680  0.94650  0.29070  Biso   1.000  H
  H52      1.0000 0.66320  0.94650  0.20930  Biso   1.000  H
  H53      1.0000 0.16320  0.55350  0.70930  Biso   1.000  H
  H54      1.0000 0.83680  0.55350  0.79070  Biso   1.000  H
  H55      1.0000 0.66320  0.05350  0.70930  Biso   1.000  H
  H56      1.0000 0.33680  0.05350  0.79070  Biso   1.000  H
  C81      1.0000 0.93030  0.51840  0.29040  Biso   1.000  C
  C82      1.0000 0.06970  0.51840  0.20960  Biso   1.000  C
  C83      1.0000 0.43030  0.01840  0.29040  Biso   1.000  C
  C84      1.0000 0.56970  0.01840  0.20960  Biso   1.000  C
  C85      1.0000 0.06970  0.48160  0.70960  Biso   1.000  C
  C86      1.0000 0.93030  0.48160  0.79040  Biso   1.000  C
  C87      1.0000 0.56970  0.98160  0.70960  Biso   1.000  C
  C88      1.0000 0.43030  0.98160  0.79040  Biso   1.000  C
  H57      1.0000 0.96280  0.46960  0.36490  Biso   1.000  H
  H58      1.0000 0.03720  0.46960  0.13510  Biso   1.000  H
  H59      1.0000 0.46280  0.96960  0.36490  Biso   1.000  H
  H60      1.0000 0.53720  0.96960  0.13510  Biso   1.000  H
  H61      1.0000 0.03720  0.53040  0.63510  Biso   1.000  H
  H62      1.0000 0.96280  0.53040  0.86490  Biso   1.000  H
  H63      1.0000 0.53720  0.03040  0.63510  Biso   1.000  H
  H64      1.0000 0.46280  0.03040  0.86490  Biso   1.000  H
  C89      1.0000 0.95885  0.60570  0.22599  Biso   1.000  C
  C90      1.0000 0.04115  0.60570  0.27401  Biso   1.000  C
  C91      1.0000 0.45885  0.10570  0.22599  Biso   1.000  C
  C92      1.0000 0.54115  0.10570  0.27401  Biso   1.000  C
  C93      1.0000 0.04115  0.39430  0.77401  Biso   1.000  C
  C94      1.0000 0.95885  0.39430  0.72599  Biso   1.000  C
  C95      1.0000 0.54115  0.89430  0.77401  Biso   1.000  C
  C96      1.0000 0.45885  0.89430  0.72599  Biso   1.000  C
  Cu1      1.0000 0.00000  0.00000  0.00000  Biso   1.000  Cu
  Cu2      1.0000 0.00000  0.00000  0.50000  Biso   1.000  Cu
  Cu3      1.0000 0.50000  0.50000  0.00000  Biso   1.000  Cu
  Cu4      1.0000 0.50000  0.50000  0.50000  Biso   1.000  Cu
  N1       1.0000 0.08545  0.89552  0.98992  Biso   1.000  N
  N2       1.0000 0.91455  0.89552  0.51008  Biso   1.000  N
  N3       1.0000 0.58545  0.39552  0.98992  Biso   1.000  N
  N4       1.0000 0.41455  0.39552  0.51008  Biso   1.000  N
  N5       1.0000 0.91455  0.10448  0.01008  Biso   1.000  N
  N6       1.0000 0.08545  0.10448  0.48992  Biso   1.000  N
  N7       1.0000 0.41455  0.60448  0.01008  Biso   1.000  N
  N8       1.0000 0.58545  0.60448  0.48992  Biso   1.000  N
  O1       1.0000 0.99232  0.85041  0.10693  Biso   1.000  O
  O2       1.0000 0.00768  0.85041  0.39307  Biso   1.000  O
  O3       1.0000 0.49232  0.35041  0.10693  Biso   1.000  O
  O4       1.0000 0.50768  0.35041  0.39307  Biso   1.000  O
  O5       1.0000 0.00768  0.14959  0.89307  Biso   1.000  O
  O6       1.0000 0.99232  0.14959  0.60693  Biso   1.000  O
  O7       1.0000 0.50768  0.64959  0.89307  Biso   1.000  O
  O8       1.0000 0.49232  0.64959  0.60693  Biso   1.000  O
  O9       1.0000 0.89300  0.80078  0.92008  Biso   1.000  O
  O10      1.0000 0.10700  0.80078  0.57992  Biso   1.000  O
  O11      1.0000 0.39300  0.30078  0.92008  Biso   1.000  O
  O12      1.0000 0.60700  0.30078  0.57992  Biso   1.000  O
  O13      1.0000 0.10700  0.19922  0.07992  Biso   1.000  O
  O14      1.0000 0.89300  0.19922  0.42008  Biso   1.000  O
  O15      1.0000 0.60700  0.69922  0.07992  Biso   1.000  O
  O16      1.0000 0.39300  0.69922  0.42008  Biso   1.000  O
