data_image0
_cell_length_a       14.1063
_cell_length_b       7.6324
_cell_length_c       15.6342
_cell_angle_alpha    90
_cell_angle_beta     114.183
_cell_angle_gamma    90

_symmetry_space_group_name_H-M    "P 1"
_symmetry_int_tables_number       1

loop_
  _symmetry_equiv_pos_as_xyz
  'x, y, z'

loop_
  _atom_site_label
  _atom_site_occupancy
  _atom_site_fract_x
  _atom_site_fract_y
  _atom_site_fract_z
  _atom_site_thermal_displace_type
  _atom_site_B_iso_or_equiv
  _atom_site_type_symbol
  Cu1      1.0000 0.85534  0.77850  0.34896  Biso   1.000  Cu
  Cu2      1.0000 0.64466  0.27850  0.15104  Biso   1.000  Cu
  Cu3      1.0000 0.14466  0.22150  0.65104  Biso   1.000  Cu
  Cu4      1.0000 0.35534  0.72150  0.84896  Biso   1.000  Cu
  O1       1.0000 0.97710  0.82740  0.49340  Biso   1.000  O
  O2       1.0000 0.52290  0.32740  0.00660  Biso   1.000  O
  O3       1.0000 0.02290  0.17260  0.50660  Biso   1.000  O
  O4       1.0000 0.47710  0.67260  0.99340  Biso   1.000  O
  O5       1.0000 0.92680  0.00940  0.29840  Biso   1.000  O
  O6       1.0000 0.57320  0.50940  0.20160  Biso   1.000  O
  O7       1.0000 0.07320  0.99060  0.70160  Biso   1.000  O
  O8       1.0000 0.42680  0.49060  0.79840  Biso   1.000  O
  O9       1.0000 0.79780  0.54990  0.39460  Biso   1.000  O
  O10      1.0000 0.70220  0.04990  0.10540  Biso   1.000  O
  O11      1.0000 0.20220  0.45010  0.60540  Biso   1.000  O
  O12      1.0000 0.29780  0.95010  0.89460  Biso   1.000  O
  O13      1.0000 0.73020  0.75120  0.21230  Biso   1.000  O
  O14      1.0000 0.76980  0.25120  0.28770  Biso   1.000  O
  O15      1.0000 0.26980  0.24880  0.78770  Biso   1.000  O
  O16      1.0000 0.23020  0.74880  0.71230  Biso   1.000  O
  O17      1.0000 0.94110  0.62750  0.30830  Biso   1.000  O
  O18      1.0000 0.55890  0.12750  0.19170  Biso   1.000  O
  O19      1.0000 0.05890  0.37250  0.69170  Biso   1.000  O
  O20      1.0000 0.44110  0.87250  0.80830  Biso   1.000  O
  O21      1.0000 0.07810  0.58650  0.44200  Biso   1.000  O
  O22      1.0000 0.42190  0.08650  0.05800  Biso   1.000  O
  O23      1.0000 0.92190  0.41350  0.55800  Biso   1.000  O
  O24      1.0000 0.57810  0.91350  0.94200  Biso   1.000  O
  O25      1.0000 0.73220  0.44610  0.12070  Biso   1.000  O
  O26      1.0000 0.76780  0.94610  0.37930  Biso   1.000  O
  O27      1.0000 0.26780  0.55390  0.87930  Biso   1.000  O
  O28      1.0000 0.23220  0.05390  0.62070  Biso   1.000  O
  O29      1.0000 0.85320  0.26190  0.11510  Biso   1.000  O
  O30      1.0000 0.64680  0.76190  0.38490  Biso   1.000  O
  O31      1.0000 0.14680  0.73810  0.88490  Biso   1.000  O
  O32      1.0000 0.35320  0.23810  0.61510  Biso   1.000  O
  C1       1.0000 0.02740  0.55960  0.35580  Biso   1.000  C
  C2       1.0000 0.47260  0.05960  0.14420  Biso   1.000  C
  C3       1.0000 0.97260  0.44040  0.64420  Biso   1.000  C
  C4       1.0000 0.52740  0.94040  0.85580  Biso   1.000  C
  C5       1.0000 0.07420  0.43890  0.30670  Biso   1.000  C
  C6       1.0000 0.42580  0.93890  0.19330  Biso   1.000  C
  C7       1.0000 0.92580  0.56110  0.69330  Biso   1.000  C
  C8       1.0000 0.57420  0.06110  0.80670  Biso   1.000  C
  C9       1.0000 0.04960  0.45430  0.21010  Biso   1.000  C
  C10      1.0000 0.45040  0.95430  0.28990  Biso   1.000  C
  C11      1.0000 0.95040  0.54570  0.78990  Biso   1.000  C
  C12      1.0000 0.54960  0.04570  0.71010  Biso   1.000  C
  C13      1.0000 0.09990  0.33950  0.17150  Biso   1.000  C
  C14      1.0000 0.40010  0.83950  0.32850  Biso   1.000  C
  C15      1.0000 0.90010  0.66050  0.82850  Biso   1.000  C
  C16      1.0000 0.59990  0.16050  0.67150  Biso   1.000  C
  H1       1.0000 0.08680  0.35030  0.10830  Biso   1.000  H
  H2       1.0000 0.41320  0.85030  0.39170  Biso   1.000  H
  H3       1.0000 0.91320  0.64970  0.89170  Biso   1.000  H
  H4       1.0000 0.58680  0.14970  0.60830  Biso   1.000  H
  C17      1.0000 0.16790  0.21170  0.22410  Biso   1.000  C
  C18      1.0000 0.33210  0.71170  0.27590  Biso   1.000  C
  C19      1.0000 0.83210  0.78830  0.77590  Biso   1.000  C
  C20      1.0000 0.66790  0.28830  0.72410  Biso   1.000  C
  H5       1.0000 0.19870  0.13630  0.19620  Biso   1.000  H
  H6       1.0000 0.30130  0.63630  0.30380  Biso   1.000  H
  H7       1.0000 0.80130  0.86370  0.80380  Biso   1.000  H
  H8       1.0000 0.69870  0.36370  0.69620  Biso   1.000  H
  C21      1.0000 0.19010  0.19590  0.31920  Biso   1.000  C
  C22      1.0000 0.30990  0.69590  0.18080  Biso   1.000  C
  C23      1.0000 0.80990  0.80410  0.68080  Biso   1.000  C
  C24      1.0000 0.69010  0.30410  0.81920  Biso   1.000  C
  H9       1.0000 0.23550  0.10980  0.35530  Biso   1.000  H
  H10      1.0000 0.26450  0.60980  0.14470  Biso   1.000  H
  H11      1.0000 0.76450  0.89020  0.64470  Biso   1.000  H
  H12      1.0000 0.73550  0.39020  0.85530  Biso   1.000  H
  C25      1.0000 0.14360  0.31080  0.35940  Biso   1.000  C
  C26      1.0000 0.35640  0.81080  0.14060  Biso   1.000  C
  C27      1.0000 0.85640  0.68920  0.64060  Biso   1.000  C
  C28      1.0000 0.64360  0.18920  0.85940  Biso   1.000  C
  H13      1.0000 0.15930  0.30190  0.42310  Biso   1.000  H
  H14      1.0000 0.34070  0.80190  0.07690  Biso   1.000  H
  H15      1.0000 0.84070  0.69810  0.57690  Biso   1.000  H
  H16      1.0000 0.65930  0.19810  0.92310  Biso   1.000  H
  C29      1.0000 0.81760  0.40960  0.11180  Biso   1.000  C
  C30      1.0000 0.68240  0.90960  0.38820  Biso   1.000  C
  C31      1.0000 0.18240  0.59040  0.88820  Biso   1.000  C
  C32      1.0000 0.31760  0.09040  0.61180  Biso   1.000  C
  C33      1.0000 0.87250  0.56820  0.09770  Biso   1.000  C
  C34      1.0000 0.62750  0.06820  0.40230  Biso   1.000  C
  C35      1.0000 0.12750  0.43180  0.90230  Biso   1.000  C
  C36      1.0000 0.37250  0.93180  0.59770  Biso   1.000  C
  C37      1.0000 0.97990  0.59100  0.14810  Biso   1.000  C
  C38      1.0000 0.52010  0.09100  0.35190  Biso   1.000  C
  C39      1.0000 0.02010  0.40900  0.85190  Biso   1.000  C
  C40      1.0000 0.47990  0.90900  0.64810  Biso   1.000  C
  C41      1.0000 0.02360  0.74880  0.13970  Biso   1.000  C
  C42      1.0000 0.47640  0.24880  0.36030  Biso   1.000  C
  C43      1.0000 0.97640  0.25120  0.86030  Biso   1.000  C
  C44      1.0000 0.52360  0.75120  0.63970  Biso   1.000  C
  H17      1.0000 0.09450  0.76600  0.17370  Biso   1.000  H
  H18      1.0000 0.40550  0.26600  0.32630  Biso   1.000  H
  H19      1.0000 0.90550  0.23400  0.82630  Biso   1.000  H
  H20      1.0000 0.59450  0.73400  0.67370  Biso   1.000  H
  C45      1.0000 0.96420  0.88320  0.08150  Biso   1.000  C
  C46      1.0000 0.53580  0.38320  0.41850  Biso   1.000  C
  C47      1.0000 0.03580  0.11680  0.91850  Biso   1.000  C
  C48      1.0000 0.46420  0.61680  0.58150  Biso   1.000  C
  H21      1.0000 0.99470  0.98980  0.07850  Biso   1.000  H
  H22      1.0000 0.50530  0.48980  0.42150  Biso   1.000  H
  H23      1.0000 0.00530  0.01020  0.92150  Biso   1.000  H
  H24      1.0000 0.49470  0.51020  0.57850  Biso   1.000  H
  C49      1.0000 0.85880  0.85530  0.02800  Biso   1.000  C
  C50      1.0000 0.64120  0.35530  0.47200  Biso   1.000  C
  C51      1.0000 0.14120  0.14470  0.97200  Biso   1.000  C
  C52      1.0000 0.35880  0.64470  0.52800  Biso   1.000  C
  H25      1.0000 0.81920  0.94050  0.98600  Biso   1.000  H
  H26      1.0000 0.68080  0.44050  0.51400  Biso   1.000  H
  H27      1.0000 0.18080  0.05950  0.01400  Biso   1.000  H
  H28      1.0000 0.31920  0.55950  0.48600  Biso   1.000  H
  C53      1.0000 0.81330  0.70140  0.03730  Biso   1.000  C
  C54      1.0000 0.68670  0.20140  0.46270  Biso   1.000  C
  C55      1.0000 0.18670  0.29860  0.96270  Biso   1.000  C
  C56      1.0000 0.31330  0.79860  0.53730  Biso   1.000  C
  H29      1.0000 0.74230  0.68510  0.00320  Biso   1.000  H
  H30      1.0000 0.75770  0.18510  0.49680  Biso   1.000  H
  H31      1.0000 0.25770  0.31490  0.99680  Biso   1.000  H
  H32      1.0000 0.24230  0.81490  0.50320  Biso   1.000  H
