data_image0
_cell_length_a       22.073
_cell_length_b       15.3244
_cell_length_c       16.022
_cell_angle_alpha    90
_cell_angle_beta     125.849
_cell_angle_gamma    90

_symmetry_space_group_name_H-M    "P 1"
_symmetry_int_tables_number       1

loop_
  _symmetry_equiv_pos_as_xyz
  'x, y, z'

loop_
  _atom_site_label
  _atom_site_occupancy
  _atom_site_fract_x
  _atom_site_fract_y
  _atom_site_fract_z
  _atom_site_thermal_displace_type
  _atom_site_B_iso_or_equiv
  _atom_site_type_symbol
  Cu1      1.0000 0.27120  0.53189  0.90461  Biso   1.000  Cu
  Cu2      1.0000 0.77120  0.03189  0.90461  Biso   1.000  Cu
  Cu3      1.0000 0.72880  0.53189  0.59539  Biso   1.000  Cu
  Cu4      1.0000 0.22880  0.03189  0.59539  Biso   1.000  Cu
  Cu5      1.0000 0.72880  0.46811  0.09539  Biso   1.000  Cu
  Cu6      1.0000 0.22880  0.96811  0.09539  Biso   1.000  Cu
  Cu7      1.0000 0.27120  0.46811  0.40461  Biso   1.000  Cu
  Cu8      1.0000 0.77120  0.96811  0.40461  Biso   1.000  Cu
  N1       1.0000 0.20540  0.62170  0.90750  Biso   1.000  N
  N2       1.0000 0.70540  0.12170  0.90750  Biso   1.000  N
  N3       1.0000 0.79460  0.62170  0.59250  Biso   1.000  N
  N4       1.0000 0.29460  0.12170  0.59250  Biso   1.000  N
  N5       1.0000 0.79460  0.37830  0.09250  Biso   1.000  N
  N6       1.0000 0.29460  0.87830  0.09250  Biso   1.000  N
  N7       1.0000 0.20540  0.37830  0.40750  Biso   1.000  N
  N8       1.0000 0.70540  0.87830  0.40750  Biso   1.000  N
  N9       1.0000 0.85220  0.95900  0.91390  Biso   1.000  N
  N10      1.0000 0.35220  0.45900  0.91390  Biso   1.000  N
  N11      1.0000 0.14780  0.95900  0.58610  Biso   1.000  N
  N12      1.0000 0.64780  0.45900  0.58610  Biso   1.000  N
  N13      1.0000 0.14780  0.04100  0.08610  Biso   1.000  N
  N14      1.0000 0.64780  0.54100  0.08610  Biso   1.000  N
  N15      1.0000 0.85220  0.04100  0.41390  Biso   1.000  N
  N16      1.0000 0.35220  0.54100  0.41390  Biso   1.000  N
  O1       1.0000 0.25030  0.58710  0.78140  Biso   1.000  O
  O2       1.0000 0.75030  0.08710  0.78140  Biso   1.000  O
  O3       1.0000 0.74970  0.58710  0.71860  Biso   1.000  O
  O4       1.0000 0.24970  0.08710  0.71860  Biso   1.000  O
  O5       1.0000 0.74970  0.41290  0.21860  Biso   1.000  O
  O6       1.0000 0.24970  0.91290  0.21860  Biso   1.000  O
  O7       1.0000 0.25030  0.41290  0.28140  Biso   1.000  O
  O8       1.0000 0.75030  0.91290  0.28140  Biso   1.000  O
  O9       1.0000 0.16540  0.48430  0.72030  Biso   1.000  O
  O10      1.0000 0.66540  0.98430  0.72030  Biso   1.000  O
  O11      1.0000 0.83460  0.48430  0.77970  Biso   1.000  O
  O12      1.0000 0.33460  0.98430  0.77970  Biso   1.000  O
  O13      1.0000 0.83460  0.51570  0.27970  Biso   1.000  O
  O14      1.0000 0.33460  0.01570  0.27970  Biso   1.000  O
  O15      1.0000 0.16540  0.51570  0.22030  Biso   1.000  O
  O16      1.0000 0.66540  0.01570  0.22030  Biso   1.000  O
  O17      1.0000 0.38330  0.48370  0.63780  Biso   1.000  O
  O18      1.0000 0.88330  0.98370  0.63780  Biso   1.000  O
  O19      1.0000 0.61670  0.48370  0.86220  Biso   1.000  O
  O20      1.0000 0.11670  0.98370  0.86220  Biso   1.000  O
  O21      1.0000 0.61670  0.51630  0.36220  Biso   1.000  O
  O22      1.0000 0.11670  0.01630  0.36220  Biso   1.000  O
  O23      1.0000 0.38330  0.51630  0.13780  Biso   1.000  O
  O24      1.0000 0.88330  0.01630  0.13780  Biso   1.000  O
  O25      1.0000 0.27600  0.53820  0.50690  Biso   1.000  O
  O26      1.0000 0.77600  0.03820  0.50690  Biso   1.000  O
  O27      1.0000 0.72400  0.53820  0.99310  Biso   1.000  O
  O28      1.0000 0.22400  0.03820  0.99310  Biso   1.000  O
  O29      1.0000 0.72400  0.46180  0.49310  Biso   1.000  O
  O30      1.0000 0.22400  0.96180  0.49310  Biso   1.000  O
  O31      1.0000 0.27600  0.46180  0.00690  Biso   1.000  O
  O32      1.0000 0.77600  0.96180  0.00690  Biso   1.000  O
  C1       1.0000 0.16570  0.60070  0.94240  Biso   1.000  C
  C2       1.0000 0.66570  0.10070  0.94240  Biso   1.000  C
  C3       1.0000 0.83430  0.60070  0.55760  Biso   1.000  C
  C4       1.0000 0.33430  0.10070  0.55760  Biso   1.000  C
  C5       1.0000 0.83430  0.39930  0.05760  Biso   1.000  C
  C6       1.0000 0.33430  0.89930  0.05760  Biso   1.000  C
  C7       1.0000 0.16570  0.39930  0.44240  Biso   1.000  C
  C8       1.0000 0.66570  0.89930  0.44240  Biso   1.000  C
  H1       1.0000 0.17120  0.54490  0.96890  Biso   1.000  H
  H2       1.0000 0.67120  0.04490  0.96890  Biso   1.000  H
  H3       1.0000 0.82880  0.54490  0.53110  Biso   1.000  H
  H4       1.0000 0.32880  0.04490  0.53110  Biso   1.000  H
  H5       1.0000 0.82880  0.45510  0.03110  Biso   1.000  H
  H6       1.0000 0.32880  0.95510  0.03110  Biso   1.000  H
  H7       1.0000 0.17120  0.45510  0.46890  Biso   1.000  H
  H8       1.0000 0.67120  0.95510  0.46890  Biso   1.000  H
  C9       1.0000 0.11650  0.65750  0.94130  Biso   1.000  C
  C10      1.0000 0.61650  0.15750  0.94130  Biso   1.000  C
  C11      1.0000 0.88350  0.65750  0.55870  Biso   1.000  C
  C12      1.0000 0.38350  0.15750  0.55870  Biso   1.000  C
  C13      1.0000 0.88350  0.34250  0.05870  Biso   1.000  C
  C14      1.0000 0.38350  0.84250  0.05870  Biso   1.000  C
  C15      1.0000 0.11650  0.34250  0.44130  Biso   1.000  C
  C16      1.0000 0.61650  0.84250  0.44130  Biso   1.000  C
  H9       1.0000 0.08990  0.64000  0.96690  Biso   1.000  H
  H10      1.0000 0.58990  0.14000  0.96690  Biso   1.000  H
  H11      1.0000 0.91010  0.64000  0.53310  Biso   1.000  H
  H12      1.0000 0.41010  0.14000  0.53310  Biso   1.000  H
  H13      1.0000 0.91010  0.36000  0.03310  Biso   1.000  H
  H14      1.0000 0.41010  0.86000  0.03310  Biso   1.000  H
  H15      1.0000 0.08990  0.36000  0.46690  Biso   1.000  H
  H16      1.0000 0.58990  0.86000  0.46690  Biso   1.000  H
  C17      1.0000 0.10730  0.74070  0.90180  Biso   1.000  C
  C18      1.0000 0.60730  0.24070  0.90180  Biso   1.000  C
  C19      1.0000 0.89270  0.74070  0.59820  Biso   1.000  C
  C20      1.0000 0.39270  0.24070  0.59820  Biso   1.000  C
  C21      1.0000 0.89270  0.25930  0.09820  Biso   1.000  C
  C22      1.0000 0.39270  0.75930  0.09820  Biso   1.000  C
  C23      1.0000 0.10730  0.25930  0.40180  Biso   1.000  C
  C24      1.0000 0.60730  0.75930  0.40180  Biso   1.000  C
  C25      1.0000 0.05530  0.80650  0.89740  Biso   1.000  C
  C26      1.0000 0.55530  0.30650  0.89740  Biso   1.000  C
  C27      1.0000 0.94470  0.80650  0.60260  Biso   1.000  C
  C28      1.0000 0.44470  0.30650  0.60260  Biso   1.000  C
  C29      1.0000 0.94470  0.19350  0.10260  Biso   1.000  C
  C30      1.0000 0.44470  0.69350  0.10260  Biso   1.000  C
  C31      1.0000 0.05530  0.19350  0.39740  Biso   1.000  C
  C32      1.0000 0.55530  0.69350  0.39740  Biso   1.000  C
  H17      1.0000 0.05740  0.86360  0.87950  Biso   1.000  H
  H18      1.0000 0.55740  0.36360  0.87950  Biso   1.000  H
  H19      1.0000 0.94260  0.86360  0.62050  Biso   1.000  H
  H20      1.0000 0.44260  0.36360  0.62050  Biso   1.000  H
  H21      1.0000 0.94260  0.13640  0.12050  Biso   1.000  H
  H22      1.0000 0.44260  0.63640  0.12050  Biso   1.000  H
  H23      1.0000 0.05740  0.13640  0.37950  Biso   1.000  H
  H24      1.0000 0.55740  0.63640  0.37950  Biso   1.000  H
  C33      1.0000 0.00890  0.78900  0.91640  Biso   1.000  C
  C34      1.0000 0.50890  0.28900  0.91640  Biso   1.000  C
  C35      1.0000 0.99110  0.78900  0.58360  Biso   1.000  C
  C36      1.0000 0.49110  0.28900  0.58360  Biso   1.000  C
  C37      1.0000 0.99110  0.21100  0.08360  Biso   1.000  C
  C38      1.0000 0.49110  0.71100  0.08360  Biso   1.000  C
  C39      1.0000 0.00890  0.21100  0.41640  Biso   1.000  C
  C40      1.0000 0.50890  0.71100  0.41640  Biso   1.000  C
  H25      1.0000 0.00760  0.73150  0.93390  Biso   1.000  H
  H26      1.0000 0.50760  0.23150  0.93390  Biso   1.000  H
  H27      1.0000 0.99240  0.73150  0.56610  Biso   1.000  H
  H28      1.0000 0.49240  0.23150  0.56610  Biso   1.000  H
  H29      1.0000 0.99240  0.26850  0.06610  Biso   1.000  H
  H30      1.0000 0.49240  0.76850  0.06610  Biso   1.000  H
  H31      1.0000 0.00760  0.26850  0.43390  Biso   1.000  H
  H32      1.0000 0.50760  0.76850  0.43390  Biso   1.000  H
  C41      1.0000 0.95500  0.85180  0.91370  Biso   1.000  C
  C42      1.0000 0.45500  0.35180  0.91370  Biso   1.000  C
  C43      1.0000 0.04500  0.85180  0.58630  Biso   1.000  C
  C44      1.0000 0.54500  0.35180  0.58630  Biso   1.000  C
  C45      1.0000 0.04500  0.14820  0.08630  Biso   1.000  C
  C46      1.0000 0.54500  0.64820  0.08630  Biso   1.000  C
  C47      1.0000 0.95500  0.14820  0.41370  Biso   1.000  C
  C48      1.0000 0.45500  0.64820  0.41370  Biso   1.000  C
  C49      1.0000 0.91230  0.82170  0.94380  Biso   1.000  C
  C50      1.0000 0.41230  0.32170  0.94380  Biso   1.000  C
  C51      1.0000 0.08770  0.82170  0.55620  Biso   1.000  C
  C52      1.0000 0.58770  0.32170  0.55620  Biso   1.000  C
  C53      1.0000 0.08770  0.17830  0.05620  Biso   1.000  C
  C54      1.0000 0.58770  0.67830  0.05620  Biso   1.000  C
  C55      1.0000 0.91230  0.17830  0.44380  Biso   1.000  C
  C56      1.0000 0.41230  0.67830  0.44380  Biso   1.000  C
  H33      1.0000 0.91730  0.76400  0.96500  Biso   1.000  H
  H34      1.0000 0.41730  0.26400  0.96500  Biso   1.000  H
  H35      1.0000 0.08270  0.76400  0.53500  Biso   1.000  H
  H36      1.0000 0.58270  0.26400  0.53500  Biso   1.000  H
  H37      1.0000 0.08270  0.23600  0.03500  Biso   1.000  H
  H38      1.0000 0.58270  0.73600  0.03500  Biso   1.000  H
  H39      1.0000 0.91730  0.23600  0.46500  Biso   1.000  H
  H40      1.0000 0.41730  0.73600  0.46500  Biso   1.000  H
  C57      1.0000 0.86230  0.87510  0.94330  Biso   1.000  C
  C58      1.0000 0.36230  0.37510  0.94330  Biso   1.000  C
  C59      1.0000 0.13770  0.87510  0.55670  Biso   1.000  C
  C60      1.0000 0.63770  0.37510  0.55670  Biso   1.000  C
  C61      1.0000 0.13770  0.12490  0.05670  Biso   1.000  C
  C62      1.0000 0.63770  0.62490  0.05670  Biso   1.000  C
  C63      1.0000 0.86230  0.12490  0.44330  Biso   1.000  C
  C64      1.0000 0.36230  0.62490  0.44330  Biso   1.000  C
  H41      1.0000 0.83410  0.85230  0.96420  Biso   1.000  H
  H42      1.0000 0.33410  0.35230  0.96420  Biso   1.000  H
  H43      1.0000 0.16590  0.85230  0.53580  Biso   1.000  H
  H44      1.0000 0.66590  0.35230  0.53580  Biso   1.000  H
  H45      1.0000 0.16590  0.14770  0.03580  Biso   1.000  H
  H46      1.0000 0.66590  0.64770  0.03580  Biso   1.000  H
  H47      1.0000 0.83410  0.14770  0.46420  Biso   1.000  H
  H48      1.0000 0.33410  0.64770  0.46420  Biso   1.000  H
  C65      1.0000 0.89200  0.98900  0.88260  Biso   1.000  C
  C66      1.0000 0.39200  0.48900  0.88260  Biso   1.000  C
  C67      1.0000 0.10800  0.98900  0.61740  Biso   1.000  C
  C68      1.0000 0.60800  0.48900  0.61740  Biso   1.000  C
  C69      1.0000 0.10800  0.01100  0.11740  Biso   1.000  C
  C70      1.0000 0.60800  0.51100  0.11740  Biso   1.000  C
  C71      1.0000 0.89200  0.01100  0.38260  Biso   1.000  C
  C72      1.0000 0.39200  0.51100  0.38260  Biso   1.000  C
  H49      1.0000 0.88500  0.04640  0.85980  Biso   1.000  H
  H50      1.0000 0.38500  0.54640  0.85980  Biso   1.000  H
  H51      1.0000 0.11500  0.04640  0.64020  Biso   1.000  H
  H52      1.0000 0.61500  0.54640  0.64020  Biso   1.000  H
  H53      1.0000 0.11500  0.95360  0.14020  Biso   1.000  H
  H54      1.0000 0.61500  0.45360  0.14020  Biso   1.000  H
  H55      1.0000 0.88500  0.95360  0.35980  Biso   1.000  H
  H56      1.0000 0.38500  0.45360  0.35980  Biso   1.000  H
  C73      1.0000 0.94490  0.93690  0.88250  Biso   1.000  C
  C74      1.0000 0.44490  0.43690  0.88250  Biso   1.000  C
  C75      1.0000 0.05510  0.93690  0.61750  Biso   1.000  C
  C76      1.0000 0.55510  0.43690  0.61750  Biso   1.000  C
  C77      1.0000 0.05510  0.06310  0.11750  Biso   1.000  C
  C78      1.0000 0.55510  0.56310  0.11750  Biso   1.000  C
  C79      1.0000 0.94490  0.06310  0.38250  Biso   1.000  C
  C80      1.0000 0.44490  0.56310  0.38250  Biso   1.000  C
  H57      1.0000 0.97260  0.96050  0.86130  Biso   1.000  H
  H58      1.0000 0.47260  0.46050  0.86130  Biso   1.000  H
  H59      1.0000 0.02740  0.96050  0.63870  Biso   1.000  H
  H60      1.0000 0.52740  0.46050  0.63870  Biso   1.000  H
  H61      1.0000 0.02740  0.03950  0.13870  Biso   1.000  H
  H62      1.0000 0.52740  0.53950  0.13870  Biso   1.000  H
  H63      1.0000 0.97260  0.03950  0.36130  Biso   1.000  H
  H64      1.0000 0.47260  0.53950  0.36130  Biso   1.000  H
  C81      1.0000 0.14910  0.76290  0.86790  Biso   1.000  C
  C82      1.0000 0.64910  0.26290  0.86790  Biso   1.000  C
  C83      1.0000 0.85090  0.76290  0.63210  Biso   1.000  C
  C84      1.0000 0.35090  0.26290  0.63210  Biso   1.000  C
  C85      1.0000 0.85090  0.23710  0.13210  Biso   1.000  C
  C86      1.0000 0.35090  0.73710  0.13210  Biso   1.000  C
  C87      1.0000 0.14910  0.23710  0.36790  Biso   1.000  C
  C88      1.0000 0.64910  0.73710  0.36790  Biso   1.000  C
  H65      1.0000 0.14550  0.81860  0.84230  Biso   1.000  H
  H66      1.0000 0.64550  0.31860  0.84230  Biso   1.000  H
  H67      1.0000 0.85450  0.81860  0.65770  Biso   1.000  H
  H68      1.0000 0.35450  0.31860  0.65770  Biso   1.000  H
  H69      1.0000 0.85450  0.18140  0.15770  Biso   1.000  H
  H70      1.0000 0.35450  0.68140  0.15770  Biso   1.000  H
  H71      1.0000 0.14550  0.18140  0.34230  Biso   1.000  H
  H72      1.0000 0.64550  0.68140  0.34230  Biso   1.000  H
  C89      1.0000 0.19660  0.70260  0.87190  Biso   1.000  C
  C90      1.0000 0.69660  0.20260  0.87190  Biso   1.000  C
  C91      1.0000 0.80340  0.70260  0.62810  Biso   1.000  C
  C92      1.0000 0.30340  0.20260  0.62810  Biso   1.000  C
  C93      1.0000 0.80340  0.29740  0.12810  Biso   1.000  C
  C94      1.0000 0.30340  0.79740  0.12810  Biso   1.000  C
  C95      1.0000 0.19660  0.29740  0.37190  Biso   1.000  C
  C96      1.0000 0.69660  0.79740  0.37190  Biso   1.000  C
  H73      1.0000 0.22440  0.71940  0.84800  Biso   1.000  H
  H74      1.0000 0.72440  0.21940  0.84800  Biso   1.000  H
  H75      1.0000 0.77560  0.71940  0.65200  Biso   1.000  H
  H76      1.0000 0.27560  0.21940  0.65200  Biso   1.000  H
  H77      1.0000 0.77560  0.28060  0.15200  Biso   1.000  H
  H78      1.0000 0.27560  0.78060  0.15200  Biso   1.000  H
  H79      1.0000 0.22440  0.28060  0.34800  Biso   1.000  H
  H80      1.0000 0.72440  0.78060  0.34800  Biso   1.000  H
  C97      1.0000 0.19310  0.54770  0.70640  Biso   1.000  C
  C98      1.0000 0.69310  0.04770  0.70640  Biso   1.000  C
  C99      1.0000 0.80690  0.54770  0.79360  Biso   1.000  C
  C100     1.0000 0.30690  0.04770  0.79360  Biso   1.000  C
  C101     1.0000 0.80690  0.45230  0.29360  Biso   1.000  C
  C102     1.0000 0.30690  0.95230  0.29360  Biso   1.000  C
  C103     1.0000 0.19310  0.45230  0.20640  Biso   1.000  C
  C104     1.0000 0.69310  0.95230  0.20640  Biso   1.000  C
  C105     1.0000 0.15950  0.58100  0.59900  Biso   1.000  C
  C106     1.0000 0.65950  0.08100  0.59900  Biso   1.000  C
  C107     1.0000 0.84050  0.58100  0.90100  Biso   1.000  C
  C108     1.0000 0.34050  0.08100  0.90100  Biso   1.000  C
  C109     1.0000 0.84050  0.41900  0.40100  Biso   1.000  C
  C110     1.0000 0.34050  0.91900  0.40100  Biso   1.000  C
  C111     1.0000 0.15950  0.41900  0.09900  Biso   1.000  C
  C112     1.0000 0.65950  0.91900  0.09900  Biso   1.000  C
  C113     1.0000 0.19820  0.63180  0.57180  Biso   1.000  C
  C114     1.0000 0.69820  0.13180  0.57180  Biso   1.000  C
  C115     1.0000 0.80180  0.63180  0.92820  Biso   1.000  C
  C116     1.0000 0.30180  0.13180  0.92820  Biso   1.000  C
  C117     1.0000 0.80180  0.36820  0.42820  Biso   1.000  C
  C118     1.0000 0.30180  0.86820  0.42820  Biso   1.000  C
  C119     1.0000 0.19820  0.36820  0.07180  Biso   1.000  C
  C120     1.0000 0.69820  0.86820  0.07180  Biso   1.000  C
  C121     1.0000 0.16010  0.65760  0.46930  Biso   1.000  C
  C122     1.0000 0.66010  0.15760  0.46930  Biso   1.000  C
  C123     1.0000 0.83990  0.65760  0.03070  Biso   1.000  C
  C124     1.0000 0.33990  0.15760  0.03070  Biso   1.000  C
  C125     1.0000 0.83990  0.34240  0.53070  Biso   1.000  C
  C126     1.0000 0.33990  0.84240  0.53070  Biso   1.000  C
  C127     1.0000 0.16010  0.34240  0.96930  Biso   1.000  C
  C128     1.0000 0.66010  0.84240  0.96930  Biso   1.000  C
  H81      1.0000 0.18470  0.69100  0.44930  Biso   1.000  H
  H82      1.0000 0.68470  0.19100  0.44930  Biso   1.000  H
  H83      1.0000 0.81530  0.69100  0.05070  Biso   1.000  H
  H84      1.0000 0.31530  0.19100  0.05070  Biso   1.000  H
  H85      1.0000 0.81530  0.30900  0.55070  Biso   1.000  H
  H86      1.0000 0.31530  0.80900  0.55070  Biso   1.000  H
  H87      1.0000 0.18470  0.30900  0.94930  Biso   1.000  H
  H88      1.0000 0.68470  0.80900  0.94930  Biso   1.000  H
  C129     1.0000 0.08640  0.63450  0.39690  Biso   1.000  C
  C130     1.0000 0.58640  0.13450  0.39690  Biso   1.000  C
  C131     1.0000 0.91360  0.63450  0.10310  Biso   1.000  C
  C132     1.0000 0.41360  0.13450  0.10310  Biso   1.000  C
  C133     1.0000 0.91360  0.36550  0.60310  Biso   1.000  C
  C134     1.0000 0.41360  0.86550  0.60310  Biso   1.000  C
  C135     1.0000 0.08640  0.36550  0.89690  Biso   1.000  C
  C136     1.0000 0.58640  0.86550  0.89690  Biso   1.000  C
  H89      1.0000 0.06200  0.65260  0.32900  Biso   1.000  H
  H90      1.0000 0.56200  0.15260  0.32900  Biso   1.000  H
  H91      1.0000 0.93800  0.65260  0.17100  Biso   1.000  H
  H92      1.0000 0.43800  0.15260  0.17100  Biso   1.000  H
  H93      1.0000 0.93800  0.34740  0.67100  Biso   1.000  H
  H94      1.0000 0.43800  0.84740  0.67100  Biso   1.000  H
  H95      1.0000 0.06200  0.34740  0.82900  Biso   1.000  H
  H96      1.0000 0.56200  0.84740  0.82900  Biso   1.000  H
  C137     1.0000 0.04880  0.58470  0.42500  Biso   1.000  C
  C138     1.0000 0.54880  0.08470  0.42500  Biso   1.000  C
  C139     1.0000 0.95120  0.58470  0.07500  Biso   1.000  C
  C140     1.0000 0.45120  0.08470  0.07500  Biso   1.000  C
  C141     1.0000 0.95120  0.41530  0.57500  Biso   1.000  C
  C142     1.0000 0.45120  0.91530  0.57500  Biso   1.000  C
  C143     1.0000 0.04880  0.41530  0.92500  Biso   1.000  C
  C144     1.0000 0.54880  0.91530  0.92500  Biso   1.000  C
  H97      1.0000 0.99910  0.56950  0.37660  Biso   1.000  H
  H98      1.0000 0.49910  0.06950  0.37660  Biso   1.000  H
  H99      1.0000 0.00090  0.56950  0.12340  Biso   1.000  H
  H100     1.0000 0.50090  0.06950  0.12340  Biso   1.000  H
  H101     1.0000 0.00090  0.43050  0.62340  Biso   1.000  H
  H102     1.0000 0.50090  0.93050  0.62340  Biso   1.000  H
  H103     1.0000 0.99910  0.43050  0.87660  Biso   1.000  H
  H104     1.0000 0.49910  0.93050  0.87660  Biso   1.000  H
  C145     1.0000 0.08610  0.55820  0.52500  Biso   1.000  C
  C146     1.0000 0.58610  0.05820  0.52500  Biso   1.000  C
  C147     1.0000 0.91390  0.55820  0.97500  Biso   1.000  C
  C148     1.0000 0.41390  0.05820  0.97500  Biso   1.000  C
  C149     1.0000 0.91390  0.44180  0.47500  Biso   1.000  C
  C150     1.0000 0.41390  0.94180  0.47500  Biso   1.000  C
  C151     1.0000 0.08610  0.44180  0.02500  Biso   1.000  C
  C152     1.0000 0.58610  0.94180  0.02500  Biso   1.000  C
  H105     1.0000 0.06120  0.52370  0.54370  Biso   1.000  H
  H106     1.0000 0.56120  0.02370  0.54370  Biso   1.000  H
  H107     1.0000 0.93880  0.52370  0.95630  Biso   1.000  H
  H108     1.0000 0.43880  0.02370  0.95630  Biso   1.000  H
  H109     1.0000 0.93880  0.47630  0.45630  Biso   1.000  H
  H110     1.0000 0.43880  0.97630  0.45630  Biso   1.000  H
  H111     1.0000 0.06120  0.47630  0.04370  Biso   1.000  H
  H112     1.0000 0.56120  0.97630  0.04370  Biso   1.000  H
  C153     1.0000 0.33350  0.53730  0.60040  Biso   1.000  C
  C154     1.0000 0.83350  0.03730  0.60040  Biso   1.000  C
  C155     1.0000 0.66650  0.53730  0.89960  Biso   1.000  C
  C156     1.0000 0.16650  0.03730  0.89960  Biso   1.000  C
  C157     1.0000 0.66650  0.46270  0.39960  Biso   1.000  C
  C158     1.0000 0.16650  0.96270  0.39960  Biso   1.000  C
  C159     1.0000 0.33350  0.46270  0.10040  Biso   1.000  C
  C160     1.0000 0.83350  0.96270  0.10040  Biso   1.000  C
  C161     1.0000 0.33930  0.61590  0.66310  Biso   1.000  C
  C162     1.0000 0.83930  0.11590  0.66310  Biso   1.000  C
  C163     1.0000 0.66070  0.61590  0.83690  Biso   1.000  C
  C164     1.0000 0.16070  0.11590  0.83690  Biso   1.000  C
  C165     1.0000 0.66070  0.38410  0.33690  Biso   1.000  C
  C166     1.0000 0.16070  0.88410  0.33690  Biso   1.000  C
  C167     1.0000 0.33930  0.38410  0.16310  Biso   1.000  C
  C168     1.0000 0.83930  0.88410  0.16310  Biso   1.000  C
  C169     1.0000 0.27770  0.65920  0.64790  Biso   1.000  C
  C170     1.0000 0.77770  0.15920  0.64790  Biso   1.000  C
  C171     1.0000 0.72230  0.65920  0.85210  Biso   1.000  C
  C172     1.0000 0.22230  0.15920  0.85210  Biso   1.000  C
  C173     1.0000 0.72230  0.34080  0.35210  Biso   1.000  C
  C174     1.0000 0.22230  0.84080  0.35210  Biso   1.000  C
  C175     1.0000 0.27770  0.34080  0.14790  Biso   1.000  C
  C176     1.0000 0.77770  0.84080  0.14790  Biso   1.000  C
  C177     1.0000 0.29180  0.73450  0.70750  Biso   1.000  C
  C178     1.0000 0.79180  0.23450  0.70750  Biso   1.000  C
  C179     1.0000 0.70820  0.73450  0.79250  Biso   1.000  C
  C180     1.0000 0.20820  0.23450  0.79250  Biso   1.000  C
  C181     1.0000 0.70820  0.26550  0.29250  Biso   1.000  C
  C182     1.0000 0.20820  0.76550  0.29250  Biso   1.000  C
  C183     1.0000 0.29180  0.26550  0.20750  Biso   1.000  C
  C184     1.0000 0.79180  0.76550  0.20750  Biso   1.000  C
  H113     1.0000 0.25170  0.76470  0.69830  Biso   1.000  H
  H114     1.0000 0.75170  0.26470  0.69830  Biso   1.000  H
  H115     1.0000 0.74830  0.76470  0.80170  Biso   1.000  H
  H116     1.0000 0.24830  0.26470  0.80170  Biso   1.000  H
  H117     1.0000 0.74830  0.23530  0.30170  Biso   1.000  H
  H118     1.0000 0.24830  0.73530  0.30170  Biso   1.000  H
  H119     1.0000 0.25170  0.23530  0.19830  Biso   1.000  H
  H120     1.0000 0.75170  0.73530  0.19830  Biso   1.000  H
  C185     1.0000 0.36290  0.76430  0.77840  Biso   1.000  C
  C186     1.0000 0.86290  0.26430  0.77840  Biso   1.000  C
  C187     1.0000 0.63710  0.76430  0.72160  Biso   1.000  C
  C188     1.0000 0.13710  0.26430  0.72160  Biso   1.000  C
  C189     1.0000 0.63710  0.23570  0.22160  Biso   1.000  C
  C190     1.0000 0.13710  0.73570  0.22160  Biso   1.000  C
  C191     1.0000 0.36290  0.23570  0.27840  Biso   1.000  C
  C192     1.0000 0.86290  0.73570  0.27840  Biso   1.000  C
  H121     1.0000 0.37040  0.81530  0.81470  Biso   1.000  H
  H122     1.0000 0.87040  0.31530  0.81470  Biso   1.000  H
  H123     1.0000 0.62960  0.81530  0.68530  Biso   1.000  H
  H124     1.0000 0.12960  0.31530  0.68530  Biso   1.000  H
  H125     1.0000 0.62960  0.18470  0.18530  Biso   1.000  H
  H126     1.0000 0.12960  0.68470  0.18530  Biso   1.000  H
  H127     1.0000 0.37040  0.18470  0.31470  Biso   1.000  H
  H128     1.0000 0.87040  0.68470  0.31470  Biso   1.000  H
  C193     1.0000 0.42260  0.71940  0.79600  Biso   1.000  C
  C194     1.0000 0.92260  0.21940  0.79600  Biso   1.000  C
  C195     1.0000 0.57740  0.71940  0.70400  Biso   1.000  C
  C196     1.0000 0.07740  0.21940  0.70400  Biso   1.000  C
  C197     1.0000 0.57740  0.28060  0.20400  Biso   1.000  C
  C198     1.0000 0.07740  0.78060  0.20400  Biso   1.000  C
  C199     1.0000 0.42260  0.28060  0.29600  Biso   1.000  C
  C200     1.0000 0.92260  0.78060  0.29600  Biso   1.000  C
  H129     1.0000 0.47100  0.73840  0.84620  Biso   1.000  H
  H130     1.0000 0.97100  0.23840  0.84620  Biso   1.000  H
  H131     1.0000 0.52900  0.73840  0.65380  Biso   1.000  H
  H132     1.0000 0.02900  0.23840  0.65380  Biso   1.000  H
  H133     1.0000 0.52900  0.26160  0.15380  Biso   1.000  H
  H134     1.0000 0.02900  0.76160  0.15380  Biso   1.000  H
  H135     1.0000 0.47100  0.26160  0.34620  Biso   1.000  H
  H136     1.0000 0.97100  0.76160  0.34620  Biso   1.000  H
  C201     1.0000 0.41080  0.64590  0.73900  Biso   1.000  C
  C202     1.0000 0.91080  0.14590  0.73900  Biso   1.000  C
  C203     1.0000 0.58920  0.64590  0.76100  Biso   1.000  C
  C204     1.0000 0.08920  0.14590  0.76100  Biso   1.000  C
  C205     1.0000 0.58920  0.35410  0.26100  Biso   1.000  C
  C206     1.0000 0.08920  0.85410  0.26100  Biso   1.000  C
  C207     1.0000 0.41080  0.35410  0.23900  Biso   1.000  C
  C208     1.0000 0.91080  0.85410  0.23900  Biso   1.000  C
  H137     1.0000 0.45180  0.61540  0.75150  Biso   1.000  H
  H138     1.0000 0.95180  0.11540  0.75150  Biso   1.000  H
  H139     1.0000 0.54820  0.61540  0.74850  Biso   1.000  H
  H140     1.0000 0.04820  0.11540  0.74850  Biso   1.000  H
  H141     1.0000 0.54820  0.38460  0.24850  Biso   1.000  H
  H142     1.0000 0.04820  0.88460  0.24850  Biso   1.000  H
  H143     1.0000 0.45180  0.38460  0.25150  Biso   1.000  H
  H144     1.0000 0.95180  0.88460  0.25150  Biso   1.000  H
