data_image0
_cell_length_a       20.194
_cell_length_b       9.5131
_cell_length_c       11.4251
_cell_angle_alpha    90
_cell_angle_beta     117.022
_cell_angle_gamma    90

_symmetry_space_group_name_H-M    "P 1"
_symmetry_int_tables_number       1

loop_
  _symmetry_equiv_pos_as_xyz
  'x, y, z'

loop_
  _atom_site_label
  _atom_site_occupancy
  _atom_site_fract_x
  _atom_site_fract_y
  _atom_site_fract_z
  _atom_site_thermal_displace_type
  _atom_site_B_iso_or_equiv
  _atom_site_type_symbol
  Cu1      1.0000 0.50000  0.00000  0.00000  Biso   1.000  Cu
  Cu2      1.0000 0.00000  0.50000  0.00000  Biso   1.000  Cu
  Cu3      1.0000 0.50000  0.00000  0.50000  Biso   1.000  Cu
  Cu4      1.0000 0.00000  0.50000  0.50000  Biso   1.000  Cu
  N1       1.0000 0.41460  0.10460  0.01060  Biso   1.000  N
  N2       1.0000 0.91460  0.60460  0.01060  Biso   1.000  N
  N3       1.0000 0.58540  0.10460  0.48940  Biso   1.000  N
  N4       1.0000 0.08540  0.60460  0.48940  Biso   1.000  N
  N5       1.0000 0.58540  0.89540  0.98940  Biso   1.000  N
  N6       1.0000 0.08540  0.39540  0.98940  Biso   1.000  N
  N7       1.0000 0.41460  0.89540  0.51060  Biso   1.000  N
  N8       1.0000 0.91460  0.39540  0.51060  Biso   1.000  N
  O1       1.0000 0.50767  0.15010  0.89340  Biso   1.000  O
  O2       1.0000 0.00767  0.65010  0.89340  Biso   1.000  O
  O3       1.0000 0.49233  0.15010  0.60660  Biso   1.000  O
  O4       1.0000 0.99233  0.65010  0.60660  Biso   1.000  O
  O5       1.0000 0.49233  0.84990  0.10660  Biso   1.000  O
  O6       1.0000 0.99233  0.34990  0.10660  Biso   1.000  O
  O7       1.0000 0.50767  0.84990  0.39340  Biso   1.000  O
  O8       1.0000 0.00767  0.34990  0.39340  Biso   1.000  O
  O9       1.0000 0.60702  0.19960  0.07990  Biso   1.000  O
  O10      1.0000 0.10702  0.69960  0.07990  Biso   1.000  O
  O11      1.0000 0.39298  0.19960  0.42010  Biso   1.000  O
  O12      1.0000 0.89298  0.69960  0.42010  Biso   1.000  O
  O13      1.0000 0.39298  0.80040  0.92010  Biso   1.000  O
  O14      1.0000 0.89298  0.30040  0.92010  Biso   1.000  O
  O15      1.0000 0.60702  0.80040  0.57990  Biso   1.000  O
  O16      1.0000 0.10702  0.30040  0.57990  Biso   1.000  O
  C1       1.0000 0.36620  0.17700  0.90560  Biso   1.000  C
  C2       1.0000 0.86620  0.67700  0.90560  Biso   1.000  C
  C3       1.0000 0.63380  0.17700  0.59440  Biso   1.000  C
  C4       1.0000 0.13380  0.67700  0.59440  Biso   1.000  C
  C5       1.0000 0.63380  0.82300  0.09440  Biso   1.000  C
  C6       1.0000 0.13380  0.32300  0.09440  Biso   1.000  C
  C7       1.0000 0.36620  0.82300  0.40560  Biso   1.000  C
  C8       1.0000 0.86620  0.32300  0.40560  Biso   1.000  C
  H1       1.0000 0.37650  0.18930  0.83480  Biso   1.000  H
  H2       1.0000 0.87650  0.68930  0.83480  Biso   1.000  H
  H3       1.0000 0.62350  0.18930  0.66520  Biso   1.000  H
  H4       1.0000 0.12350  0.68930  0.66520  Biso   1.000  H
  H5       1.0000 0.62350  0.81070  0.16520  Biso   1.000  H
  H6       1.0000 0.12350  0.31070  0.16520  Biso   1.000  H
  H7       1.0000 0.37650  0.81070  0.33480  Biso   1.000  H
  H8       1.0000 0.87650  0.31070  0.33480  Biso   1.000  H
  C9       1.0000 0.30155  0.23400  0.89890  Biso   1.000  C
  C10      1.0000 0.80155  0.73400  0.89890  Biso   1.000  C
  C11      1.0000 0.69845  0.23400  0.60110  Biso   1.000  C
  C12      1.0000 0.19845  0.73400  0.60110  Biso   1.000  C
  C13      1.0000 0.69845  0.76600  0.10110  Biso   1.000  C
  C14      1.0000 0.19845  0.26600  0.10110  Biso   1.000  C
  C15      1.0000 0.30155  0.76600  0.39890  Biso   1.000  C
  C16      1.0000 0.80155  0.26600  0.39890  Biso   1.000  C
  H9       1.0000 0.26890  0.28130  0.82340  Biso   1.000  H
  H10      1.0000 0.76890  0.78130  0.82340  Biso   1.000  H
  H11      1.0000 0.73110  0.28130  0.67660  Biso   1.000  H
  H12      1.0000 0.23110  0.78130  0.67660  Biso   1.000  H
  H13      1.0000 0.73110  0.71870  0.17660  Biso   1.000  H
  H14      1.0000 0.23110  0.21870  0.17660  Biso   1.000  H
  H15      1.0000 0.26890  0.71870  0.32340  Biso   1.000  H
  H16      1.0000 0.76890  0.21870  0.32340  Biso   1.000  H
  C17      1.0000 0.28503  0.22120  0.00300  Biso   1.000  C
  C18      1.0000 0.78503  0.72120  0.00300  Biso   1.000  C
  C19      1.0000 0.71497  0.22120  0.49700  Biso   1.000  C
  C20      1.0000 0.21497  0.72120  0.49700  Biso   1.000  C
  C21      1.0000 0.71497  0.77880  0.99700  Biso   1.000  C
  C22      1.0000 0.21497  0.27880  0.99700  Biso   1.000  C
  C23      1.0000 0.28503  0.77880  0.50300  Biso   1.000  C
  C24      1.0000 0.78503  0.27880  0.50300  Biso   1.000  C
  C25      1.0000 0.33660  0.14950  0.11240  Biso   1.000  C
  C26      1.0000 0.83660  0.64950  0.11240  Biso   1.000  C
  C27      1.0000 0.66340  0.14950  0.38760  Biso   1.000  C
  C28      1.0000 0.16340  0.64950  0.38760  Biso   1.000  C
  C29      1.0000 0.66340  0.85050  0.88760  Biso   1.000  C
  C30      1.0000 0.16340  0.35050  0.88760  Biso   1.000  C
  C31      1.0000 0.33660  0.85050  0.61240  Biso   1.000  C
  C32      1.0000 0.83660  0.35050  0.61240  Biso   1.000  C
  H17      1.0000 0.32900  0.14020  0.18640  Biso   1.000  H
  H18      1.0000 0.82900  0.64020  0.18640  Biso   1.000  H
  H19      1.0000 0.67100  0.14020  0.31360  Biso   1.000  H
  H20      1.0000 0.17100  0.64020  0.31360  Biso   1.000  H
  H21      1.0000 0.67100  0.85980  0.81360  Biso   1.000  H
  H22      1.0000 0.17100  0.35980  0.81360  Biso   1.000  H
  H23      1.0000 0.32900  0.85980  0.68640  Biso   1.000  H
  H24      1.0000 0.82900  0.35980  0.68640  Biso   1.000  H
  C33      1.0000 0.39877  0.09230  0.11170  Biso   1.000  C
  C34      1.0000 0.89877  0.59230  0.11170  Biso   1.000  C
  C35      1.0000 0.60123  0.09230  0.38830  Biso   1.000  C
  C36      1.0000 0.10123  0.59230  0.38830  Biso   1.000  C
  C37      1.0000 0.60123  0.90770  0.88830  Biso   1.000  C
  C38      1.0000 0.10123  0.40770  0.88830  Biso   1.000  C
  C39      1.0000 0.39877  0.90770  0.61170  Biso   1.000  C
  C40      1.0000 0.89877  0.40770  0.61170  Biso   1.000  C
  H25      1.0000 0.43160  0.04240  0.18530  Biso   1.000  H
  H26      1.0000 0.93160  0.54240  0.18530  Biso   1.000  H
  H27      1.0000 0.56840  0.04240  0.31470  Biso   1.000  H
  H28      1.0000 0.06840  0.54240  0.31470  Biso   1.000  H
  H29      1.0000 0.56840  0.95760  0.81470  Biso   1.000  H
  H30      1.0000 0.06840  0.45760  0.81470  Biso   1.000  H
  H31      1.0000 0.43160  0.95760  0.68530  Biso   1.000  H
  H32      1.0000 0.93160  0.45760  0.68530  Biso   1.000  H
  C41      1.0000 0.56725  0.22020  0.96140  Biso   1.000  C
  C42      1.0000 0.06725  0.72020  0.96140  Biso   1.000  C
  C43      1.0000 0.43275  0.22020  0.53860  Biso   1.000  C
  C44      1.0000 0.93275  0.72020  0.53860  Biso   1.000  C
  C45      1.0000 0.43275  0.77980  0.03860  Biso   1.000  C
  C46      1.0000 0.93275  0.27980  0.03860  Biso   1.000  C
  C47      1.0000 0.56725  0.77980  0.46140  Biso   1.000  C
  C48      1.0000 0.06725  0.27980  0.46140  Biso   1.000  C
  C49      1.0000 0.59083  0.32360  0.88820  Biso   1.000  C
  C50      1.0000 0.09083  0.82360  0.88820  Biso   1.000  C
  C51      1.0000 0.40917  0.32360  0.61180  Biso   1.000  C
  C52      1.0000 0.90917  0.82360  0.61180  Biso   1.000  C
  C53      1.0000 0.40917  0.67640  0.11180  Biso   1.000  C
  C54      1.0000 0.90917  0.17640  0.11180  Biso   1.000  C
  C55      1.0000 0.59083  0.67640  0.38820  Biso   1.000  C
  C56      1.0000 0.09083  0.17640  0.38820  Biso   1.000  C
  C57      1.0000 0.54121  0.39480  0.77420  Biso   1.000  C
  C58      1.0000 0.04121  0.89480  0.77420  Biso   1.000  C
  C59      1.0000 0.45879  0.39480  0.72580  Biso   1.000  C
  C60      1.0000 0.95879  0.89480  0.72580  Biso   1.000  C
  C61      1.0000 0.45879  0.60520  0.22580  Biso   1.000  C
  C62      1.0000 0.95879  0.10520  0.22580  Biso   1.000  C
  C63      1.0000 0.54121  0.60520  0.27420  Biso   1.000  C
  C64      1.0000 0.04121  0.10520  0.27420  Biso   1.000  C
  C65      1.0000 0.56949  0.48180  0.71030  Biso   1.000  C
  C66      1.0000 0.06949  0.98180  0.71030  Biso   1.000  C
  C67      1.0000 0.43051  0.48180  0.78970  Biso   1.000  C
  C68      1.0000 0.93051  0.98180  0.78970  Biso   1.000  C
  C69      1.0000 0.43051  0.51820  0.28970  Biso   1.000  C
  C70      1.0000 0.93051  0.01820  0.28970  Biso   1.000  C
  C71      1.0000 0.56949  0.51820  0.21030  Biso   1.000  C
  C72      1.0000 0.06949  0.01820  0.21030  Biso   1.000  C
  H33      1.0000 0.53680  0.53130  0.63630  Biso   1.000  H
  H34      1.0000 0.03680  0.03130  0.63630  Biso   1.000  H
  H35      1.0000 0.46320  0.53130  0.86370  Biso   1.000  H
  H36      1.0000 0.96320  0.03130  0.86370  Biso   1.000  H
  H37      1.0000 0.46320  0.46870  0.36370  Biso   1.000  H
  H38      1.0000 0.96320  0.96870  0.36370  Biso   1.000  H
  H39      1.0000 0.53680  0.46870  0.13630  Biso   1.000  H
  H40      1.0000 0.03680  0.96870  0.13630  Biso   1.000  H
  C73      1.0000 0.64510  0.49660  0.75430  Biso   1.000  C
  C74      1.0000 0.14510  0.99660  0.75430  Biso   1.000  C
  C75      1.0000 0.35490  0.49660  0.74570  Biso   1.000  C
  C76      1.0000 0.85490  0.99660  0.74570  Biso   1.000  C
  C77      1.0000 0.35490  0.50340  0.24570  Biso   1.000  C
  C78      1.0000 0.85490  0.00340  0.24570  Biso   1.000  C
  C79      1.0000 0.64510  0.50340  0.25430  Biso   1.000  C
  C80      1.0000 0.14510  0.00340  0.25430  Biso   1.000  C
  H41      1.0000 0.66310  0.55290  0.70840  Biso   1.000  H
  H42      1.0000 0.16310  0.05290  0.70840  Biso   1.000  H
  H43      1.0000 0.33690  0.55290  0.79160  Biso   1.000  H
  H44      1.0000 0.83690  0.05290  0.79160  Biso   1.000  H
  H45      1.0000 0.33690  0.44710  0.29160  Biso   1.000  H
  H46      1.0000 0.83690  0.94710  0.29160  Biso   1.000  H
  H47      1.0000 0.66310  0.44710  0.20840  Biso   1.000  H
  H48      1.0000 0.16310  0.94710  0.20840  Biso   1.000  H
  C81      1.0000 0.69391  0.42710  0.86660  Biso   1.000  C
  C82      1.0000 0.19391  0.92710  0.86660  Biso   1.000  C
  C83      1.0000 0.30609  0.42710  0.63340  Biso   1.000  C
  C84      1.0000 0.80609  0.92710  0.63340  Biso   1.000  C
  C85      1.0000 0.30609  0.57290  0.13340  Biso   1.000  C
  C86      1.0000 0.80609  0.07290  0.13340  Biso   1.000  C
  C87      1.0000 0.69391  0.57290  0.36660  Biso   1.000  C
  C88      1.0000 0.19391  0.07290  0.36660  Biso   1.000  C
  H49      1.0000 0.74490  0.43610  0.89670  Biso   1.000  H
  H50      1.0000 0.24490  0.93610  0.89670  Biso   1.000  H
  H51      1.0000 0.25510  0.43610  0.60330  Biso   1.000  H
  H52      1.0000 0.75510  0.93610  0.60330  Biso   1.000  H
  H53      1.0000 0.25510  0.56390  0.10330  Biso   1.000  H
  H54      1.0000 0.75510  0.06390  0.10330  Biso   1.000  H
  H55      1.0000 0.74490  0.56390  0.39670  Biso   1.000  H
  H56      1.0000 0.24490  0.06390  0.39670  Biso   1.000  H
  C89      1.0000 0.66662  0.34450  0.93380  Biso   1.000  C
  C90      1.0000 0.16662  0.84450  0.93380  Biso   1.000  C
  C91      1.0000 0.33338  0.34450  0.56620  Biso   1.000  C
  C92      1.0000 0.83338  0.84450  0.56620  Biso   1.000  C
  C93      1.0000 0.33338  0.65550  0.06620  Biso   1.000  C
  C94      1.0000 0.83338  0.15550  0.06620  Biso   1.000  C
  C95      1.0000 0.66662  0.65550  0.43380  Biso   1.000  C
  C96      1.0000 0.16662  0.15550  0.43380  Biso   1.000  C
  H57      1.0000 0.69980  0.30160  0.01170  Biso   1.000  H
  H58      1.0000 0.19980  0.80160  0.01170  Biso   1.000  H
  H59      1.0000 0.30020  0.30160  0.48830  Biso   1.000  H
  H60      1.0000 0.80020  0.80160  0.48830  Biso   1.000  H
  H61      1.0000 0.30020  0.69840  0.98830  Biso   1.000  H
  H62      1.0000 0.80020  0.19840  0.98830  Biso   1.000  H
  H63      1.0000 0.69980  0.69840  0.51170  Biso   1.000  H
  H64      1.0000 0.19980  0.19840  0.51170  Biso   1.000  H
