data_image0
_cell_length_a       10.2116
_cell_length_b       10.7482
_cell_length_c       11.0667
_cell_angle_alpha    108.915
_cell_angle_beta     109.916
_cell_angle_gamma    100.453

_symmetry_space_group_name_H-M    "P 1"
_symmetry_int_tables_number       1

loop_
  _symmetry_equiv_pos_as_xyz
  'x, y, z'

loop_
  _atom_site_label
  _atom_site_occupancy
  _atom_site_fract_x
  _atom_site_fract_y
  _atom_site_fract_z
  _atom_site_thermal_displace_type
  _atom_site_B_iso_or_equiv
  _atom_site_type_symbol
  Cu1      1.0000 0.13930  0.13751  0.25237  Biso   1.000  Cu
  Cu2      1.0000 0.86070  0.86249  0.74763  Biso   1.000  Cu
  V1       1.0000 0.13388  0.46182  0.70865  Biso   1.000  V
  V2       1.0000 0.86612  0.53818  0.29135  Biso   1.000  V
  P1       1.0000 0.70627  0.97906  0.50040  Biso   1.000  P
  P2       1.0000 0.29373  0.02094  0.49960  Biso   1.000  P
  P3       1.0000 0.92256  0.27485  0.36448  Biso   1.000  P
  P4       1.0000 0.07744  0.72515  0.63552  Biso   1.000  P
  O1       1.0000 0.96720  0.17595  0.26447  Biso   1.000  O
  O2       1.0000 0.03280  0.82405  0.73553  Biso   1.000  O
  O3       1.0000 0.05550  0.37427  0.50287  Biso   1.000  O
  O4       1.0000 0.94450  0.62573  0.49713  Biso   1.000  O
  O5       1.0000 0.83730  0.35436  0.29230  Biso   1.000  O
  O6       1.0000 0.16270  0.64564  0.70770  Biso   1.000  O
  O7       1.0000 0.99460  0.42130  0.73960  Biso   1.000  O
  O8       1.0000 0.00540  0.57870  0.26040  Biso   1.000  O
  O9       1.0000 0.76610  0.87161  0.54290  Biso   1.000  O
  O10      1.0000 0.23390  0.12839  0.45710  Biso   1.000  O
  O11      1.0000 0.69590  0.08920  0.62790  Biso   1.000  O
  O12      1.0000 0.30410  0.91080  0.37210  Biso   1.000  O
  H1       1.0000 0.63550  0.05060  0.64870  Biso   1.000  H
  H2       1.0000 0.36450  0.94940  0.35130  Biso   1.000  H
  O13      1.0000 0.55940  0.91550  0.37040  Biso   1.000  O
  O14      1.0000 0.44060  0.08450  0.62960  Biso   1.000  O
  O15      1.0000 0.44600  0.27300  0.87110  Biso   1.000  O
  O16      1.0000 0.55400  0.72700  0.12890  Biso   1.000  O
  O17      1.0000 0.22510  0.30890  0.68920  Biso   1.000  O
  O18      1.0000 0.77490  0.69110  0.31080  Biso   1.000  O
  N1       1.0000 0.03200  0.92800  0.13240  Biso   1.000  N
  N2       1.0000 0.96800  0.07200  0.86760  Biso   1.000  N
  N3       1.0000 0.27080  0.08710  0.16570  Biso   1.000  N
  N4       1.0000 0.72920  0.91290  0.83430  Biso   1.000  N
  N5       1.0000 0.27670  0.33220  0.30520  Biso   1.000  N
  N6       1.0000 0.72330  0.66780  0.69480  Biso   1.000  N
  C1       1.0000 0.90430  0.85380  0.12080  Biso   1.000  C
  C2       1.0000 0.09570  0.14620  0.87920  Biso   1.000  C
  C3       1.0000 0.84770  0.70950  0.04830  Biso   1.000  C
  C4       1.0000 0.15230  0.29050  0.95170  Biso   1.000  C
  C5       1.0000 0.92620  0.64010  0.98650  Biso   1.000  C
  C6       1.0000 0.07380  0.35990  0.01350  Biso   1.000  C
  C7       1.0000 0.05850  0.71660  0.99760  Biso   1.000  C
  C8       1.0000 0.94150  0.28340  0.00240  Biso   1.000  C
  C9       1.0000 0.10770  0.85990  0.07070  Biso   1.000  C
  C10      1.0000 0.89230  0.14010  0.92930  Biso   1.000  C
  C11      1.0000 0.24340  0.95350  0.08530  Biso   1.000  C
  C12      1.0000 0.75660  0.04650  0.91470  Biso   1.000  C
  C13      1.0000 0.33200  0.91510  0.01850  Biso   1.000  C
  C14      1.0000 0.66800  0.08490  0.98150  Biso   1.000  C
  C15      1.0000 0.45110  0.01790  0.03530  Biso   1.000  C
  C16      1.0000 0.54890  0.98210  0.96470  Biso   1.000  C
  C17      1.0000 0.47490  0.15700  0.11730  Biso   1.000  C
  C18      1.0000 0.52510  0.84300  0.88270  Biso   1.000  C
  C19      1.0000 0.38110  0.18790  0.18030  Biso   1.000  C
  C20      1.0000 0.61890  0.81210  0.81970  Biso   1.000  C
  C21      1.0000 0.38340  0.32900  0.25880  Biso   1.000  C
  C22      1.0000 0.61660  0.67100  0.74120  Biso   1.000  C
  C23      1.0000 0.47880  0.44870  0.27470  Biso   1.000  C
  C24      1.0000 0.52120  0.55130  0.72530  Biso   1.000  C
  C25      1.0000 0.46560  0.57660  0.34050  Biso   1.000  C
  C26      1.0000 0.53440  0.42340  0.65950  Biso   1.000  C
  C27      1.0000 0.35680  0.57980  0.38680  Biso   1.000  C
  C28      1.0000 0.64320  0.42020  0.61320  Biso   1.000  C
  C29      1.0000 0.26460  0.45630  0.36890  Biso   1.000  C
  C30      1.0000 0.73540  0.54370  0.63110  Biso   1.000  C
  C31      1.0000 0.84500  0.07890  0.46980  Biso   1.000  C
  C32      1.0000 0.15500  0.92110  0.53020  Biso   1.000  C
  C33      1.0000 0.79160  0.17320  0.39970  Biso   1.000  C
  C34      1.0000 0.20840  0.82680  0.60030  Biso   1.000  C
  F1       1.0000 0.30002  0.55678  0.88977  Biso   1.000  F
  F2       1.0000 0.69998  0.44322  0.11023  Biso   1.000  F
  H3       1.0000 0.85400  0.89700  0.15300  Biso   1.000  H
  H4       1.0000 0.14600  0.10300  0.84700  Biso   1.000  H
  H5       1.0000 0.75000  0.65800  0.03300  Biso   1.000  H
  H6       1.0000 0.25000  0.34200  0.96700  Biso   1.000  H
  H7       1.0000 0.88900  0.53700  0.93300  Biso   1.000  H
  H8       1.0000 0.11100  0.46300  0.06700  Biso   1.000  H
  H9       1.0000 0.10900  0.67900  0.95800  Biso   1.000  H
  H10      1.0000 0.89100  0.32100  0.04200  Biso   1.000  H
  H11      1.0000 0.30700  0.82800  0.96000  Biso   1.000  H
  H12      1.0000 0.69300  0.17200  0.04000  Biso   1.000  H
  H13      1.0000 0.54600  0.22300  0.13000  Biso   1.000  H
  H14      1.0000 0.45400  0.77700  0.87000  Biso   1.000  H
  H15      1.0000 0.55500  0.44800  0.23600  Biso   1.000  H
  H16      1.0000 0.44500  0.55200  0.76400  Biso   1.000  H
  H17      1.0000 0.52700  0.65700  0.35000  Biso   1.000  H
  H18      1.0000 0.47300  0.34300  0.65000  Biso   1.000  H
  H19      1.0000 0.34400  0.65900  0.42300  Biso   1.000  H
  H20      1.0000 0.65600  0.34100  0.57700  Biso   1.000  H
  H21      1.0000 0.19400  0.44700  0.39700  Biso   1.000  H
  H22      1.0000 0.80600  0.55300  0.60300  Biso   1.000  H
  H23      1.0000 0.93000  0.13800  0.56200  Biso   1.000  H
  H24      1.0000 0.07000  0.86200  0.43800  Biso   1.000  H
  H25      1.0000 0.76200  0.24500  0.46300  Biso   1.000  H
  H26      1.0000 0.23800  0.75500  0.53700  Biso   1.000  H
  H27      1.0000 0.87300  0.01800  0.40700  Biso   1.000  H
  H28      1.0000 0.12700  0.98200  0.59300  Biso   1.000  H
  H29      1.0000 0.70100  0.11700  0.30300  Biso   1.000  H
  H30      1.0000 0.29900  0.88300  0.69700  Biso   1.000  H
