data_image0
_cell_length_a       10.0295
_cell_length_b       10.6471
_cell_length_c       10.9134
_cell_angle_alpha    69.552
_cell_angle_beta     83.708
_cell_angle_gamma    64.513

_symmetry_space_group_name_H-M    "P 1"
_symmetry_int_tables_number       1

loop_
  _symmetry_equiv_pos_as_xyz
  'x, y, z'

loop_
  _atom_site_label
  _atom_site_occupancy
  _atom_site_fract_x
  _atom_site_fract_y
  _atom_site_fract_z
  _atom_site_thermal_displace_type
  _atom_site_B_iso_or_equiv
  _atom_site_type_symbol
  Cu1      1.0000 0.33457  0.51893  0.86933  Biso   1.000  Cu
  Cu2      1.0000 0.66543  0.48107  0.13067  Biso   1.000  Cu
  S1       1.0000 0.85326  0.64420  0.69994  Biso   1.000  S
  S2       1.0000 0.14674  0.35580  0.30006  Biso   1.000  S
  O1       1.0000 0.42730  0.64990  0.77320  Biso   1.000  O
  O2       1.0000 0.57270  0.35010  0.22680  Biso   1.000  O
  O3       1.0000 0.62156  0.56889  0.90891  Biso   1.000  O
  O4       1.0000 0.37844  0.43111  0.09109  Biso   1.000  O
  O5       1.0000 0.46638  0.33513  0.53248  Biso   1.000  O
  O6       1.0000 0.53362  0.66487  0.46752  Biso   1.000  O
  O7       1.0000 0.70607  0.20661  0.50759  Biso   1.000  O
  O8       1.0000 0.29393  0.79339  0.49241  Biso   1.000  O
  O9       1.0000 0.20359  0.40877  0.92565  Biso   1.000  O
  O10      1.0000 0.79641  0.59123  0.07435  Biso   1.000  O
  O11      1.0000 0.91826  0.59901  0.83090  Biso   1.000  O
  O12      1.0000 0.08174  0.40099  0.16910  Biso   1.000  O
  O13      1.0000 0.81518  0.53486  0.68247  Biso   1.000  O
  O14      1.0000 0.18482  0.46514  0.31753  Biso   1.000  O
  O15      1.0000 0.94623  0.69169  0.59887  Biso   1.000  O
  O16      1.0000 0.05377  0.30831  0.40113  Biso   1.000  O
  N1       1.0000 0.50791  0.33710  0.85810  Biso   1.000  N
  N2       1.0000 0.49209  0.66290  0.14190  Biso   1.000  N
  N3       1.0000 0.16217  0.70303  0.87873  Biso   1.000  N
  N4       1.0000 0.83783  0.29697  0.12127  Biso   1.000  N
  C1       1.0000 0.61680  0.34640  0.77766  Biso   1.000  C
  C2       1.0000 0.38320  0.65360  0.22234  Biso   1.000  C
  H1       1.0000 0.60330  0.43990  0.71540  Biso   1.000  H
  H2       1.0000 0.39670  0.56010  0.28460  Biso   1.000  H
  C3       1.0000 0.74820  0.22530  0.78174  Biso   1.000  C
  C4       1.0000 0.25180  0.77470  0.21826  Biso   1.000  C
  H3       1.0000 0.82360  0.23630  0.72390  Biso   1.000  H
  H4       1.0000 0.17640  0.76370  0.27610  Biso   1.000  H
  C5       1.0000 0.76910  0.08660  0.87172  Biso   1.000  C
  C6       1.0000 0.23090  0.91340  0.12828  Biso   1.000  C
  C7       1.0000 0.65470  0.07700  0.95310  Biso   1.000  C
  C8       1.0000 0.34530  0.92300  0.04690  Biso   1.000  C
  H5       1.0000 0.66440  0.98450  0.01490  Biso   1.000  H
  H6       1.0000 0.33560  0.01550  0.98510  Biso   1.000  H
  C9       1.0000 0.52720  0.20270  0.94330  Biso   1.000  C
  C10      1.0000 0.47280  0.79730  0.05670  Biso   1.000  C
  H7       1.0000 0.44940  0.19440  0.99880  Biso   1.000  H
  H8       1.0000 0.55060  0.80560  0.00120  Biso   1.000  H
  C11      1.0000 0.90780  0.95530  0.87623  Biso   1.000  C
  C12      1.0000 0.09220  0.04470  0.12377  Biso   1.000  C
  C13      1.0000 0.98340  0.94550  0.76260  Biso   1.000  C
  C14      1.0000 0.01660  0.05450  0.23740  Biso   1.000  C
  H9       1.0000 0.94900  0.02540  0.68240  Biso   1.000  H
  H10      1.0000 0.05100  0.97460  0.31760  Biso   1.000  H
  C15      1.0000 0.10870  0.81900  0.76730  Biso   1.000  C
  C16      1.0000 0.89130  0.18100  0.23270  Biso   1.000  C
  H11      1.0000 0.15900  0.81350  0.68900  Biso   1.000  H
  H12      1.0000 0.84100  0.18650  0.31100  Biso   1.000  H
  C17      1.0000 0.09280  0.71350  0.98910  Biso   1.000  C
  C18      1.0000 0.90720  0.28650  0.01090  Biso   1.000  C
  H13      1.0000 0.13220  0.63350  0.06860  Biso   1.000  H
  H14      1.0000 0.86780  0.36650  0.93140  Biso   1.000  H
  C19      1.0000 0.96570  0.83640  0.99220  Biso   1.000  C
  C20      1.0000 0.03430  0.16360  0.00780  Biso   1.000  C
  H15      1.0000 0.91860  0.83960  0.07220  Biso   1.000  H
  H16      1.0000 0.08140  0.16040  0.92780  Biso   1.000  H
  C21      1.0000 0.68630  0.80570  0.68624  Biso   1.000  C
  C22      1.0000 0.31370  0.19430  0.31376  Biso   1.000  C
  C23      1.0000 0.55330  0.79930  0.73576  Biso   1.000  C
  C24      1.0000 0.44670  0.20070  0.26424  Biso   1.000  C
  C25      1.0000 0.42760  0.93230  0.71865  Biso   1.000  C
  C26      1.0000 0.57240  0.06770  0.28135  Biso   1.000  C
  H17      1.0000 0.33590  0.92970  0.74850  Biso   1.000  H
  H18      1.0000 0.66410  0.07030  0.25150  Biso   1.000  H
  C27      1.0000 0.43420  0.06730  0.65920  Biso   1.000  C
  C28      1.0000 0.56580  0.93270  0.34080  Biso   1.000  C
  H19      1.0000 0.34860  0.15640  0.65140  Biso   1.000  H
  H20      1.0000 0.65140  0.84360  0.34860  Biso   1.000  H
  C29      1.0000 0.56700  0.07200  0.61082  Biso   1.000  C
  C30      1.0000 0.43300  0.92800  0.38918  Biso   1.000  C
  C31      1.0000 0.69140  0.94120  0.62243  Biso   1.000  C
  C32      1.0000 0.30860  0.05880  0.37757  Biso   1.000  C
  H21      1.0000 0.78090  0.94460  0.58630  Biso   1.000  H
  H22      1.0000 0.21910  0.05540  0.41370  Biso   1.000  H
  C33      1.0000 0.53650  0.65890  0.81332  Biso   1.000  C
  C34      1.0000 0.46350  0.34110  0.18668  Biso   1.000  C
  C35      1.0000 0.57230  0.21830  0.54605  Biso   1.000  C
  C36      1.0000 0.42770  0.78170  0.45395  Biso   1.000  C
  H23      1.0000 0.70600  0.29000  0.47000  Biso   1.000  H
  H24      1.0000 0.29400  0.71000  0.53000  Biso   1.000  H
  H25      1.0000 0.18200  0.40000  0.00520  Biso   1.000  H
  H26      1.0000 0.81800  0.60000  0.99480  Biso   1.000  H
  H27      1.0000 0.12000  0.45800  0.89100  Biso   1.000  H
  H28      1.0000 0.88000  0.54200  0.10900  Biso   1.000  H
  O17      1.0000 0.25622  0.55416  0.62637  Biso   1.000  O
  O18      1.0000 0.74378  0.44584  0.37363  Biso   1.000  O
  H29      1.0000 0.16680  0.58100  0.61700  Biso   1.000  H
  H30      1.0000 0.83320  0.41900  0.38300  Biso   1.000  H
  H31      1.0000 0.30200  0.48400  0.60000  Biso   1.000  H
  H32      1.0000 0.69800  0.51600  0.40000  Biso   1.000  H
  O19      1.0000 0.93388  0.73192  0.32537  Biso   1.000  O
  O20      1.0000 0.06612  0.26808  0.67463  Biso   1.000  O
  H33      1.0000 0.92900  0.72100  0.40420  Biso   1.000  H
  H34      1.0000 0.07100  0.27900  0.59580  Biso   1.000  H
  H35      1.0000 0.99900  0.64900  0.33000  Biso   1.000  H
  H36      1.0000 0.00100  0.35100  0.67000  Biso   1.000  H
