data_image0
_cell_length_a       7.2914
_cell_length_b       18.1119
_cell_length_c       12.9448
_cell_angle_alpha    90
_cell_angle_beta     98.365
_cell_angle_gamma    90

_symmetry_space_group_name_H-M    "P 1"
_symmetry_int_tables_number       1

loop_
  _symmetry_equiv_pos_as_xyz
  'x, y, z'

loop_
  _atom_site_label
  _atom_site_occupancy
  _atom_site_fract_x
  _atom_site_fract_y
  _atom_site_fract_z
  _atom_site_thermal_displace_type
  _atom_site_B_iso_or_equiv
  _atom_site_type_symbol
  Cu1      1.0000 0.68674  0.23489  0.56036  Biso   1.000  Cu
  Cu2      1.0000 0.81326  0.73489  0.93964  Biso   1.000  Cu
  Cu3      1.0000 0.31326  0.76511  0.43964  Biso   1.000  Cu
  Cu4      1.0000 0.18674  0.26511  0.06036  Biso   1.000  Cu
  V1       1.0000 0.97014  0.13021  0.75232  Biso   1.000  V
  V2       1.0000 0.52986  0.63021  0.74768  Biso   1.000  V
  V3       1.0000 0.02986  0.86979  0.24768  Biso   1.000  V
  V4       1.0000 0.47014  0.36979  0.25232  Biso   1.000  V
  P1       1.0000 0.57956  0.07903  0.62952  Biso   1.000  P
  P2       1.0000 0.92044  0.57903  0.87048  Biso   1.000  P
  P3       1.0000 0.42044  0.92097  0.37048  Biso   1.000  P
  P4       1.0000 0.07956  0.42097  0.12952  Biso   1.000  P
  O1       1.0000 0.85205  0.20522  0.71191  Biso   1.000  O
  O2       1.0000 0.64795  0.70522  0.78809  Biso   1.000  O
  O3       1.0000 0.14795  0.79478  0.28809  Biso   1.000  O
  O4       1.0000 0.35205  0.29478  0.21191  Biso   1.000  O
  O5       1.0000 0.54314  0.14660  0.56048  Biso   1.000  O
  O6       1.0000 0.95686  0.64660  0.93952  Biso   1.000  O
  O7       1.0000 0.45686  0.85340  0.43952  Biso   1.000  O
  O8       1.0000 0.04314  0.35340  0.06048  Biso   1.000  O
  O9       1.0000 0.78311  0.06227  0.66496  Biso   1.000  O
  O10      1.0000 0.71689  0.56227  0.83504  Biso   1.000  O
  O11      1.0000 0.21689  0.93773  0.33504  Biso   1.000  O
  O12      1.0000 0.28311  0.43773  0.16496  Biso   1.000  O
  O13      1.0000 0.48364  0.08377  0.73013  Biso   1.000  O
  O14      1.0000 0.01636  0.58377  0.76987  Biso   1.000  O
  O15      1.0000 0.51636  0.91623  0.26987  Biso   1.000  O
  O16      1.0000 0.98364  0.41623  0.23013  Biso   1.000  O
  H1       1.0000 0.36830  0.08680  0.71290  Biso   1.000  H
  H2       1.0000 0.13170  0.58680  0.78710  Biso   1.000  H
  H3       1.0000 0.63170  0.91320  0.28710  Biso   1.000  H
  H4       1.0000 0.86830  0.41320  0.21290  Biso   1.000  H
  O17      1.0000 0.91310  0.10563  0.86432  Biso   1.000  O
  O18      1.0000 0.58690  0.60563  0.63568  Biso   1.000  O
  O19      1.0000 0.08690  0.89437  0.13568  Biso   1.000  O
  O20      1.0000 0.41310  0.39437  0.36432  Biso   1.000  O
  F1       1.0000 0.13032  0.06872  0.68556  Biso   1.000  F
  F2       1.0000 0.36968  0.56872  0.81444  Biso   1.000  F
  F3       1.0000 0.86968  0.93128  0.31444  Biso   1.000  F
  F4       1.0000 0.63032  0.43128  0.18556  Biso   1.000  F
  F5       1.0000 0.19061  0.17794  0.79972  Biso   1.000  F
  F6       1.0000 0.30939  0.67794  0.70028  Biso   1.000  F
  F7       1.0000 0.80939  0.82206  0.20028  Biso   1.000  F
  F8       1.0000 0.69061  0.32206  0.29972  Biso   1.000  F
  N1       1.0000 0.50486  0.30241  0.61799  Biso   1.000  N
  N2       1.0000 0.99514  0.80241  0.88201  Biso   1.000  N
  N3       1.0000 0.49514  0.69759  0.38201  Biso   1.000  N
  N4       1.0000 0.00486  0.19759  0.11799  Biso   1.000  N
  N5       1.0000 0.79016  0.32944  0.53263  Biso   1.000  N
  N6       1.0000 0.70984  0.82944  0.96737  Biso   1.000  N
  N7       1.0000 0.20984  0.67056  0.46737  Biso   1.000  N
  N8       1.0000 0.29016  0.17056  0.03263  Biso   1.000  N
  N9       1.0000 0.89502  0.20179  0.48035  Biso   1.000  N
  N10      1.0000 0.60498  0.70179  0.01965  Biso   1.000  N
  N11      1.0000 0.10498  0.79821  0.51965  Biso   1.000  N
  N12      1.0000 0.39502  0.29821  0.98035  Biso   1.000  N
  C1       1.0000 0.35850  0.28127  0.66217  Biso   1.000  C
  C2       1.0000 0.14150  0.78127  0.83783  Biso   1.000  C
  C3       1.0000 0.64150  0.71873  0.33783  Biso   1.000  C
  C4       1.0000 0.85850  0.21873  0.16217  Biso   1.000  C
  H5       1.0000 0.33080  0.23010  0.66510  Biso   1.000  H
  H6       1.0000 0.16920  0.73010  0.83490  Biso   1.000  H
  H7       1.0000 0.66920  0.76990  0.33490  Biso   1.000  H
  H8       1.0000 0.83080  0.26990  0.16510  Biso   1.000  H
  C5       1.0000 0.24520  0.33181  0.70409  Biso   1.000  C
  C6       1.0000 0.25480  0.83181  0.79591  Biso   1.000  C
  C7       1.0000 0.75480  0.66819  0.29591  Biso   1.000  C
  C8       1.0000 0.74520  0.16819  0.20409  Biso   1.000  C
  H9       1.0000 0.14240  0.31550  0.73540  Biso   1.000  H
  H10      1.0000 0.35760  0.81550  0.76460  Biso   1.000  H
  H11      1.0000 0.85760  0.68450  0.26460  Biso   1.000  H
  H12      1.0000 0.64240  0.18450  0.23540  Biso   1.000  H
  C9       1.0000 0.28620  0.40646  0.69904  Biso   1.000  C
  C10      1.0000 0.21380  0.90646  0.80096  Biso   1.000  C
  C11      1.0000 0.71380  0.59354  0.30096  Biso   1.000  C
  C12      1.0000 0.78620  0.09354  0.19904  Biso   1.000  C
  H13      1.0000 0.21070  0.44210  0.72640  Biso   1.000  H
  H14      1.0000 0.28930  0.94210  0.77360  Biso   1.000  H
  H15      1.0000 0.78930  0.55790  0.27360  Biso   1.000  H
  H16      1.0000 0.71070  0.05790  0.22640  Biso   1.000  H
  C13      1.0000 0.43920  0.42869  0.65348  Biso   1.000  C
  C14      1.0000 0.06080  0.92869  0.84652  Biso   1.000  C
  C15      1.0000 0.56080  0.57131  0.34652  Biso   1.000  C
  C16      1.0000 0.93920  0.07131  0.15348  Biso   1.000  C
  H17      1.0000 0.46940  0.47950  0.64940  Biso   1.000  H
  H18      1.0000 0.03060  0.97950  0.85060  Biso   1.000  H
  H19      1.0000 0.53060  0.52050  0.35060  Biso   1.000  H
  H20      1.0000 0.96940  0.02050  0.14940  Biso   1.000  H
  C17      1.0000 0.54620  0.37533  0.61440  Biso   1.000  C
  C18      1.0000 0.95380  0.87533  0.88560  Biso   1.000  C
  C19      1.0000 0.45380  0.62467  0.38560  Biso   1.000  C
  C20      1.0000 0.04620  0.12467  0.11440  Biso   1.000  C
  C21      1.0000 0.71480  0.39083  0.56612  Biso   1.000  C
  C22      1.0000 0.78520  0.89083  0.93388  Biso   1.000  C
  C23      1.0000 0.28520  0.60917  0.43388  Biso   1.000  C
  C24      1.0000 0.21480  0.10917  0.06612  Biso   1.000  C
  C25      1.0000 0.79410  0.45958  0.55496  Biso   1.000  C
  C26      1.0000 0.70590  0.95958  0.94504  Biso   1.000  C
  C27      1.0000 0.20590  0.54042  0.44504  Biso   1.000  C
  C28      1.0000 0.29410  0.04042  0.05496  Biso   1.000  C
  H21      1.0000 0.74180  0.50290  0.58010  Biso   1.000  H
  H22      1.0000 0.75820  0.00290  0.91990  Biso   1.000  H
  H23      1.0000 0.25820  0.49710  0.41990  Biso   1.000  H
  H24      1.0000 0.24180  0.99710  0.08010  Biso   1.000  H
  C29      1.0000 0.95340  0.46383  0.50562  Biso   1.000  C
  C30      1.0000 0.54660  0.96383  0.99438  Biso   1.000  C
  C31      1.0000 0.04660  0.53617  0.49438  Biso   1.000  C
  C32      1.0000 0.45340  0.03617  0.00562  Biso   1.000  C
  C33      1.0000 0.02360  0.39900  0.46762  Biso   1.000  C
  C34      1.0000 0.47640  0.89900  0.03238  Biso   1.000  C
  C35      1.0000 0.97640  0.60100  0.53238  Biso   1.000  C
  C36      1.0000 0.52360  0.10100  0.96762  Biso   1.000  C
  H25      1.0000 0.12820  0.40070  0.43170  Biso   1.000  H
  H26      1.0000 0.37180  0.90070  0.06830  Biso   1.000  H
  H27      1.0000 0.87180  0.59930  0.56830  Biso   1.000  H
  H28      1.0000 0.62820  0.09930  0.93170  Biso   1.000  H
  C37      1.0000 0.93820  0.33215  0.48307  Biso   1.000  C
  C38      1.0000 0.56180  0.83215  0.01693  Biso   1.000  C
  C39      1.0000 0.06180  0.66785  0.51693  Biso   1.000  C
  C40      1.0000 0.43820  0.16785  0.98307  Biso   1.000  C
  C41      1.0000 0.99800  0.25856  0.45200  Biso   1.000  C
  C42      1.0000 0.50200  0.75856  0.04800  Biso   1.000  C
  C43      1.0000 0.00200  0.74144  0.54800  Biso   1.000  C
  C44      1.0000 0.49800  0.24144  0.95200  Biso   1.000  C
  C45      1.0000 0.14940  0.24711  0.40001  Biso   1.000  C
  C46      1.0000 0.35060  0.74711  0.09999  Biso   1.000  C
  C47      1.0000 0.85060  0.75289  0.59999  Biso   1.000  C
  C48      1.0000 0.64940  0.25289  0.90001  Biso   1.000  C
  H29      1.0000 0.21950  0.28760  0.38040  Biso   1.000  H
  H30      1.0000 0.28050  0.78760  0.11960  Biso   1.000  H
  H31      1.0000 0.78050  0.71240  0.61960  Biso   1.000  H
  H32      1.0000 0.71950  0.21240  0.88040  Biso   1.000  H
  C49      1.0000 0.19610  0.17508  0.37736  Biso   1.000  C
  C50      1.0000 0.30390  0.67508  0.12264  Biso   1.000  C
  C51      1.0000 0.80390  0.82492  0.62264  Biso   1.000  C
  C52      1.0000 0.69610  0.32492  0.87736  Biso   1.000  C
  H33      1.0000 0.29880  0.16580  0.34170  Biso   1.000  H
  H34      1.0000 0.20120  0.66580  0.15830  Biso   1.000  H
  H35      1.0000 0.70120  0.83420  0.65830  Biso   1.000  H
  H36      1.0000 0.79880  0.33420  0.84170  Biso   1.000  H
  C53      1.0000 0.09200  0.11674  0.40705  Biso   1.000  C
  C54      1.0000 0.40800  0.61674  0.09295  Biso   1.000  C
  C55      1.0000 0.90800  0.88326  0.59295  Biso   1.000  C
  C56      1.0000 0.59200  0.38326  0.90705  Biso   1.000  C
  H37      1.0000 0.12230  0.06720  0.39240  Biso   1.000  H
  H38      1.0000 0.37770  0.56720  0.10760  Biso   1.000  H
  H39      1.0000 0.87770  0.93280  0.60760  Biso   1.000  H
  H40      1.0000 0.62230  0.43280  0.89240  Biso   1.000  H
  C57      1.0000 0.94240  0.13266  0.45871  Biso   1.000  C
  C58      1.0000 0.55760  0.63266  0.04129  Biso   1.000  C
  C59      1.0000 0.05760  0.86734  0.54129  Biso   1.000  C
  C60      1.0000 0.44240  0.36734  0.95871  Biso   1.000  C
  H41      1.0000 0.87100  0.09290  0.47950  Biso   1.000  H
  H42      1.0000 0.62900  0.59290  0.02050  Biso   1.000  H
  H43      1.0000 0.12900  0.90710  0.52050  Biso   1.000  H
  H44      1.0000 0.37100  0.40710  0.97950  Biso   1.000  H
  C61      1.0000 0.47140  0.00301  0.55467  Biso   1.000  C
  C62      1.0000 0.02860  0.50301  0.94533  Biso   1.000  C
  C63      1.0000 0.52860  0.99699  0.44533  Biso   1.000  C
  C64      1.0000 0.97140  0.49699  0.05467  Biso   1.000  C
  H45      1.0000 0.50450  0.95650  0.59320  Biso   1.000  H
  H46      1.0000 0.99550  0.45650  0.90680  Biso   1.000  H
  H47      1.0000 0.49550  0.04350  0.40680  Biso   1.000  H
  H48      1.0000 0.00450  0.54350  0.09320  Biso   1.000  H
  H49      1.0000 0.33520  0.00880  0.54750  Biso   1.000  H
  H50      1.0000 0.16480  0.50880  0.95250  Biso   1.000  H
  H51      1.0000 0.66480  0.99120  0.45250  Biso   1.000  H
  H52      1.0000 0.83520  0.49120  0.04750  Biso   1.000  H
