data_image0
_cell_length_a       6.0565
_cell_length_b       9.6934
_cell_length_c       15.7351
_cell_angle_alpha    87.544
_cell_angle_beta     80.484
_cell_angle_gamma    76.732

_symmetry_space_group_name_H-M    "P 1"
_symmetry_int_tables_number       1

loop_
  _symmetry_equiv_pos_as_xyz
  'x, y, z'

loop_
  _atom_site_label
  _atom_site_occupancy
  _atom_site_fract_x
  _atom_site_fract_y
  _atom_site_fract_z
  _atom_site_thermal_displace_type
  _atom_site_B_iso_or_equiv
  _atom_site_type_symbol
  Cu1      1.0000 0.21479  0.30694  0.24302  Biso   1.000  Cu
  Cu2      1.0000 0.78521  0.69306  0.75698  Biso   1.000  Cu
  V1       1.0000 0.42179  0.78192  0.26420  Biso   1.000  V
  V2       1.0000 0.57821  0.21808  0.73580  Biso   1.000  V
  P1       1.0000 0.98080  0.65466  0.25666  Biso   1.000  P
  P2       1.0000 0.01920  0.34534  0.74334  Biso   1.000  P
  P3       1.0000 0.29752  0.51883  0.37545  Biso   1.000  P
  P4       1.0000 0.70248  0.48117  0.62455  Biso   1.000  P
  F1       1.0000 0.45130  0.89638  0.16616  Biso   1.000  F
  F2       1.0000 0.54870  0.10362  0.83384  Biso   1.000  F
  O1       1.0000 0.32730  0.37525  0.33567  Biso   1.000  O
  O2       1.0000 0.67270  0.62475  0.66433  Biso   1.000  O
  O3       1.0000 0.00580  0.51580  0.21152  Biso   1.000  O
  O4       1.0000 0.99420  0.48420  0.78848  Biso   1.000  O
  O5       1.0000 0.32070  0.50660  0.47098  Biso   1.000  O
  O6       1.0000 0.67930  0.49340  0.52902  Biso   1.000  O
  O7       1.0000 0.46790  0.60101  0.32560  Biso   1.000  O
  O8       1.0000 0.53210  0.39899  0.67440  Biso   1.000  O
  O9       1.0000 0.17360  0.72920  0.21855  Biso   1.000  O
  O10      1.0000 0.82640  0.27080  0.78145  Biso   1.000  O
  O11      1.0000 0.75110  0.75810  0.25169  Biso   1.000  O
  O12      1.0000 0.24890  0.24190  0.74831  Biso   1.000  O
  O13      1.0000 0.30640  0.89220  0.33925  Biso   1.000  O
  O14      1.0000 0.69360  0.10780  0.66075  Biso   1.000  O
  N1       1.0000 0.97980  0.21510  0.31669  Biso   1.000  N
  N2       1.0000 0.02020  0.78490  0.68331  Biso   1.000  N
  N3       1.0000 0.14950  0.19010  0.15762  Biso   1.000  N
  N4       1.0000 0.85050  0.80990  0.84238  Biso   1.000  N
  N5       1.0000 0.46220  0.32870  0.14187  Biso   1.000  N
  N6       1.0000 0.53780  0.67130  0.85813  Biso   1.000  N
  C1       1.0000 0.90480  0.23210  0.40120  Biso   1.000  C
  C2       1.0000 0.09520  0.76790  0.59880  Biso   1.000  C
  C3       1.0000 0.73170  0.17150  0.44478  Biso   1.000  C
  C4       1.0000 0.26830  0.82850  0.55522  Biso   1.000  C
  C5       1.0000 0.63090  0.09250  0.39817  Biso   1.000  C
  C6       1.0000 0.36910  0.90750  0.60183  Biso   1.000  C
  C7       1.0000 0.70700  0.07370  0.31045  Biso   1.000  C
  C8       1.0000 0.29300  0.92630  0.68955  Biso   1.000  C
  C9       1.0000 0.88280  0.13460  0.27173  Biso   1.000  C
  C10      1.0000 0.11720  0.86540  0.72827  Biso   1.000  C
  C11      1.0000 0.98430  0.11870  0.18022  Biso   1.000  C
  C12      1.0000 0.01570  0.88130  0.81978  Biso   1.000  C
  C13      1.0000 0.92320  0.04010  0.11949  Biso   1.000  C
  C14      1.0000 0.07680  0.95990  0.88051  Biso   1.000  C
  C15      1.0000 0.03560  0.03790  0.03380  Biso   1.000  C
  C16      1.0000 0.96440  0.96210  0.96620  Biso   1.000  C
  C17      1.0000 0.21360  0.10960  0.01331  Biso   1.000  C
  C18      1.0000 0.78640  0.89040  0.98669  Biso   1.000  C
  C19      1.0000 0.26620  0.18520  0.07760  Biso   1.000  C
  C20      1.0000 0.73380  0.81480  0.92240  Biso   1.000  C
  C21      1.0000 0.44590  0.26760  0.06800  Biso   1.000  C
  C22      1.0000 0.55410  0.73240  0.93200  Biso   1.000  C
  C23      1.0000 0.58720  0.28370  0.99100  Biso   1.000  C
  C24      1.0000 0.41280  0.71630  0.00900  Biso   1.000  C
  C25      1.0000 0.74900  0.36470  0.99041  Biso   1.000  C
  C26      1.0000 0.25100  0.63530  0.00959  Biso   1.000  C
  C27      1.0000 0.76640  0.42550  0.06633  Biso   1.000  C
  C28      1.0000 0.23360  0.57450  0.93367  Biso   1.000  C
  C29      1.0000 0.61990  0.40520  0.14089  Biso   1.000  C
  C30      1.0000 0.38010  0.59480  0.85911  Biso   1.000  C
  C31      1.0000 0.01340  0.62220  0.36807  Biso   1.000  C
  C32      1.0000 0.98660  0.37780  0.63193  Biso   1.000  C
  H1       1.0000 0.97300  0.28600  0.42900  Biso   1.000  H
  H2       1.0000 0.02700  0.71400  0.57100  Biso   1.000  H
  H3       1.0000 0.67900  0.19100  0.50600  Biso   1.000  H
  H4       1.0000 0.32100  0.80900  0.49400  Biso   1.000  H
  H5       1.0000 0.51400  0.05100  0.42600  Biso   1.000  H
  H6       1.0000 0.48600  0.94900  0.57400  Biso   1.000  H
  H7       1.0000 0.65200  0.02500  0.28200  Biso   1.000  H
  H8       1.0000 0.34800  0.97500  0.71800  Biso   1.000  H
  H9       1.0000 0.81900  0.99500  0.13700  Biso   1.000  H
  H10      1.0000 0.18100  0.00500  0.86300  Biso   1.000  H
  H11      1.0000 0.29500  0.11200  0.95900  Biso   1.000  H
  H12      1.0000 0.70500  0.88800  0.04100  Biso   1.000  H
  H13      1.0000 0.57500  0.24600  0.94000  Biso   1.000  H
  H14      1.0000 0.42500  0.75400  0.06000  Biso   1.000  H
  H15      1.0000 0.84900  0.37900  0.94000  Biso   1.000  H
  H16      1.0000 0.15100  0.62100  0.06000  Biso   1.000  H
  H17      1.0000 0.86200  0.47500  0.07000  Biso   1.000  H
  H18      1.0000 0.13800  0.52500  0.93000  Biso   1.000  H
  H19      1.0000 0.63200  0.44100  0.19500  Biso   1.000  H
  H20      1.0000 0.36800  0.55900  0.80500  Biso   1.000  H
  H21      1.0000 0.91100  0.57900  0.39200  Biso   1.000  H
  H22      1.0000 0.08900  0.42100  0.60800  Biso   1.000  H
  H23      1.0000 0.99200  0.70400  0.39700  Biso   1.000  H
  H24      1.0000 0.00800  0.29600  0.60300  Biso   1.000  H
