data_image0
_cell_length_a       23.4642
_cell_length_b       14.3545
_cell_length_c       17.1194
_cell_angle_alpha    90
_cell_angle_beta     127.5
_cell_angle_gamma    90

_symmetry_space_group_name_H-M    "P 1"
_symmetry_int_tables_number       1

loop_
  _symmetry_equiv_pos_as_xyz
  'x, y, z'

loop_
  _atom_site_label
  _atom_site_occupancy
  _atom_site_fract_x
  _atom_site_fract_y
  _atom_site_fract_z
  _atom_site_thermal_displace_type
  _atom_site_B_iso_or_equiv
  _atom_site_type_symbol
  Cu1      1.0000 0.29694  0.37070  0.35324  Biso   1.000  Cu
  Cu2      1.0000 0.79694  0.87070  0.35324  Biso   1.000  Cu
  Cu3      1.0000 0.70306  0.37070  0.14676  Biso   1.000  Cu
  Cu4      1.0000 0.20306  0.87070  0.14676  Biso   1.000  Cu
  Cu5      1.0000 0.70306  0.62930  0.64676  Biso   1.000  Cu
  Cu6      1.0000 0.20306  0.12930  0.64676  Biso   1.000  Cu
  Cu7      1.0000 0.29694  0.62930  0.85324  Biso   1.000  Cu
  Cu8      1.0000 0.79694  0.12930  0.85324  Biso   1.000  Cu
  V1       1.0000 0.27865  0.61890  0.30749  Biso   1.000  V
  V2       1.0000 0.77865  0.11890  0.30749  Biso   1.000  V
  V3       1.0000 0.72135  0.61890  0.19251  Biso   1.000  V
  V4       1.0000 0.22135  0.11890  0.19251  Biso   1.000  V
  V5       1.0000 0.72135  0.38110  0.69251  Biso   1.000  V
  V6       1.0000 0.22135  0.88110  0.69251  Biso   1.000  V
  V7       1.0000 0.27865  0.38110  0.80749  Biso   1.000  V
  V8       1.0000 0.77865  0.88110  0.80749  Biso   1.000  V
  V9       1.0000 0.02581  0.59162  0.56687  Biso   1.000  V
  V10      1.0000 0.52581  0.09162  0.56687  Biso   1.000  V
  V11      1.0000 0.97419  0.59162  0.93313  Biso   1.000  V
  V12      1.0000 0.47419  0.09162  0.93313  Biso   1.000  V
  V13      1.0000 0.97419  0.40838  0.43313  Biso   1.000  V
  V14      1.0000 0.47419  0.90838  0.43313  Biso   1.000  V
  V15      1.0000 0.02581  0.40838  0.06687  Biso   1.000  V
  V16      1.0000 0.52581  0.90838  0.06687  Biso   1.000  V
  P1       1.0000 0.17491  0.32159  0.11418  Biso   1.000  P
  P2       1.0000 0.67491  0.82159  0.11418  Biso   1.000  P
  P3       1.0000 0.82509  0.32159  0.38582  Biso   1.000  P
  P4       1.0000 0.32509  0.82159  0.38582  Biso   1.000  P
  P5       1.0000 0.82509  0.67841  0.88582  Biso   1.000  P
  P6       1.0000 0.32509  0.17841  0.88582  Biso   1.000  P
  P7       1.0000 0.17491  0.67841  0.61418  Biso   1.000  P
  P8       1.0000 0.67491  0.17841  0.61418  Biso   1.000  P
  P9       1.0000 0.10665  0.39816  0.66298  Biso   1.000  P
  P10      1.0000 0.60665  0.89816  0.66298  Biso   1.000  P
  P11      1.0000 0.89335  0.39816  0.83702  Biso   1.000  P
  P12      1.0000 0.39335  0.89816  0.83702  Biso   1.000  P
  P13      1.0000 0.89335  0.60184  0.33702  Biso   1.000  P
  P14      1.0000 0.39335  0.10184  0.33702  Biso   1.000  P
  P15      1.0000 0.10665  0.60184  0.16298  Biso   1.000  P
  P16      1.0000 0.60665  0.10184  0.16298  Biso   1.000  P
  F1       1.0000 0.96097  0.48735  0.52819  Biso   1.000  F
  F2       1.0000 0.46097  0.98735  0.52819  Biso   1.000  F
  F3       1.0000 0.03903  0.48735  0.97181  Biso   1.000  F
  F4       1.0000 0.53903  0.98735  0.97181  Biso   1.000  F
  F5       1.0000 0.03903  0.51265  0.47181  Biso   1.000  F
  F6       1.0000 0.53903  0.01265  0.47181  Biso   1.000  F
  F7       1.0000 0.96097  0.51265  0.02819  Biso   1.000  F
  F8       1.0000 0.46097  0.01265  0.02819  Biso   1.000  F
  O1       1.0000 0.23252  0.36176  0.21457  Biso   1.000  O
  O2       1.0000 0.73252  0.86176  0.21457  Biso   1.000  O
  O3       1.0000 0.76748  0.36176  0.28543  Biso   1.000  O
  O4       1.0000 0.26748  0.86176  0.28543  Biso   1.000  O
  O5       1.0000 0.76748  0.63824  0.78543  Biso   1.000  O
  O6       1.0000 0.26748  0.13824  0.78543  Biso   1.000  O
  O7       1.0000 0.23252  0.63824  0.71457  Biso   1.000  O
  O8       1.0000 0.73252  0.13824  0.71457  Biso   1.000  O
  O9       1.0000 0.29225  0.52515  0.36982  Biso   1.000  O
  O10      1.0000 0.79225  0.02515  0.36982  Biso   1.000  O
  O11      1.0000 0.70775  0.52515  0.13018  Biso   1.000  O
  O12      1.0000 0.20775  0.02515  0.13018  Biso   1.000  O
  O13      1.0000 0.70775  0.47485  0.63018  Biso   1.000  O
  O14      1.0000 0.20775  0.97485  0.63018  Biso   1.000  O
  O15      1.0000 0.29225  0.47485  0.86982  Biso   1.000  O
  O16      1.0000 0.79225  0.97485  0.86982  Biso   1.000  O
  O17      1.0000 0.19434  0.21791  0.10899  Biso   1.000  O
  O18      1.0000 0.69434  0.71791  0.10899  Biso   1.000  O
  O19      1.0000 0.80566  0.21791  0.39101  Biso   1.000  O
  O20      1.0000 0.30566  0.71791  0.39101  Biso   1.000  O
  O21      1.0000 0.80566  0.78209  0.89101  Biso   1.000  O
  O22      1.0000 0.30566  0.28209  0.89101  Biso   1.000  O
  O23      1.0000 0.19434  0.78209  0.60899  Biso   1.000  O
  O24      1.0000 0.69434  0.28209  0.60899  Biso   1.000  O
  O25      1.0000 0.32861  0.61556  0.27158  Biso   1.000  O
  O26      1.0000 0.82861  0.11556  0.27158  Biso   1.000  O
  O27      1.0000 0.67139  0.61556  0.22842  Biso   1.000  O
  O28      1.0000 0.17139  0.11556  0.22842  Biso   1.000  O
  O29      1.0000 0.67139  0.38444  0.72842  Biso   1.000  O
  O30      1.0000 0.17139  0.88444  0.72842  Biso   1.000  O
  O31      1.0000 0.32861  0.38444  0.77158  Biso   1.000  O
  O32      1.0000 0.82861  0.88444  0.77158  Biso   1.000  O
  O33      1.0000 0.18421  0.36715  0.70087  Biso   1.000  O
  O34      1.0000 0.68421  0.86715  0.70087  Biso   1.000  O
  O35      1.0000 0.81579  0.36715  0.79913  Biso   1.000  O
  O36      1.0000 0.31579  0.86715  0.79913  Biso   1.000  O
  O37      1.0000 0.81579  0.63285  0.29913  Biso   1.000  O
  O38      1.0000 0.31579  0.13285  0.29913  Biso   1.000  O
  O39      1.0000 0.18421  0.63285  0.20087  Biso   1.000  O
  O40      1.0000 0.68421  0.13285  0.20087  Biso   1.000  O
  O41      1.0000 0.10402  0.50334  0.66574  Biso   1.000  O
  O42      1.0000 0.60402  0.00334  0.66574  Biso   1.000  O
  O43      1.0000 0.89598  0.50334  0.83426  Biso   1.000  O
  O44      1.0000 0.39598  0.00334  0.83426  Biso   1.000  O
  O45      1.0000 0.89598  0.49666  0.33426  Biso   1.000  O
  O46      1.0000 0.39598  0.99666  0.33426  Biso   1.000  O
  O47      1.0000 0.10402  0.49666  0.16574  Biso   1.000  O
  O48      1.0000 0.60402  0.99666  0.16574  Biso   1.000  O
  O49      1.0000 0.09948  0.32204  0.08317  Biso   1.000  O
  O50      1.0000 0.59948  0.82204  0.08317  Biso   1.000  O
  O51      1.0000 0.90052  0.32204  0.41683  Biso   1.000  O
  O52      1.0000 0.40052  0.82204  0.41683  Biso   1.000  O
  O53      1.0000 0.90052  0.67796  0.91683  Biso   1.000  O
  O54      1.0000 0.40052  0.17796  0.91683  Biso   1.000  O
  O55      1.0000 0.09948  0.67796  0.58317  Biso   1.000  O
  O56      1.0000 0.59948  0.17796  0.58317  Biso   1.000  O
  O57      1.0000 0.01247  0.64772  0.63540  Biso   1.000  O
  O58      1.0000 0.51247  0.14772  0.63540  Biso   1.000  O
  O59      1.0000 0.98753  0.64772  0.86460  Biso   1.000  O
  O60      1.0000 0.48753  0.14772  0.86460  Biso   1.000  O
  O61      1.0000 0.98753  0.35228  0.36460  Biso   1.000  O
  O62      1.0000 0.48753  0.85228  0.36460  Biso   1.000  O
  O63      1.0000 0.01247  0.35228  0.13540  Biso   1.000  O
  O64      1.0000 0.51247  0.85228  0.13540  Biso   1.000  O
  O65      1.0000 0.05377  0.35079  0.56445  Biso   1.000  O
  O66      1.0000 0.55377  0.85079  0.56445  Biso   1.000  O
  O67      1.0000 0.94623  0.35079  0.93555  Biso   1.000  O
  O68      1.0000 0.44623  0.85079  0.93555  Biso   1.000  O
  O69      1.0000 0.94623  0.64921  0.43555  Biso   1.000  O
  O70      1.0000 0.44623  0.14921  0.43555  Biso   1.000  O
  O71      1.0000 0.05377  0.64921  0.06445  Biso   1.000  O
  O72      1.0000 0.55377  0.14921  0.06445  Biso   1.000  O
  N1       1.0000 0.23409  0.35572  0.39492  Biso   1.000  N
  N2       1.0000 0.73409  0.85572  0.39492  Biso   1.000  N
  N3       1.0000 0.76591  0.35572  0.10508  Biso   1.000  N
  N4       1.0000 0.26591  0.85572  0.10508  Biso   1.000  N
  N5       1.0000 0.76591  0.64428  0.60508  Biso   1.000  N
  N6       1.0000 0.26591  0.14428  0.60508  Biso   1.000  N
  N7       1.0000 0.23409  0.64428  0.89492  Biso   1.000  N
  N8       1.0000 0.73409  0.14428  0.89492  Biso   1.000  N
  N9       1.0000 0.36962  0.36238  0.49470  Biso   1.000  N
  N10      1.0000 0.86962  0.86238  0.49470  Biso   1.000  N
  N11      1.0000 0.63038  0.36238  0.00530  Biso   1.000  N
  N12      1.0000 0.13038  0.86238  0.00530  Biso   1.000  N
  N13      1.0000 0.63038  0.63762  0.50530  Biso   1.000  N
  N14      1.0000 0.13038  0.13762  0.50530  Biso   1.000  N
  N15      1.0000 0.36962  0.63762  0.99470  Biso   1.000  N
  N16      1.0000 0.86962  0.13762  0.99470  Biso   1.000  N
  N17      1.0000 0.38723  0.37940  0.36370  Biso   1.000  N
  N18      1.0000 0.88723  0.87940  0.36370  Biso   1.000  N
  N19      1.0000 0.61277  0.37940  0.13630  Biso   1.000  N
  N20      1.0000 0.11277  0.87940  0.13630  Biso   1.000  N
  N21      1.0000 0.61277  0.62060  0.63630  Biso   1.000  N
  N22      1.0000 0.11277  0.12060  0.63630  Biso   1.000  N
  N23      1.0000 0.38723  0.62060  0.86370  Biso   1.000  N
  N24      1.0000 0.88723  0.12060  0.86370  Biso   1.000  N
  C1       1.0000 0.16259  0.35100  0.33540  Biso   1.000  C
  C2       1.0000 0.66259  0.85100  0.33540  Biso   1.000  C
  C3       1.0000 0.83741  0.35100  0.16460  Biso   1.000  C
  C4       1.0000 0.33741  0.85100  0.16460  Biso   1.000  C
  C5       1.0000 0.83741  0.64900  0.66460  Biso   1.000  C
  C6       1.0000 0.33741  0.14900  0.66460  Biso   1.000  C
  C7       1.0000 0.16259  0.64900  0.83540  Biso   1.000  C
  C8       1.0000 0.66259  0.14900  0.83540  Biso   1.000  C
  H1       1.0000 0.13860  0.34340  0.26810  Biso   1.000  H
  H2       1.0000 0.63860  0.84340  0.26810  Biso   1.000  H
  H3       1.0000 0.86140  0.34340  0.23190  Biso   1.000  H
  H4       1.0000 0.36140  0.84340  0.23190  Biso   1.000  H
  H5       1.0000 0.86140  0.65660  0.73190  Biso   1.000  H
  H6       1.0000 0.36140  0.15660  0.73190  Biso   1.000  H
  H7       1.0000 0.13860  0.65660  0.76810  Biso   1.000  H
  H8       1.0000 0.63860  0.15660  0.76810  Biso   1.000  H
  C9       1.0000 0.12258  0.35700  0.37090  Biso   1.000  C
  C10      1.0000 0.62258  0.85700  0.37090  Biso   1.000  C
  C11      1.0000 0.87742  0.35700  0.12910  Biso   1.000  C
  C12      1.0000 0.37742  0.85700  0.12910  Biso   1.000  C
  C13      1.0000 0.87742  0.64300  0.62910  Biso   1.000  C
  C14      1.0000 0.37742  0.14300  0.62910  Biso   1.000  C
  C15      1.0000 0.12258  0.64300  0.87090  Biso   1.000  C
  C16      1.0000 0.62258  0.14300  0.87090  Biso   1.000  C
  H9       1.0000 0.07270  0.35490  0.32780  Biso   1.000  H
  H10      1.0000 0.57270  0.85490  0.32780  Biso   1.000  H
  H11      1.0000 0.92730  0.35490  0.17220  Biso   1.000  H
  H12      1.0000 0.42730  0.85490  0.17220  Biso   1.000  H
  H13      1.0000 0.92730  0.64510  0.67220  Biso   1.000  H
  H14      1.0000 0.42730  0.14510  0.67220  Biso   1.000  H
  H15      1.0000 0.07270  0.64510  0.82780  Biso   1.000  H
  H16      1.0000 0.57270  0.14510  0.82780  Biso   1.000  H
  C17      1.0000 0.15843  0.36630  0.47140  Biso   1.000  C
  C18      1.0000 0.65843  0.86630  0.47140  Biso   1.000  C
  C19      1.0000 0.84157  0.36630  0.02860  Biso   1.000  C
  C20      1.0000 0.34157  0.86630  0.02860  Biso   1.000  C
  C21      1.0000 0.84157  0.63370  0.52860  Biso   1.000  C
  C22      1.0000 0.34157  0.13370  0.52860  Biso   1.000  C
  C23      1.0000 0.15843  0.63370  0.97140  Biso   1.000  C
  C24      1.0000 0.65843  0.13370  0.97140  Biso   1.000  C
  H17      1.0000 0.13300  0.36980  0.49680  Biso   1.000  H
  H18      1.0000 0.63300  0.86980  0.49680  Biso   1.000  H
  H19      1.0000 0.86700  0.36980  0.00320  Biso   1.000  H
  H20      1.0000 0.36700  0.86980  0.00320  Biso   1.000  H
  H21      1.0000 0.86700  0.63020  0.50320  Biso   1.000  H
  H22      1.0000 0.36700  0.13020  0.50320  Biso   1.000  H
  H23      1.0000 0.13300  0.63020  0.99680  Biso   1.000  H
  H24      1.0000 0.63300  0.13020  0.99680  Biso   1.000  H
  C25      1.0000 0.23368  0.37020  0.53400  Biso   1.000  C
  C26      1.0000 0.73368  0.87020  0.53400  Biso   1.000  C
  C27      1.0000 0.76632  0.37020  0.96600  Biso   1.000  C
  C28      1.0000 0.26632  0.87020  0.96600  Biso   1.000  C
  C29      1.0000 0.76632  0.62980  0.46600  Biso   1.000  C
  C30      1.0000 0.26632  0.12980  0.46600  Biso   1.000  C
  C31      1.0000 0.23368  0.62980  0.03400  Biso   1.000  C
  C32      1.0000 0.73368  0.12980  0.03400  Biso   1.000  C
  H25      1.0000 0.25900  0.37640  0.60170  Biso   1.000  H
  H26      1.0000 0.75900  0.87640  0.60170  Biso   1.000  H
  H27      1.0000 0.74100  0.37640  0.89830  Biso   1.000  H
  H28      1.0000 0.24100  0.87640  0.89830  Biso   1.000  H
  H29      1.0000 0.74100  0.62360  0.39830  Biso   1.000  H
  H30      1.0000 0.24100  0.12360  0.39830  Biso   1.000  H
  H31      1.0000 0.25900  0.62360  0.10170  Biso   1.000  H
  H32      1.0000 0.75900  0.12360  0.10170  Biso   1.000  H
  C33      1.0000 0.26928  0.36500  0.49410  Biso   1.000  C
  C34      1.0000 0.76928  0.86500  0.49410  Biso   1.000  C
  C35      1.0000 0.73072  0.36500  0.00590  Biso   1.000  C
  C36      1.0000 0.23072  0.86500  0.00590  Biso   1.000  C
  C37      1.0000 0.73072  0.63500  0.50590  Biso   1.000  C
  C38      1.0000 0.23072  0.13500  0.50590  Biso   1.000  C
  C39      1.0000 0.26928  0.63500  0.99410  Biso   1.000  C
  C40      1.0000 0.76928  0.13500  0.99410  Biso   1.000  C
  C41      1.0000 0.34862  0.36620  0.55170  Biso   1.000  C
  C42      1.0000 0.84862  0.86620  0.55170  Biso   1.000  C
  C43      1.0000 0.65138  0.36620  0.94830  Biso   1.000  C
  C44      1.0000 0.15138  0.86620  0.94830  Biso   1.000  C
  C45      1.0000 0.65138  0.63380  0.44830  Biso   1.000  C
  C46      1.0000 0.15138  0.13380  0.44830  Biso   1.000  C
  C47      1.0000 0.34862  0.63380  0.05170  Biso   1.000  C
  C48      1.0000 0.84862  0.13380  0.05170  Biso   1.000  C
  C49      1.0000 0.39897  0.36920  0.65290  Biso   1.000  C
  C50      1.0000 0.89897  0.86920  0.65290  Biso   1.000  C
  C51      1.0000 0.60103  0.36920  0.84710  Biso   1.000  C
  C52      1.0000 0.10103  0.86920  0.84710  Biso   1.000  C
  C53      1.0000 0.60103  0.63080  0.34710  Biso   1.000  C
  C54      1.0000 0.10103  0.13080  0.34710  Biso   1.000  C
  C55      1.0000 0.39897  0.63080  0.15290  Biso   1.000  C
  C56      1.0000 0.89897  0.13080  0.15290  Biso   1.000  C
  H33      1.0000 0.38440  0.37450  0.69260  Biso   1.000  H
  H34      1.0000 0.88440  0.87450  0.69260  Biso   1.000  H
  H35      1.0000 0.61560  0.37450  0.80740  Biso   1.000  H
  H36      1.0000 0.11560  0.87450  0.80740  Biso   1.000  H
  H37      1.0000 0.61560  0.62550  0.30740  Biso   1.000  H
  H38      1.0000 0.11560  0.12550  0.30740  Biso   1.000  H
  H39      1.0000 0.38440  0.62550  0.19260  Biso   1.000  H
  H40      1.0000 0.88440  0.12550  0.19260  Biso   1.000  H
  C57      1.0000 0.47257  0.36390  0.69560  Biso   1.000  C
  C58      1.0000 0.97257  0.86390  0.69560  Biso   1.000  C
  C59      1.0000 0.52743  0.36390  0.80440  Biso   1.000  C
  C60      1.0000 0.02743  0.86390  0.80440  Biso   1.000  C
  C61      1.0000 0.52743  0.63610  0.30440  Biso   1.000  C
  C62      1.0000 0.02743  0.13610  0.30440  Biso   1.000  C
  C63      1.0000 0.47257  0.63610  0.19560  Biso   1.000  C
  C64      1.0000 0.97257  0.13610  0.19560  Biso   1.000  C
  C65      1.0000 0.49189  0.35890  0.63310  Biso   1.000  C
  C66      1.0000 0.99189  0.85890  0.63310  Biso   1.000  C
  C67      1.0000 0.50811  0.35890  0.86690  Biso   1.000  C
  C68      1.0000 0.00811  0.85890  0.86690  Biso   1.000  C
  C69      1.0000 0.50811  0.64110  0.36690  Biso   1.000  C
  C70      1.0000 0.00811  0.14110  0.36690  Biso   1.000  C
  C71      1.0000 0.49189  0.64110  0.13310  Biso   1.000  C
  C72      1.0000 0.99189  0.14110  0.13310  Biso   1.000  C
  H41      1.0000 0.54000  0.35410  0.65900  Biso   1.000  H
  H42      1.0000 0.04000  0.85410  0.65900  Biso   1.000  H
  H43      1.0000 0.46000  0.35410  0.84100  Biso   1.000  H
  H44      1.0000 0.96000  0.85410  0.84100  Biso   1.000  H
  H45      1.0000 0.46000  0.64590  0.34100  Biso   1.000  H
  H46      1.0000 0.96000  0.14590  0.34100  Biso   1.000  H
  H47      1.0000 0.54000  0.64590  0.15900  Biso   1.000  H
  H48      1.0000 0.04000  0.14590  0.15900  Biso   1.000  H
  C73      1.0000 0.43896  0.36120  0.53220  Biso   1.000  C
  C74      1.0000 0.93896  0.86120  0.53220  Biso   1.000  C
  C75      1.0000 0.56104  0.36120  0.96780  Biso   1.000  C
  C76      1.0000 0.06104  0.86120  0.96780  Biso   1.000  C
  C77      1.0000 0.56104  0.63880  0.46780  Biso   1.000  C
  C78      1.0000 0.06104  0.13880  0.46780  Biso   1.000  C
  C79      1.0000 0.43896  0.63880  0.03220  Biso   1.000  C
  C80      1.0000 0.93896  0.13880  0.03220  Biso   1.000  C
  C81      1.0000 0.44950  0.36930  0.45620  Biso   1.000  C
  C82      1.0000 0.94950  0.86930  0.45620  Biso   1.000  C
  C83      1.0000 0.55050  0.36930  0.04380  Biso   1.000  C
  C84      1.0000 0.05050  0.86930  0.04380  Biso   1.000  C
  C85      1.0000 0.55050  0.63070  0.54380  Biso   1.000  C
  C86      1.0000 0.05050  0.13070  0.54380  Biso   1.000  C
  C87      1.0000 0.44950  0.63070  0.95620  Biso   1.000  C
  C88      1.0000 0.94950  0.13070  0.95620  Biso   1.000  C
  C89      1.0000 0.51533  0.37280  0.47470  Biso   1.000  C
  C90      1.0000 0.01533  0.87280  0.47470  Biso   1.000  C
  C91      1.0000 0.48467  0.37280  0.02530  Biso   1.000  C
  C92      1.0000 0.98467  0.87280  0.02530  Biso   1.000  C
  C93      1.0000 0.48467  0.62720  0.52530  Biso   1.000  C
  C94      1.0000 0.98467  0.12720  0.52530  Biso   1.000  C
  C95      1.0000 0.51533  0.62720  0.97470  Biso   1.000  C
  C96      1.0000 0.01533  0.12720  0.97470  Biso   1.000  C
  H49      1.0000 0.55730  0.36310  0.53800  Biso   1.000  H
  H50      1.0000 0.05730  0.86310  0.53800  Biso   1.000  H
  H51      1.0000 0.44270  0.36310  0.96200  Biso   1.000  H
  H52      1.0000 0.94270  0.86310  0.96200  Biso   1.000  H
  H53      1.0000 0.44270  0.63690  0.46200  Biso   1.000  H
  H54      1.0000 0.94270  0.13690  0.46200  Biso   1.000  H
  H55      1.0000 0.55730  0.63690  0.03800  Biso   1.000  H
  H56      1.0000 0.05730  0.13690  0.03800  Biso   1.000  H
  C97      1.0000 0.51820  0.39070  0.39760  Biso   1.000  C
  C98      1.0000 0.01820  0.89070  0.39760  Biso   1.000  C
  C99      1.0000 0.48180  0.39070  0.10240  Biso   1.000  C
  C100     1.0000 0.98180  0.89070  0.10240  Biso   1.000  C
  C101     1.0000 0.48180  0.60930  0.60240  Biso   1.000  C
  C102     1.0000 0.98180  0.10930  0.60240  Biso   1.000  C
  C103     1.0000 0.51820  0.60930  0.89760  Biso   1.000  C
  C104     1.0000 0.01820  0.10930  0.89760  Biso   1.000  C
  H57      1.0000 0.56210  0.39330  0.40850  Biso   1.000  H
  H58      1.0000 0.06210  0.89330  0.40850  Biso   1.000  H
  H59      1.0000 0.43790  0.39330  0.09150  Biso   1.000  H
  H60      1.0000 0.93790  0.89330  0.09150  Biso   1.000  H
  H61      1.0000 0.43790  0.60670  0.59150  Biso   1.000  H
  H62      1.0000 0.93790  0.10670  0.59150  Biso   1.000  H
  H63      1.0000 0.56210  0.60670  0.90850  Biso   1.000  H
  H64      1.0000 0.06210  0.10670  0.90850  Biso   1.000  H
  C105     1.0000 0.45460  0.40490  0.30400  Biso   1.000  C
  C106     1.0000 0.95460  0.90490  0.30400  Biso   1.000  C
  C107     1.0000 0.54540  0.40490  0.19600  Biso   1.000  C
  C108     1.0000 0.04540  0.90490  0.19600  Biso   1.000  C
  C109     1.0000 0.54540  0.59510  0.69600  Biso   1.000  C
  C110     1.0000 0.04540  0.09510  0.69600  Biso   1.000  C
  C111     1.0000 0.45460  0.59510  0.80400  Biso   1.000  C
  C112     1.0000 0.95460  0.09510  0.80400  Biso   1.000  C
  H65      1.0000 0.45540  0.41920  0.25160  Biso   1.000  H
  H66      1.0000 0.95540  0.91920  0.25160  Biso   1.000  H
  H67      1.0000 0.54460  0.41920  0.24840  Biso   1.000  H
  H68      1.0000 0.04460  0.91920  0.24840  Biso   1.000  H
  H69      1.0000 0.54460  0.58080  0.74840  Biso   1.000  H
  H70      1.0000 0.04460  0.08080  0.74840  Biso   1.000  H
  H71      1.0000 0.45540  0.58080  0.75160  Biso   1.000  H
  H72      1.0000 0.95540  0.08080  0.75160  Biso   1.000  H
  C113     1.0000 0.39014  0.39750  0.28950  Biso   1.000  C
  C114     1.0000 0.89014  0.89750  0.28950  Biso   1.000  C
  C115     1.0000 0.60986  0.39750  0.21050  Biso   1.000  C
  C116     1.0000 0.10986  0.89750  0.21050  Biso   1.000  C
  C117     1.0000 0.60986  0.60250  0.71050  Biso   1.000  C
  C118     1.0000 0.10986  0.10250  0.71050  Biso   1.000  C
  C119     1.0000 0.39014  0.60250  0.78950  Biso   1.000  C
  C120     1.0000 0.89014  0.10250  0.78950  Biso   1.000  C
  H73      1.0000 0.34750  0.40530  0.22640  Biso   1.000  H
  H74      1.0000 0.84750  0.90530  0.22640  Biso   1.000  H
  H75      1.0000 0.65250  0.40530  0.27360  Biso   1.000  H
  H76      1.0000 0.15250  0.90530  0.27360  Biso   1.000  H
  H77      1.0000 0.65250  0.59470  0.77360  Biso   1.000  H
  H78      1.0000 0.15250  0.09470  0.77360  Biso   1.000  H
  H79      1.0000 0.34750  0.59470  0.72640  Biso   1.000  H
  H80      1.0000 0.84750  0.09470  0.72640  Biso   1.000  H
  C121     1.0000 0.17925  0.38100  0.02630  Biso   1.000  C
  C122     1.0000 0.67925  0.88100  0.02630  Biso   1.000  C
  C123     1.0000 0.82075  0.38100  0.47370  Biso   1.000  C
  C124     1.0000 0.32075  0.88100  0.47370  Biso   1.000  C
  C125     1.0000 0.82075  0.61900  0.97370  Biso   1.000  C
  C126     1.0000 0.32075  0.11900  0.97370  Biso   1.000  C
  C127     1.0000 0.17925  0.61900  0.52630  Biso   1.000  C
  C128     1.0000 0.67925  0.11900  0.52630  Biso   1.000  C
  H81      1.0000 0.16640  0.44570  0.02390  Biso   1.000  H
  H82      1.0000 0.66640  0.94570  0.02390  Biso   1.000  H
  H83      1.0000 0.83360  0.44570  0.47610  Biso   1.000  H
  H84      1.0000 0.33360  0.94570  0.47610  Biso   1.000  H
  H85      1.0000 0.83360  0.55430  0.97610  Biso   1.000  H
  H86      1.0000 0.33360  0.05430  0.97610  Biso   1.000  H
  H87      1.0000 0.16640  0.55430  0.52390  Biso   1.000  H
  H88      1.0000 0.66640  0.05430  0.52390  Biso   1.000  H
  H89      1.0000 0.22850  0.37950  0.04900  Biso   1.000  H
  H90      1.0000 0.72850  0.87950  0.04900  Biso   1.000  H
  H91      1.0000 0.77150  0.37950  0.45100  Biso   1.000  H
  H92      1.0000 0.27150  0.87950  0.45100  Biso   1.000  H
  H93      1.0000 0.77150  0.62050  0.95100  Biso   1.000  H
  H94      1.0000 0.27150  0.12050  0.95100  Biso   1.000  H
  H95      1.0000 0.22850  0.62050  0.54900  Biso   1.000  H
  H96      1.0000 0.72850  0.12050  0.54900  Biso   1.000  H
  C129     1.0000 0.13090  0.34140  0.92210  Biso   1.000  C
  C130     1.0000 0.63090  0.84140  0.92210  Biso   1.000  C
  C131     1.0000 0.86910  0.34140  0.57790  Biso   1.000  C
  C132     1.0000 0.36910  0.84140  0.57790  Biso   1.000  C
  C133     1.0000 0.86910  0.65860  0.07790  Biso   1.000  C
  C134     1.0000 0.36910  0.15860  0.07790  Biso   1.000  C
  C135     1.0000 0.13090  0.65860  0.42210  Biso   1.000  C
  C136     1.0000 0.63090  0.15860  0.42210  Biso   1.000  C
  H97      1.0000 0.14000  0.27510  0.92480  Biso   1.000  H
  H98      1.0000 0.64000  0.77510  0.92480  Biso   1.000  H
  H99      1.0000 0.86000  0.27510  0.57520  Biso   1.000  H
  H100     1.0000 0.36000  0.77510  0.57520  Biso   1.000  H
  H101     1.0000 0.86000  0.72490  0.07520  Biso   1.000  H
  H102     1.0000 0.36000  0.22490  0.07520  Biso   1.000  H
  H103     1.0000 0.14000  0.72490  0.42480  Biso   1.000  H
  H104     1.0000 0.64000  0.22490  0.42480  Biso   1.000  H
  H105     1.0000 0.08110  0.34920  0.89600  Biso   1.000  H
  H106     1.0000 0.58110  0.84920  0.89600  Biso   1.000  H
  H107     1.0000 0.91890  0.34920  0.60400  Biso   1.000  H
  H108     1.0000 0.41890  0.84920  0.60400  Biso   1.000  H
  H109     1.0000 0.91890  0.65080  0.10400  Biso   1.000  H
  H110     1.0000 0.41890  0.15080  0.10400  Biso   1.000  H
  H111     1.0000 0.08110  0.65080  0.39600  Biso   1.000  H
  H112     1.0000 0.58110  0.15080  0.39600  Biso   1.000  H
  C137     1.0000 0.09430  0.35040  0.74860  Biso   1.000  C
  C138     1.0000 0.59430  0.85040  0.74860  Biso   1.000  C
  C139     1.0000 0.90570  0.35040  0.75140  Biso   1.000  C
  C140     1.0000 0.40570  0.85040  0.75140  Biso   1.000  C
  C141     1.0000 0.90570  0.64960  0.25140  Biso   1.000  C
  C142     1.0000 0.40570  0.14960  0.25140  Biso   1.000  C
  C143     1.0000 0.09430  0.64960  0.24860  Biso   1.000  C
  C144     1.0000 0.59430  0.14960  0.24860  Biso   1.000  C
  H113     1.0000 0.10130  0.28350  0.75110  Biso   1.000  H
  H114     1.0000 0.60130  0.78350  0.75110  Biso   1.000  H
  H115     1.0000 0.89870  0.28350  0.74890  Biso   1.000  H
  H116     1.0000 0.39870  0.78350  0.74890  Biso   1.000  H
  H117     1.0000 0.89870  0.71650  0.24890  Biso   1.000  H
  H118     1.0000 0.39870  0.21650  0.24890  Biso   1.000  H
  H119     1.0000 0.10130  0.71650  0.25110  Biso   1.000  H
  H120     1.0000 0.60130  0.21650  0.25110  Biso   1.000  H
  H121     1.0000 0.04480  0.36090  0.72250  Biso   1.000  H
  H122     1.0000 0.54480  0.86090  0.72250  Biso   1.000  H
  H123     1.0000 0.95520  0.36090  0.77750  Biso   1.000  H
  H124     1.0000 0.45520  0.86090  0.77750  Biso   1.000  H
  H125     1.0000 0.95520  0.63910  0.27750  Biso   1.000  H
  H126     1.0000 0.45520  0.13910  0.27750  Biso   1.000  H
  H127     1.0000 0.04480  0.63910  0.22250  Biso   1.000  H
  H128     1.0000 0.54480  0.13910  0.22250  Biso   1.000  H
  C145     1.0000 0.14210  0.38720  0.85260  Biso   1.000  C
  C146     1.0000 0.64210  0.88720  0.85260  Biso   1.000  C
  C147     1.0000 0.85790  0.38720  0.64740  Biso   1.000  C
  C148     1.0000 0.35790  0.88720  0.64740  Biso   1.000  C
  C149     1.0000 0.85790  0.61280  0.14740  Biso   1.000  C
  C150     1.0000 0.35790  0.11280  0.14740  Biso   1.000  C
  C151     1.0000 0.14210  0.61280  0.35260  Biso   1.000  C
  C152     1.0000 0.64210  0.11280  0.35260  Biso   1.000  C
  H129     1.0000 0.19180  0.37870  0.87860  Biso   1.000  H
  H130     1.0000 0.69180  0.87870  0.87860  Biso   1.000  H
  H131     1.0000 0.80820  0.37870  0.62140  Biso   1.000  H
  H132     1.0000 0.30820  0.87870  0.62140  Biso   1.000  H
  H133     1.0000 0.80820  0.62130  0.12140  Biso   1.000  H
  H134     1.0000 0.30820  0.12130  0.12140  Biso   1.000  H
  H135     1.0000 0.19180  0.62130  0.37860  Biso   1.000  H
  H136     1.0000 0.69180  0.12130  0.37860  Biso   1.000  H
  H137     1.0000 0.13380  0.45360  0.85100  Biso   1.000  H
  H138     1.0000 0.63380  0.95360  0.85100  Biso   1.000  H
  H139     1.0000 0.86620  0.45360  0.64900  Biso   1.000  H
  H140     1.0000 0.36620  0.95360  0.64900  Biso   1.000  H
  H141     1.0000 0.86620  0.54640  0.14900  Biso   1.000  H
  H142     1.0000 0.36620  0.04640  0.14900  Biso   1.000  H
  H143     1.0000 0.13380  0.54640  0.35100  Biso   1.000  H
  H144     1.0000 0.63380  0.04640  0.35100  Biso   1.000  H
