data_image0
_cell_length_a       11.0177
_cell_length_b       15.1098
_cell_length_c       17.7349
_cell_angle_alpha    88.343
_cell_angle_beta     78.885
_cell_angle_gamma    79.514

_symmetry_space_group_name_H-M    "P 1"
_symmetry_int_tables_number       1

loop_
  _symmetry_equiv_pos_as_xyz
  'x, y, z'

loop_
  _atom_site_label
  _atom_site_occupancy
  _atom_site_fract_x
  _atom_site_fract_y
  _atom_site_fract_z
  _atom_site_thermal_displace_type
  _atom_site_B_iso_or_equiv
  _atom_site_type_symbol
  Cu1      1.0000 0.60210  0.46480  0.60634  Biso   1.000  Cu
  Cu2      1.0000 0.39790  0.53520  0.39366  Biso   1.000  Cu
  Cu3      1.0000 0.68120  0.09577  0.13495  Biso   1.000  Cu
  Cu4      1.0000 0.31880  0.90423  0.86505  Biso   1.000  Cu
  Cu5      1.0000 0.92695  0.92762  0.71662  Biso   1.000  Cu
  Cu6      1.0000 0.07305  0.07238  0.28338  Biso   1.000  Cu
  V1       1.0000 0.91863  0.41313  0.49412  Biso   1.000  V
  V2       1.0000 0.08137  0.58687  0.50588  Biso   1.000  V
  V3       1.0000 0.77217  0.55923  0.02667  Biso   1.000  V
  V4       1.0000 0.22783  0.44077  0.97333  Biso   1.000  V
  V5       1.0000 0.03532  0.61691  0.08403  Biso   1.000  V
  V6       1.0000 0.96468  0.38309  0.91597  Biso   1.000  V
  V7       1.0000 0.41353  0.03996  0.26384  Biso   1.000  V
  V8       1.0000 0.58647  0.96004  0.73616  Biso   1.000  V
  P1       1.0000 0.69276  0.51853  0.42997  Biso   1.000  P
  P2       1.0000 0.30724  0.48147  0.57003  Biso   1.000  P
  P3       1.0000 0.76552  0.67641  0.17839  Biso   1.000  P
  P4       1.0000 0.23448  0.32359  0.82161  Biso   1.000  P
  P5       1.0000 0.69912  0.97809  0.28492  Biso   1.000  P
  P6       1.0000 0.30088  0.02191  0.71508  Biso   1.000  P
  P7       1.0000 0.80365  0.90416  0.57751  Biso   1.000  P
  P8       1.0000 0.19635  0.09584  0.42249  Biso   1.000  P
  F1       1.0000 0.61120  0.54433  0.03197  Biso   1.000  F
  F2       1.0000 0.38880  0.45567  0.96803  Biso   1.000  F
  F3       1.0000 0.08510  0.71976  0.04296  Biso   1.000  F
  F4       1.0000 0.91490  0.28024  0.95704  Biso   1.000  F
  F5       1.0000 0.74366  0.89633  0.75698  Biso   1.000  F
  F6       1.0000 0.25634  0.10367  0.24302  Biso   1.000  F
  O1       1.0000 0.63070  0.53187  0.51407  Biso   1.000  O
  O2       1.0000 0.36930  0.46813  0.48593  Biso   1.000  O
  O3       1.0000 0.61120  0.49425  0.37800  Biso   1.000  O
  O4       1.0000 0.38880  0.50575  0.62200  Biso   1.000  O
  O5       1.0000 0.81550  0.44452  0.42286  Biso   1.000  O
  O6       1.0000 0.18450  0.55548  0.57714  Biso   1.000  O
  O7       1.0000 0.83590  0.39940  0.57724  Biso   1.000  O
  O8       1.0000 0.16410  0.60060  0.42276  Biso   1.000  O
  O9       1.0000 0.00790  0.69660  0.52460  Biso   1.000  O
  O10      1.0000 0.99210  0.30340  0.47540  Biso   1.000  O
  O11      1.0000 0.03090  0.33390  0.46030  Biso   1.000  O
  O12      1.0000 0.96910  0.66610  0.53970  Biso   1.000  O
  O13      1.0000 0.02770  0.48310  0.48500  Biso   1.000  O
  O14      1.0000 0.97230  0.51690  0.51500  Biso   1.000  O
  O15      1.0000 0.67350  0.76210  0.21186  Biso   1.000  O
  O16      1.0000 0.32650  0.23790  0.78814  Biso   1.000  O
  H1       1.0000 0.70790  0.78950  0.23990  Biso   1.000  H
  H2       1.0000 0.29210  0.21050  0.76010  Biso   1.000  H
  O17      1.0000 0.70780  0.63360  0.11983  Biso   1.000  O
  O18      1.0000 0.29220  0.36640  0.88017  Biso   1.000  O
  O19      1.0000 0.83410  0.44610  0.99693  Biso   1.000  O
  O20      1.0000 0.16590  0.55390  0.00307  Biso   1.000  O
  O21      1.0000 0.79690  0.62330  0.95567  Biso   1.000  O
  O22      1.0000 0.20310  0.37670  0.04433  Biso   1.000  O
  O23      1.0000 0.93010  0.55070  0.06870  Biso   1.000  O
  O24      1.0000 0.06990  0.44930  0.93130  Biso   1.000  O
  O25      1.0000 0.89210  0.70072  0.14245  Biso   1.000  O
  O26      1.0000 0.10790  0.29928  0.85755  Biso   1.000  O
  O27      1.0000 0.09550  0.57660  0.15690  Biso   1.000  O
  O28      1.0000 0.90450  0.42340  0.84310  Biso   1.000  O
  O29      1.0000 0.74950  0.03042  0.21450  Biso   1.000  O
  O30      1.0000 0.25050  0.96958  0.78550  Biso   1.000  O
  O31      1.0000 0.74230  0.87709  0.27442  Biso   1.000  O
  O32      1.0000 0.25770  0.12291  0.72558  Biso   1.000  O
  O33      1.0000 0.48940  0.09997  0.19440  Biso   1.000  O
  O34      1.0000 0.51060  0.90003  0.80560  Biso   1.000  O
  O35      1.0000 0.55730  0.00471  0.31320  Biso   1.000  O
  O36      1.0000 0.44270  0.99529  0.68680  Biso   1.000  O
  O37      1.0000 0.67790  0.94164  0.62700  Biso   1.000  O
  O38      1.0000 0.32210  0.05836  0.37300  Biso   1.000  O
  O39      1.0000 0.40950  0.94462  0.22690  Biso   1.000  O
  O40      1.0000 0.59050  0.05538  0.77310  Biso   1.000  O
  O41      1.0000 0.79790  0.80711  0.55312  Biso   1.000  O
  O42      1.0000 0.20210  0.19289  0.44688  Biso   1.000  O
  H3       1.0000 0.86750  0.77350  0.55360  Biso   1.000  H
  H4       1.0000 0.13250  0.22650  0.44640  Biso   1.000  H
  O43      1.0000 0.91850  0.90544  0.61278  Biso   1.000  O
  O44      1.0000 0.08150  0.09456  0.38722  Biso   1.000  O
  O45      1.0000 0.84420  0.18360  0.46200  Biso   1.000  O
  O46      1.0000 0.15580  0.81640  0.53800  Biso   1.000  O
  N1       1.0000 0.58470  0.33727  0.57506  Biso   1.000  N
  N2       1.0000 0.41530  0.66273  0.42494  Biso   1.000  N
  N3       1.0000 0.60280  0.40179  0.70391  Biso   1.000  N
  N4       1.0000 0.39720  0.59821  0.29609  Biso   1.000  N
  N5       1.0000 0.64130  0.56099  0.67262  Biso   1.000  N
  N6       1.0000 0.35870  0.43901  0.32738  Biso   1.000  N
  N7       1.0000 0.69180  0.99422  0.06024  Biso   1.000  N
  N8       1.0000 0.30820  0.00578  0.93976  Biso   1.000  N
  N9       1.0000 0.65330  0.16504  0.04418  Biso   1.000  N
  N10      1.0000 0.34670  0.83496  0.95582  Biso   1.000  N
  N11      1.0000 0.68110  0.22100  0.17181  Biso   1.000  N
  N12      1.0000 0.31890  0.77900  0.82819  Biso   1.000  N
  N13      1.0000 0.90350  0.06500  0.71187  Biso   1.000  N
  N14      1.0000 0.09650  0.93500  0.28813  Biso   1.000  N
  N15      1.0000 0.96200  0.95340  0.81519  Biso   1.000  N
  N16      1.0000 0.03800  0.04660  0.18481  Biso   1.000  N
  N17      1.0000 0.99000  0.80020  0.75084  Biso   1.000  N
  N18      1.0000 0.01000  0.19980  0.24916  Biso   1.000  N
  C1       1.0000 0.57690  0.30900  0.50533  Biso   1.000  C
  C2       1.0000 0.42310  0.69100  0.49467  Biso   1.000  C
  H5       1.0000 0.58700  0.34870  0.46300  Biso   1.000  H
  H6       1.0000 0.41300  0.65130  0.53700  Biso   1.000  H
  C3       1.0000 0.55450  0.22310  0.49300  Biso   1.000  C
  C4       1.0000 0.44550  0.77690  0.50700  Biso   1.000  C
  H7       1.0000 0.55010  0.20430  0.44310  Biso   1.000  H
  H8       1.0000 0.44990  0.79570  0.55690  Biso   1.000  H
  C5       1.0000 0.53880  0.16570  0.55520  Biso   1.000  C
  C6       1.0000 0.46120  0.83430  0.44480  Biso   1.000  C
  H9       1.0000 0.52280  0.10710  0.54830  Biso   1.000  H
  H10      1.0000 0.47720  0.89290  0.45170  Biso   1.000  H
  C7       1.0000 0.54630  0.19400  0.62720  Biso   1.000  C
  C8       1.0000 0.45370  0.80600  0.37280  Biso   1.000  C
  H11      1.0000 0.53570  0.15530  0.67030  Biso   1.000  H
  H12      1.0000 0.46430  0.84470  0.32970  Biso   1.000  H
  C9       1.0000 0.56980  0.28000  0.63550  Biso   1.000  C
  C10      1.0000 0.43020  0.72000  0.36450  Biso   1.000  C
  C11      1.0000 0.58340  0.31700  0.70913  Biso   1.000  C
  C12      1.0000 0.41660  0.68300  0.29087  Biso   1.000  C
  C13      1.0000 0.58370  0.27020  0.77779  Biso   1.000  C
  C14      1.0000 0.41630  0.72980  0.22221  Biso   1.000  C
  H13      1.0000 0.56820  0.21030  0.78150  Biso   1.000  H
  H14      1.0000 0.43180  0.78970  0.21850  Biso   1.000  H
  C15      1.0000 0.60720  0.31230  0.84140  Biso   1.000  C
  C16      1.0000 0.39280  0.68770  0.15860  Biso   1.000  C
  C17      1.0000 0.62960  0.40030  0.83389  Biso   1.000  C
  C18      1.0000 0.37040  0.59970  0.16611  Biso   1.000  C
  H15      1.0000 0.64680  0.43030  0.87590  Biso   1.000  H
  H16      1.0000 0.35320  0.56970  0.12410  Biso   1.000  H
  C19      1.0000 0.62630  0.44340  0.76379  Biso   1.000  C
  C20      1.0000 0.37370  0.55660  0.23621  Biso   1.000  C
  C21      1.0000 0.65050  0.53590  0.74552  Biso   1.000  C
  C22      1.0000 0.34950  0.46410  0.25448  Biso   1.000  C
  C23      1.0000 0.67740  0.59240  0.79770  Biso   1.000  C
  C24      1.0000 0.32260  0.40760  0.20230  Biso   1.000  C
  H17      1.0000 0.68640  0.57240  0.84790  Biso   1.000  H
  H18      1.0000 0.31360  0.42760  0.15210  Biso   1.000  H
  C25      1.0000 0.69080  0.67940  0.77440  Biso   1.000  C
  C26      1.0000 0.30920  0.32060  0.22560  Biso   1.000  C
  H19      1.0000 0.70710  0.72050  0.80910  Biso   1.000  H
  H20      1.0000 0.29290  0.27950  0.19090  Biso   1.000  H
  C27      1.0000 0.68000  0.70540  0.69990  Biso   1.000  C
  C28      1.0000 0.32000  0.29460  0.30010  Biso   1.000  C
  H21      1.0000 0.68840  0.76470  0.68310  Biso   1.000  H
  H22      1.0000 0.31160  0.23530  0.31690  Biso   1.000  H
  C29      1.0000 0.65690  0.64410  0.65040  Biso   1.000  C
  C30      1.0000 0.34310  0.35590  0.34960  Biso   1.000  C
  H23      1.0000 0.65210  0.66160  0.59900  Biso   1.000  H
  H24      1.0000 0.34790  0.33840  0.40100  Biso   1.000  H
  C31      1.0000 0.70930  0.90600  0.07510  Biso   1.000  C
  C32      1.0000 0.29070  0.09400  0.92490  Biso   1.000  C
  H25      1.0000 0.72690  0.88620  0.12380  Biso   1.000  H
  H26      1.0000 0.27310  0.11380  0.87620  Biso   1.000  H
  C33      1.0000 0.70280  0.84240  0.02210  Biso   1.000  C
  C34      1.0000 0.29720  0.15760  0.97790  Biso   1.000  C
  H27      1.0000 0.71560  0.78020  0.03430  Biso   1.000  H
  H28      1.0000 0.28440  0.21980  0.96570  Biso   1.000  H
  C35      1.0000 0.67730  0.87100  0.95110  Biso   1.000  C
  C36      1.0000 0.32270  0.12900  0.04890  Biso   1.000  C
  H29      1.0000 0.67210  0.82850  0.91390  Biso   1.000  H
  H30      1.0000 0.32790  0.17150  0.08610  Biso   1.000  H
  C37      1.0000 0.65910  0.96270  0.93466  Biso   1.000  C
  C38      1.0000 0.34090  0.03730  0.06534  Biso   1.000  C
  H31      1.0000 0.64180  0.98370  0.88620  Biso   1.000  H
  H32      1.0000 0.35820  0.01630  0.11380  Biso   1.000  H
  C39      1.0000 0.66700  0.02270  0.99082  Biso   1.000  C
  C40      1.0000 0.33300  0.97730  0.00918  Biso   1.000  C
  C41      1.0000 0.64950  0.12110  0.98039  Biso   1.000  C
  C42      1.0000 0.35050  0.87890  0.01961  Biso   1.000  C
  C43      1.0000 0.63180  0.16820  0.91385  Biso   1.000  C
  C44      1.0000 0.36820  0.83180  0.08615  Biso   1.000  C
  H33      1.0000 0.62970  0.13680  0.86860  Biso   1.000  H
  H34      1.0000 0.37030  0.86320  0.13140  Biso   1.000  H
  C45      1.0000 0.61730  0.26160  0.91367  Biso   1.000  C
  C46      1.0000 0.38270  0.73840  0.08633  Biso   1.000  C
  C47      1.0000 0.61850  0.30610  0.98251  Biso   1.000  C
  C48      1.0000 0.38150  0.69390  0.01749  Biso   1.000  C
  H35      1.0000 0.60520  0.36990  0.98500  Biso   1.000  H
  H36      1.0000 0.39480  0.63010  0.01500  Biso   1.000  H
  C49      1.0000 0.63950  0.25460  0.04627  Biso   1.000  C
  C50      1.0000 0.36050  0.74540  0.95373  Biso   1.000  C
  C51      1.0000 0.65190  0.28760  0.12177  Biso   1.000  C
  C52      1.0000 0.34810  0.71240  0.87823  Biso   1.000  C
  C53      1.0000 0.63480  0.37780  0.14150  Biso   1.000  C
  C54      1.0000 0.36520  0.62220  0.85850  Biso   1.000  C
  H37      1.0000 0.61480  0.42360  0.10580  Biso   1.000  H
  H38      1.0000 0.38520  0.57640  0.89420  Biso   1.000  H
  C55      1.0000 0.64780  0.39930  0.21530  Biso   1.000  C
  C56      1.0000 0.35220  0.60070  0.78470  Biso   1.000  C
  H39      1.0000 0.63560  0.46050  0.23060  Biso   1.000  H
  H40      1.0000 0.36440  0.53950  0.76940  Biso   1.000  H
  C57      1.0000 0.67820  0.33160  0.26590  Biso   1.000  C
  C58      1.0000 0.32180  0.66840  0.73410  Biso   1.000  C
  H41      1.0000 0.68830  0.34540  0.31600  Biso   1.000  H
  H42      1.0000 0.31170  0.65460  0.68400  Biso   1.000  H
  C59      1.0000 0.69380  0.24300  0.24214  Biso   1.000  C
  C60      1.0000 0.30620  0.75700  0.75786  Biso   1.000  C
  H43      1.0000 0.71430  0.19620  0.27700  Biso   1.000  H
  H44      1.0000 0.28570  0.80380  0.72300  Biso   1.000  H
  C61      1.0000 0.88100  0.11750  0.65210  Biso   1.000  C
  C62      1.0000 0.11900  0.88250  0.34790  Biso   1.000  C
  H45      1.0000 0.86440  0.09090  0.60820  Biso   1.000  H
  H46      1.0000 0.13560  0.90910  0.39180  Biso   1.000  H
  C63      1.0000 0.88110  0.21000  0.65210  Biso   1.000  C
  C64      1.0000 0.11890  0.79000  0.34790  Biso   1.000  C
  H47      1.0000 0.86630  0.24560  0.60860  Biso   1.000  H
  H48      1.0000 0.13370  0.75440  0.39140  Biso   1.000  H
  C65      1.0000 0.90300  0.24820  0.71660  Biso   1.000  C
  C66      1.0000 0.09700  0.75180  0.28340  Biso   1.000  C
  H49      1.0000 0.90270  0.31100  0.71820  Biso   1.000  H
  H50      1.0000 0.09730  0.68900  0.28180  Biso   1.000  H
  C67      1.0000 0.92560  0.19460  0.77930  Biso   1.000  C
  C68      1.0000 0.07440  0.80540  0.22070  Biso   1.000  C
  H51      1.0000 0.94120  0.22020  0.82410  Biso   1.000  H
  H52      1.0000 0.05880  0.77980  0.17590  Biso   1.000  H
  C69      1.0000 0.92480  0.10400  0.77520  Biso   1.000  C
  C70      1.0000 0.07520  0.89600  0.22480  Biso   1.000  C
  C71      1.0000 0.95240  0.03910  0.83618  Biso   1.000  C
  C72      1.0000 0.04760  0.96090  0.16382  Biso   1.000  C
  C73      1.0000 0.96790  0.06010  0.90884  Biso   1.000  C
  C74      1.0000 0.03210  0.93990  0.09116  Biso   1.000  C
  H53      1.0000 0.96180  0.12100  0.92350  Biso   1.000  H
  H54      1.0000 0.03820  0.87900  0.07650  Biso   1.000  H
  C75      1.0000 0.99300  0.98970  0.96068  Biso   1.000  C
  C76      1.0000 0.00700  0.01030  0.03932  Biso   1.000  C
  C77      1.0000 0.00640  0.90090  0.93570  Biso   1.000  C
  C78      1.0000 0.99360  0.09910  0.06430  Biso   1.000  C
  H55      1.0000 0.02640  0.85210  0.96880  Biso   1.000  H
  H56      1.0000 0.97360  0.14790  0.03120  Biso   1.000  H
  C79      1.0000 0.99010  0.88500  0.86153  Biso   1.000  C
  C80      1.0000 0.00990  0.11500  0.13847  Biso   1.000  C
  C81      1.0000 0.99960  0.79600  0.82612  Biso   1.000  C
  C82      1.0000 0.00040  0.20400  0.17388  Biso   1.000  C
  C83      1.0000 0.01600  0.71510  0.86460  Biso   1.000  C
  C84      1.0000 0.98400  0.28490  0.13540  Biso   1.000  C
  H57      1.0000 0.02270  0.71360  0.91720  Biso   1.000  H
  H58      1.0000 0.97730  0.28640  0.08280  Biso   1.000  H
  C85      1.0000 0.02230  0.63590  0.82470  Biso   1.000  C
  C86      1.0000 0.97770  0.36410  0.17530  Biso   1.000  C
  H59      1.0000 0.03230  0.57950  0.85000  Biso   1.000  H
  H60      1.0000 0.96770  0.42050  0.15000  Biso   1.000  H
  C87      1.0000 0.01390  0.64010  0.74770  Biso   1.000  C
  C88      1.0000 0.98610  0.35990  0.25230  Biso   1.000  C
  H61      1.0000 0.01900  0.58670  0.71940  Biso   1.000  H
  H62      1.0000 0.98100  0.41330  0.28060  Biso   1.000  H
  C89      1.0000 0.99790  0.72380  0.71220  Biso   1.000  C
  C90      1.0000 0.00210  0.27620  0.28780  Biso   1.000  C
  H63      1.0000 0.99240  0.72670  0.65940  Biso   1.000  H
  H64      1.0000 0.00760  0.27330  0.34060  Biso   1.000  H
  C91      1.0000 0.74770  0.62310  0.40144  Biso   1.000  C
  C92      1.0000 0.25230  0.37690  0.59856  Biso   1.000  C
  H65      1.0000 0.79360  0.63840  0.44060  Biso   1.000  H
  H66      1.0000 0.20640  0.36160  0.55940  Biso   1.000  H
  H67      1.0000 0.67300  0.67110  0.40300  Biso   1.000  H
  H68      1.0000 0.32700  0.32890  0.59700  Biso   1.000  H
  C93      1.0000 0.83280  0.62580  0.32260  Biso   1.000  C
  C94      1.0000 0.16720  0.37420  0.67740  Biso   1.000  C
  H69      1.0000 0.85090  0.68740  0.31370  Biso   1.000  H
  H70      1.0000 0.14910  0.31260  0.68630  Biso   1.000  H
  H71      1.0000 0.91370  0.58470  0.32310  Biso   1.000  H
  H72      1.0000 0.08630  0.41530  0.67690  Biso   1.000  H
  C95      1.0000 0.77670  0.59880  0.25480  Biso   1.000  C
  C96      1.0000 0.22330  0.40120  0.74520  Biso   1.000  C
  H73      1.0000 0.82820  0.54140  0.23290  Biso   1.000  H
  H74      1.0000 0.17180  0.45860  0.76710  Biso   1.000  H
  H75      1.0000 0.69120  0.58700  0.27580  Biso   1.000  H
  H76      1.0000 0.30880  0.41300  0.72420  Biso   1.000  H
  C97      1.0000 0.82280  0.96910  0.49160  Biso   1.000  C
  C98      1.0000 0.17720  0.03090  0.50840  Biso   1.000  C
  H77      1.0000 0.91200  0.95500  0.46540  Biso   1.000  H
  H78      1.0000 0.08800  0.04500  0.53460  Biso   1.000  H
  H79      1.0000 0.80410  0.03370  0.50590  Biso   1.000  H
  H80      1.0000 0.19590  0.96630  0.49410  Biso   1.000  H
  C99      1.0000 0.74050  0.95380  0.43506  Biso   1.000  C
  C100     1.0000 0.25950  0.04620  0.56494  Biso   1.000  C
  H81      1.0000 0.75550  0.88890  0.42190  Biso   1.000  H
  H82      1.0000 0.24450  0.11110  0.57810  Biso   1.000  H
  H83      1.0000 0.65080  0.97200  0.45920  Biso   1.000  H
  H84      1.0000 0.34920  0.02800  0.54080  Biso   1.000  H
  C101     1.0000 0.76970  0.00830  0.36154  Biso   1.000  C
  C102     1.0000 0.23030  0.99170  0.63846  Biso   1.000  C
  H85      1.0000 0.73950  0.07300  0.37360  Biso   1.000  H
  H86      1.0000 0.26050  0.92700  0.62640  Biso   1.000  H
  H87      1.0000 0.86200  0.99920  0.34380  Biso   1.000  H
  H88      1.0000 0.13800  0.00080  0.65620  Biso   1.000  H
