data_image0
_cell_length_a       13.3517
_cell_length_b       14.1008
_cell_length_c       15.2997
_cell_angle_alpha    77.785
_cell_angle_beta     77.11
_cell_angle_gamma    81.178

_symmetry_space_group_name_H-M    "P 1"
_symmetry_int_tables_number       1

loop_
  _symmetry_equiv_pos_as_xyz
  'x, y, z'

loop_
  _atom_site_label
  _atom_site_occupancy
  _atom_site_fract_x
  _atom_site_fract_y
  _atom_site_fract_z
  _atom_site_thermal_displace_type
  _atom_site_B_iso_or_equiv
  _atom_site_type_symbol
  Cu1      1.0000 0.35954  0.32807  0.78328  Biso   1.000  Cu
  Cu2      1.0000 0.64046  0.67193  0.21672  Biso   1.000  Cu
  Cu3      1.0000 0.12324  0.30649  0.61497  Biso   1.000  Cu
  Cu4      1.0000 0.87676  0.69351  0.38503  Biso   1.000  Cu
  Cu5      1.0000 0.04579  0.91017  0.31892  Biso   1.000  Cu
  Cu6      1.0000 0.95421  0.08983  0.68108  Biso   1.000  Cu
  V1       1.0000 0.26324  0.62371  0.92619  Biso   1.000  V
  V2       1.0000 0.73676  0.37629  0.07381  Biso   1.000  V
  V3       1.0000 0.82035  0.89447  0.67405  Biso   1.000  V
  V4       1.0000 0.17965  0.10553  0.32595  Biso   1.000  V
  P1       1.0000 0.43378  0.54150  0.76994  Biso   1.000  P
  P2       1.0000 0.56622  0.45850  0.23006  Biso   1.000  P
  P3       1.0000 0.25202  0.47210  0.62427  Biso   1.000  P
  P4       1.0000 0.74798  0.52790  0.37573  Biso   1.000  P
  P5       1.0000 0.96377  0.77462  0.51887  Biso   1.000  P
  P6       1.0000 0.03623  0.22538  0.48113  Biso   1.000  P
  P7       1.0000 0.62306  0.86999  0.74680  Biso   1.000  P
  P8       1.0000 0.37694  0.13001  0.25320  Biso   1.000  P
  O1       1.0000 0.13940  0.65180  0.93266  Biso   1.000  O
  O2       1.0000 0.86060  0.34820  0.06734  Biso   1.000  O
  O3       1.0000 0.30900  0.72270  0.92970  Biso   1.000  O
  O4       1.0000 0.69100  0.27730  0.07030  Biso   1.000  O
  O5       1.0000 0.32369  0.58470  0.81797  Biso   1.000  O
  O6       1.0000 0.67631  0.41530  0.18203  Biso   1.000  O
  O7       1.0000 0.44470  0.57625  0.66783  Biso   1.000  O
  O8       1.0000 0.55530  0.42375  0.33217  Biso   1.000  O
  O9       1.0000 0.44644  0.43249  0.80167  Biso   1.000  O
  O10      1.0000 0.55356  0.56751  0.19833  Biso   1.000  O
  O11      1.0000 0.26475  0.40417  0.71331  Biso   1.000  O
  O12      1.0000 0.73525  0.59583  0.28669  Biso   1.000  O
  O13      1.0000 0.35653  0.51015  0.57070  Biso   1.000  O
  O14      1.0000 0.64347  0.48985  0.42930  Biso   1.000  O
  H1       1.0000 0.38580  0.52830  0.60660  Biso   1.000  H
  H2       1.0000 0.61420  0.47170  0.39340  Biso   1.000  H
  O15      1.0000 0.20878  0.42645  0.56183  Biso   1.000  O
  O16      1.0000 0.79122  0.57355  0.43817  Biso   1.000  O
  O17      1.0000 0.91751  0.69033  0.50071  Biso   1.000  O
  O18      1.0000 0.08249  0.30967  0.49929  Biso   1.000  O
  O19      1.0000 0.03054  0.82583  0.43322  Biso   1.000  O
  O20      1.0000 0.96946  0.17417  0.56678  Biso   1.000  O
  O21      1.0000 0.87986  0.84796  0.56172  Biso   1.000  O
  O22      1.0000 0.12014  0.15204  0.43828  Biso   1.000  O
  O23      1.0000 0.15298  0.99142  0.35204  Biso   1.000  O
  O24      1.0000 0.84702  0.00858  0.64796  Biso   1.000  O
  O25      1.0000 0.89756  0.83064  0.73822  Biso   1.000  O
  O26      1.0000 0.10244  0.16936  0.26178  Biso   1.000  O
  O27      1.0000 0.70397  0.91089  0.78467  Biso   1.000  O
  O28      1.0000 0.29603  0.08911  0.21533  Biso   1.000  O
  O29      1.0000 0.68761  0.86275  0.65050  Biso   1.000  O
  O30      1.0000 0.31239  0.13725  0.34950  Biso   1.000  O
  O31      1.0000 0.52012  0.93011  0.75160  Biso   1.000  O
  O32      1.0000 0.47988  0.06989  0.24840  Biso   1.000  O
  O33      1.0000 0.28382  0.53287  0.01949  Biso   1.000  O
  O34      1.0000 0.71618  0.46713  0.98051  Biso   1.000  O
  H3       1.0000 0.33870  0.49690  0.00460  Biso   1.000  H
  H4       1.0000 0.66130  0.50310  0.99540  Biso   1.000  H
  O35      1.0000 0.34961  0.91330  0.88711  Biso   1.000  O
  O36      1.0000 0.65039  0.08670  0.11289  Biso   1.000  O
  O37      1.0000 0.32854  0.44909  0.38199  Biso   1.000  O
  O38      1.0000 0.67146  0.55091  0.61801  Biso   1.000  O
  O39      1.0000 0.45350  0.37200  0.97910  Biso   1.000  O
  O40      1.0000 0.54650  0.62800  0.02090  Biso   1.000  O
  N1       1.0000 0.25021  0.32965  0.90147  Biso   1.000  N
  N2       1.0000 0.74979  0.67035  0.09853  Biso   1.000  N
  N3       1.0000 0.40950  0.21061  0.86038  Biso   1.000  N
  N4       1.0000 0.59050  0.78939  0.13962  Biso   1.000  N
  N5       1.0000 0.47942  0.27108  0.69052  Biso   1.000  N
  N6       1.0000 0.52058  0.72892  0.30948  Biso   1.000  N
  N7       1.0000 0.99774  0.38624  0.68053  Biso   1.000  N
  N8       1.0000 0.00226  0.61376  0.31947  Biso   1.000  N
  N9       1.0000 0.11744  0.24070  0.74284  Biso   1.000  N
  N10      1.0000 0.88256  0.75930  0.25716  Biso   1.000  N
  N11      1.0000 0.24592  0.20478  0.60155  Biso   1.000  N
  N12      1.0000 0.75408  0.79522  0.39845  Biso   1.000  N
  N13      1.0000 0.15746  0.81644  0.25436  Biso   1.000  N
  N14      1.0000 0.84254  0.18356  0.74564  Biso   1.000  N
  N15      1.0000 0.05865  0.97624  0.19192  Biso   1.000  N
  N16      1.0000 0.94135  0.02376  0.80808  Biso   1.000  N
  N17      1.0000 0.91608  0.01011  0.32777  Biso   1.000  N
  N18      1.0000 0.08392  0.98989  0.67223  Biso   1.000  N
  C1       1.0000 0.16770  0.39513  0.91531  Biso   1.000  C
  C2       1.0000 0.83230  0.60487  0.08469  Biso   1.000  C
  H5       1.0000 0.15560  0.44730  0.86690  Biso   1.000  H
  H6       1.0000 0.84440  0.55270  0.13310  Biso   1.000  H
  C3       1.0000 0.09890  0.38918  0.99845  Biso   1.000  C
  C4       1.0000 0.90110  0.61082  0.00155  Biso   1.000  C
  H7       1.0000 0.03880  0.43480  0.00570  Biso   1.000  H
  H8       1.0000 0.96120  0.56520  0.99430  Biso   1.000  H
  C5       1.0000 0.11840  0.31653  0.07049  Biso   1.000  C
  C6       1.0000 0.88160  0.68347  0.92951  Biso   1.000  C
  H9       1.0000 0.07280  0.31260  0.12820  Biso   1.000  H
  H10      1.0000 0.92720  0.68740  0.87180  Biso   1.000  H
  C7       1.0000 0.20557  0.24897  0.05768  Biso   1.000  C
  C8       1.0000 0.79443  0.75103  0.94232  Biso   1.000  C
  H11      1.0000 0.22140  0.19860  0.10630  Biso   1.000  H
  H12      1.0000 0.77860  0.80140  0.89370  Biso   1.000  H
  C9       1.0000 0.26845  0.25757  0.97179  Biso   1.000  C
  C10      1.0000 0.73155  0.74243  0.02821  Biso   1.000  C
  C11      1.0000 0.35986  0.18777  0.94743  Biso   1.000  C
  C12      1.0000 0.64014  0.81223  0.05257  Biso   1.000  C
  C13      1.0000 0.39371  0.10495  0.00439  Biso   1.000  C
  C14      1.0000 0.60629  0.89505  0.99561  Biso   1.000  C
  H13      1.0000 0.35810  0.08900  0.06580  Biso   1.000  H
  H14      1.0000 0.64190  0.91100  0.93420  Biso   1.000  H
  C15      1.0000 0.48117  0.04489  0.97038  Biso   1.000  C
  C16      1.0000 0.51883  0.95511  0.02962  Biso   1.000  C
  C17      1.0000 0.53121  0.07052  0.87991  Biso   1.000  C
  C18      1.0000 0.46879  0.92948  0.12009  Biso   1.000  C
  H15      1.0000 0.59110  0.03140  0.85540  Biso   1.000  H
  H16      1.0000 0.40890  0.96860  0.14460  Biso   1.000  H
  C19      1.0000 0.49216  0.15411  0.82614  Biso   1.000  C
  C20      1.0000 0.50784  0.84589  0.17386  Biso   1.000  C
  C21      1.0000 0.53501  0.19057  0.72911  Biso   1.000  C
  C22      1.0000 0.46499  0.80943  0.27089  Biso   1.000  C
  C23      1.0000 0.62546  0.14762  0.68219  Biso   1.000  C
  C24      1.0000 0.37454  0.85238  0.31781  Biso   1.000  C
  H17      1.0000 0.66150  0.09010  0.71060  Biso   1.000  H
  H18      1.0000 0.33850  0.90990  0.28940  Biso   1.000  H
  C25      1.0000 0.66243  0.19057  0.59250  Biso   1.000  C
  C26      1.0000 0.33757  0.80943  0.40750  Biso   1.000  C
  H19      1.0000 0.72600  0.16460  0.55940  Biso   1.000  H
  H20      1.0000 0.27400  0.83540  0.44060  Biso   1.000  H
  C27      1.0000 0.60530  0.27171  0.55199  Biso   1.000  C
  C28      1.0000 0.39470  0.72829  0.44801  Biso   1.000  C
  H21      1.0000 0.62800  0.30080  0.49010  Biso   1.000  H
  H22      1.0000 0.37200  0.69920  0.50990  Biso   1.000  H
  C29      1.0000 0.51416  0.31007  0.60309  Biso   1.000  C
  C30      1.0000 0.48584  0.68993  0.39691  Biso   1.000  C
  H23      1.0000 0.47530  0.36580  0.57510  Biso   1.000  H
  H24      1.0000 0.52470  0.63420  0.42490  Biso   1.000  H
  C31      1.0000 0.94423  0.46637  0.64238  Biso   1.000  C
  C32      1.0000 0.05577  0.53363  0.35762  Biso   1.000  C
  H25      1.0000 0.95620  0.48320  0.57770  Biso   1.000  H
  H26      1.0000 0.04380  0.51680  0.42230  Biso   1.000  H
  C33      1.0000 0.87192  0.52624  0.69278  Biso   1.000  C
  C34      1.0000 0.12808  0.47376  0.30722  Biso   1.000  C
  H27      1.0000 0.83560  0.58290  0.66340  Biso   1.000  H
  H28      1.0000 0.16440  0.41710  0.33660  Biso   1.000  H
  C35      1.0000 0.85438  0.50095  0.78706  Biso   1.000  C
  C36      1.0000 0.14562  0.49905  0.21294  Biso   1.000  C
  H29      1.0000 0.80550  0.54030  0.82350  Biso   1.000  H
  H30      1.0000 0.19450  0.45970  0.17650  Biso   1.000  H
  C37      1.0000 0.90892  0.41726  0.82800  Biso   1.000  C
  C38      1.0000 0.09108  0.58274  0.17200  Biso   1.000  C
  H31      1.0000 0.89800  0.39890  0.89250  Biso   1.000  H
  H32      1.0000 0.10200  0.60110  0.10750  Biso   1.000  H
  C39      1.0000 0.97917  0.36151  0.77309  Biso   1.000  C
  C40      1.0000 0.02083  0.63849  0.22691  Biso   1.000  C
  C41      1.0000 0.04251  0.27131  0.80790  Biso   1.000  C
  C42      1.0000 0.95749  0.72869  0.19210  Biso   1.000  C
  C43      1.0000 0.03022  0.22069  0.89735  Biso   1.000  C
  C44      1.0000 0.96978  0.77931  0.10265  Biso   1.000  C
  H33      1.0000 0.97640  0.24270  0.94320  Biso   1.000  H
  H34      1.0000 0.02360  0.75730  0.05680  Biso   1.000  H
  C45      1.0000 0.09825  0.13645  0.91947  Biso   1.000  C
  C46      1.0000 0.90175  0.86355  0.08053  Biso   1.000  C
  C47      1.0000 0.17810  0.10814  0.84993  Biso   1.000  C
  C48      1.0000 0.82190  0.89186  0.15007  Biso   1.000  C
  H35      1.0000 0.22640  0.05270  0.86280  Biso   1.000  H
  H36      1.0000 0.77360  0.94730  0.13720  Biso   1.000  H
  C49      1.0000 0.18559  0.16246  0.76162  Biso   1.000  C
  C50      1.0000 0.81441  0.83754  0.23838  Biso   1.000  C
  C51      1.0000 0.26464  0.14548  0.68013  Biso   1.000  C
  C52      1.0000 0.73536  0.85452  0.31987  Biso   1.000  C
  C53      1.0000 0.35169  0.07851  0.68211  Biso   1.000  C
  C54      1.0000 0.64831  0.92149  0.31789  Biso   1.000  C
  H37      1.0000 0.36280  0.03690  0.73750  Biso   1.000  H
  H38      1.0000 0.63720  0.96310  0.26250  Biso   1.000  H
  C55      1.0000 0.42298  0.07356  0.60061  Biso   1.000  C
  C56      1.0000 0.57702  0.92644  0.39939  Biso   1.000  C
  H39      1.0000 0.48440  0.02940  0.60000  Biso   1.000  H
  H40      1.0000 0.51560  0.97060  0.40000  Biso   1.000  H
  C57      1.0000 0.40343  0.13346  0.52095  Biso   1.000  C
  C58      1.0000 0.59657  0.86654  0.47905  Biso   1.000  C
  H41      1.0000 0.45100  0.13060  0.46490  Biso   1.000  H
  H42      1.0000 0.54900  0.86940  0.53510  Biso   1.000  H
  C59      1.0000 0.31327  0.19806  0.52359  Biso   1.000  C
  C60      1.0000 0.68673  0.80194  0.47641  Biso   1.000  C
  H43      1.0000 0.29930  0.23840  0.46850  Biso   1.000  H
  H44      1.0000 0.70070  0.76160  0.53150  Biso   1.000  H
  C61      1.0000 0.20048  0.73081  0.29346  Biso   1.000  C
  C62      1.0000 0.79952  0.26919  0.70654  Biso   1.000  C
  H45      1.0000 0.17480  0.70680  0.35610  Biso   1.000  H
  H46      1.0000 0.82520  0.29320  0.64390  Biso   1.000  H
  C63      1.0000 0.28150  0.67529  0.24607  Biso   1.000  C
  C64      1.0000 0.71850  0.32471  0.75393  Biso   1.000  C
  H47      1.0000 0.31040  0.61430  0.27550  Biso   1.000  H
  H48      1.0000 0.68960  0.38570  0.72450  Biso   1.000  H
  C65      1.0000 0.31900  0.71136  0.15483  Biso   1.000  C
  C66      1.0000 0.68100  0.28864  0.84517  Biso   1.000  C
  H49      1.0000 0.37400  0.67510  0.12060  Biso   1.000  H
  H50      1.0000 0.62600  0.32490  0.87940  Biso   1.000  H
  C67      1.0000 0.27523  0.80129  0.11370  Biso   1.000  C
  C68      1.0000 0.72477  0.19871  0.88630  Biso   1.000  C
  H51      1.0000 0.30090  0.82770  0.05160  Biso   1.000  H
  H52      1.0000 0.69910  0.17230  0.94840  Biso   1.000  H
  C69      1.0000 0.19390  0.85139  0.16482  Biso   1.000  C
  C70      1.0000 0.80610  0.14861  0.83518  Biso   1.000  C
  C71      1.0000 0.13574  0.94467  0.12837  Biso   1.000  C
  C72      1.0000 0.86426  0.05533  0.87163  Biso   1.000  C
  C73      1.0000 0.15196  0.99553  0.03864  Biso   1.000  C
  C74      1.0000 0.84804  0.00447  0.96136  Biso   1.000  C
  H53      1.0000 0.20760  0.97360  0.99420  Biso   1.000  H
  H54      1.0000 0.79240  0.02640  0.00580  Biso   1.000  H
  C75      1.0000 0.08492  0.07977  0.01477  Biso   1.000  C
  C76      1.0000 0.91508  0.92023  0.98523  Biso   1.000  C
  C77      1.0000 0.00422  0.10892  0.08274  Biso   1.000  C
  C78      1.0000 0.99578  0.89108  0.91726  Biso   1.000  C
  H55      1.0000 0.95710  0.16490  0.06850  Biso   1.000  H
  H56      1.0000 0.04290  0.83510  0.93150  Biso   1.000  H
  C79      1.0000 0.99322  0.05550  0.17129  Biso   1.000  C
  C80      1.0000 0.00678  0.94450  0.82871  Biso   1.000  C
  C81      1.0000 0.90960  0.07426  0.24889  Biso   1.000  C
  C82      1.0000 0.09040  0.92574  0.75111  Biso   1.000  C
  C83      1.0000 0.82880  0.14801  0.24190  Biso   1.000  C
  C84      1.0000 0.17120  0.85199  0.75810  Biso   1.000  C
  H57      1.0000 0.82740  0.19330  0.18640  Biso   1.000  H
  H58      1.0000 0.17260  0.80670  0.81360  Biso   1.000  H
  C85      1.0000 0.74960  0.15470  0.31754  Biso   1.000  C
  C86      1.0000 0.25040  0.84530  0.68246  Biso   1.000  C
  H59      1.0000 0.69280  0.20410  0.31440  Biso   1.000  H
  H60      1.0000 0.30720  0.79590  0.68560  Biso   1.000  H
  C87      1.0000 0.75510  0.08830  0.39737  Biso   1.000  C
  C88      1.0000 0.24490  0.91170  0.60263  Biso   1.000  C
  H61      1.0000 0.70100  0.09050  0.44940  Biso   1.000  H
  H62      1.0000 0.29900  0.90950  0.55060  Biso   1.000  H
  C89      1.0000 0.84030  0.01821  0.40111  Biso   1.000  C
  C90      1.0000 0.15970  0.98179  0.59889  Biso   1.000  C
  H63      1.0000 0.84510  0.97480  0.45710  Biso   1.000  H
  H64      1.0000 0.15490  0.02520  0.54290  Biso   1.000  H
  C91      1.0000 0.53310  0.70184  0.76767  Biso   1.000  C
  C92      1.0000 0.46690  0.29816  0.23233  Biso   1.000  C
  H65      1.0000 0.55740  0.70890  0.70080  Biso   1.000  H
  H66      1.0000 0.44260  0.29110  0.29920  Biso   1.000  H
  H67      1.0000 0.46300  0.73780  0.77900  Biso   1.000  H
  H68      1.0000 0.53700  0.26220  0.22100  Biso   1.000  H
  C93      1.0000 0.52670  0.59348  0.80911  Biso   1.000  C
  C94      1.0000 0.47330  0.40652  0.19089  Biso   1.000  C
  H69      1.0000 0.50810  0.58600  0.87640  Biso   1.000  H
  H70      1.0000 0.49190  0.41400  0.12360  Biso   1.000  H
  H71      1.0000 0.59570  0.55680  0.79340  Biso   1.000  H
  H72      1.0000 0.40430  0.44320  0.20660  Biso   1.000  H
  C95      1.0000 0.04417  0.72337  0.60099  Biso   1.000  C
  C96      1.0000 0.95583  0.27663  0.39901  Biso   1.000  C
  H73      1.0000 0.99970  0.69730  0.65950  Biso   1.000  H
  H74      1.0000 0.00030  0.30270  0.34050  Biso   1.000  H
  H75      1.0000 0.07880  0.77600  0.61150  Biso   1.000  H
  H76      1.0000 0.92120  0.22400  0.38850  Biso   1.000  H
  C97      1.0000 0.12652  0.64184  0.57218  Biso   1.000  C
  C98      1.0000 0.87348  0.35816  0.42782  Biso   1.000  C
  H77      1.0000 0.09710  0.60160  0.54050  Biso   1.000  H
  H78      1.0000 0.90290  0.39840  0.45950  Biso   1.000  H
  H79      1.0000 0.18540  0.67100  0.52870  Biso   1.000  H
  H80      1.0000 0.81460  0.32900  0.47130  Biso   1.000  H
  C99      1.0000 0.16563  0.57641  0.65393  Biso   1.000  C
  C100     1.0000 0.83437  0.42359  0.34607  Biso   1.000  C
  H81      1.0000 0.20180  0.61540  0.68130  Biso   1.000  H
  H82      1.0000 0.79820  0.38460  0.31870  Biso   1.000  H
  H83      1.0000 0.10560  0.55370  0.70050  Biso   1.000  H
  H84      1.0000 0.89440  0.44630  0.29950  Biso   1.000  H
  C101     1.0000 0.60572  0.74731  0.80702  Biso   1.000  C
  C102     1.0000 0.39428  0.25269  0.19298  Biso   1.000  C
  H85      1.0000 0.67360  0.70700  0.80250  Biso   1.000  H
  H86      1.0000 0.32640  0.29300  0.19750  Biso   1.000  H
  H87      1.0000 0.57680  0.74830  0.87230  Biso   1.000  H
  H88      1.0000 0.42320  0.25170  0.12770  Biso   1.000  H
