data_image0
_cell_length_a       10.8333
_cell_length_b       13.7289
_cell_length_c       15.8044
_cell_angle_alpha    74.116
_cell_angle_beta     71.567
_cell_angle_gamma    71.058

_symmetry_space_group_name_H-M    "P 1"
_symmetry_int_tables_number       1

loop_
  _symmetry_equiv_pos_as_xyz
  'x, y, z'

loop_
  _atom_site_label
  _atom_site_occupancy
  _atom_site_fract_x
  _atom_site_fract_y
  _atom_site_fract_z
  _atom_site_thermal_displace_type
  _atom_site_B_iso_or_equiv
  _atom_site_type_symbol
  Cu1      1.0000 0.68038  0.43140  0.51437  Biso   1.000  Cu
  Cu2      1.0000 0.31962  0.56860  0.48563  Biso   1.000  Cu
  Cu3      1.0000 0.83108  0.11018  0.10222  Biso   1.000  Cu
  Cu4      1.0000 0.16892  0.88982  0.89778  Biso   1.000  Cu
  V1       1.0000 0.88122  0.17433  0.57176  Biso   1.000  V
  V2       1.0000 0.11878  0.82567  0.42824  Biso   1.000  V
  V3       1.0000 0.70180  0.50932  0.95919  Biso   1.000  V
  V4       1.0000 0.29820  0.49068  0.04081  Biso   1.000  V
  P1       1.0000 0.57051  0.26866  0.67964  Biso   1.000  P
  P2       1.0000 0.42949  0.73134  0.32036  Biso   1.000  P
  P3       1.0000 0.57991  0.31193  0.02920  Biso   1.000  P
  P4       1.0000 0.42009  0.68807  0.97080  Biso   1.000  P
  P5       1.0000 0.16356  0.03921  0.46940  Biso   1.000  P
  P6       1.0000 0.83644  0.96079  0.53060  Biso   1.000  P
  P7       1.0000 0.69730  0.95410  0.27772  Biso   1.000  P
  P8       1.0000 0.30270  0.04590  0.72228  Biso   1.000  P
  P9       1.0000 0.83050  0.95480  0.57350  Biso   1.000  P
  P10      1.0000 0.16950  0.04520  0.42650  Biso   1.000  P
  P11      1.0000 0.65200  0.99280  0.27220  Biso   1.000  P
  P12      1.0000 0.34800  0.00720  0.72780  Biso   1.000  P
  O1       1.0000 0.58020  0.37920  0.63292  Biso   1.000  O
  O2       1.0000 0.41980  0.62080  0.36708  Biso   1.000  O
  O3       1.0000 0.83570  0.28770  0.50540  Biso   1.000  O
  O4       1.0000 0.16430  0.71230  0.49460  Biso   1.000  O
  O5       1.0000 0.45990  0.24560  0.65290  Biso   1.000  O
  O6       1.0000 0.54010  0.75440  0.34710  Biso   1.000  O
  H1       1.0000 0.48670  0.18680  0.64070  Biso   1.000  H
  H2       1.0000 0.51330  0.81320  0.35930  Biso   1.000  H
  O7       1.0000 0.70370  0.18710  0.66280  Biso   1.000  O
  O8       1.0000 0.29630  0.81290  0.33720  Biso   1.000  O
  O9       1.0000 0.95570  0.19080  0.63930  Biso   1.000  O
  O10      1.0000 0.04430  0.80920  0.36070  Biso   1.000  O
  O11      1.0000 0.04500  0.13410  0.47440  Biso   1.000  O
  O12      1.0000 0.95500  0.86590  0.52560  Biso   1.000  O
  O13      1.0000 0.19840  0.98690  0.56160  Biso   1.000  O
  O14      1.0000 0.80160  0.01310  0.43840  Biso   1.000  O
  O15      1.0000 0.14520  0.96090  0.42500  Biso   1.000  O
  O16      1.0000 0.85480  0.03910  0.57500  Biso   1.000  O
  O17      1.0000 0.83650  0.51910  0.87880  Biso   1.000  O
  O18      1.0000 0.16350  0.48090  0.12120  Biso   1.000  O
  O19      1.0000 0.72300  0.52690  0.04990  Biso   1.000  O
  O20      1.0000 0.27700  0.47310  0.95010  Biso   1.000  O
  O21      1.0000 0.68170  0.37640  0.96910  Biso   1.000  O
  O22      1.0000 0.31830  0.62360  0.03090  Biso   1.000  O
  O23      1.0000 0.44900  0.39140  0.07110  Biso   1.000  O
  O24      1.0000 0.55100  0.60860  0.92890  Biso   1.000  O
  O25      1.0000 0.63340  0.22750  0.10130  Biso   1.000  O
  O26      1.0000 0.36660  0.77250  0.89870  Biso   1.000  O
  O27      1.0000 0.79900  0.00660  0.20670  Biso   1.000  O
  O28      1.0000 0.20100  0.99340  0.79330  Biso   1.000  O
  O29      1.0000 0.66550  0.87670  0.24180  Biso   1.000  O
  O30      1.0000 0.33450  0.12330  0.75820  Biso   1.000  O
  O31      1.0000 0.74680  0.89830  0.36440  Biso   1.000  O
  O32      1.0000 0.25320  0.10170  0.63560  Biso   1.000  O
  O33      1.0000 0.37500  0.14330  0.24710  Biso   1.000  O
  O34      1.0000 0.62500  0.85670  0.75290  Biso   1.000  O
  N1       1.0000 0.61070  0.39550  0.42290  Biso   1.000  N
  N2       1.0000 0.38930  0.60450  0.57710  Biso   1.000  N
  N3       1.0000 0.75150  0.52040  0.40230  Biso   1.000  N
  N4       1.0000 0.24850  0.47960  0.59770  Biso   1.000  N
  N5       1.0000 0.76640  0.50890  0.56290  Biso   1.000  N
  N6       1.0000 0.23360  0.49110  0.43710  Biso   1.000  N
  N7       1.0000 0.18120  0.95690  0.99520  Biso   1.000  N
  N8       1.0000 0.81880  0.04310  0.00480  Biso   1.000  N
  N9       1.0000 0.06930  0.81440  0.00640  Biso   1.000  N
  N10      1.0000 0.93070  0.18560  0.99360  Biso   1.000  N
  N11      1.0000 0.09430  0.81300  0.84120  Biso   1.000  N
  N12      1.0000 0.90570  0.18700  0.15880  Biso   1.000  N
  C1       1.0000 0.53710  0.32700  0.44050  Biso   1.000  C
  C2       1.0000 0.46290  0.67300  0.55950  Biso   1.000  C
  H3       1.0000 0.50450  0.29670  0.50050  Biso   1.000  H
  H4       1.0000 0.49550  0.70330  0.49950  Biso   1.000  H
  C3       1.0000 0.50820  0.30010  0.37200  Biso   1.000  C
  C4       1.0000 0.49180  0.69990  0.62800  Biso   1.000  C
  H5       1.0000 0.45470  0.25400  0.38620  Biso   1.000  H
  H6       1.0000 0.54530  0.74600  0.61380  Biso   1.000  H
  C5       1.0000 0.55870  0.34180  0.28310  Biso   1.000  C
  C6       1.0000 0.44130  0.65820  0.71690  Biso   1.000  C
  H7       1.0000 0.54170  0.32310  0.23630  Biso   1.000  H
  H8       1.0000 0.45830  0.67690  0.76370  Biso   1.000  H
  C7       1.0000 0.63540  0.41200  0.26400  Biso   1.000  C
  C8       1.0000 0.36460  0.58800  0.73600  Biso   1.000  C
  H9       1.0000 0.67000  0.44180  0.20420  Biso   1.000  H
  H10      1.0000 0.33000  0.55820  0.79580  Biso   1.000  H
  C9       1.0000 0.66000  0.43740  0.33470  Biso   1.000  C
  C10      1.0000 0.34000  0.56260  0.66530  Biso   1.000  C
  C11      1.0000 0.74050  0.51150  0.32300  Biso   1.000  C
  C12      1.0000 0.25950  0.48850  0.67700  Biso   1.000  C
  C13      1.0000 0.80120  0.56830  0.24210  Biso   1.000  C
  C14      1.0000 0.19880  0.43170  0.75790  Biso   1.000  C
  H11      1.0000 0.79580  0.56050  0.18680  Biso   1.000  H
  H12      1.0000 0.20420  0.43950  0.81320  Biso   1.000  H
  C15      1.0000 0.87060  0.63750  0.24410  Biso   1.000  C
  C16      1.0000 0.12940  0.36250  0.75590  Biso   1.000  C
  C17      1.0000 0.87570  0.64690  0.32900  Biso   1.000  C
  C18      1.0000 0.12430  0.35310  0.67100  Biso   1.000  C
  H13      1.0000 0.91820  0.69380  0.33310  Biso   1.000  H
  H14      1.0000 0.08180  0.30620  0.66690  Biso   1.000  H
  C19      1.0000 0.81710  0.58570  0.40610  Biso   1.000  C
  C20      1.0000 0.18290  0.41430  0.59390  Biso   1.000  C
  C21      1.0000 0.82320  0.58200  0.49910  Biso   1.000  C
  C22      1.0000 0.17680  0.41800  0.50090  Biso   1.000  C
  C23      1.0000 0.88220  0.64490  0.51960  Biso   1.000  C
  C24      1.0000 0.11780  0.35510  0.48040  Biso   1.000  C
  H15      1.0000 0.91870  0.69510  0.47480  Biso   1.000  H
  H16      1.0000 0.08130  0.30490  0.52520  Biso   1.000  H
  C25      1.0000 0.88510  0.63060  0.61000  Biso   1.000  C
  C26      1.0000 0.11490  0.36940  0.39000  Biso   1.000  C
  H17      1.0000 0.92370  0.67180  0.62640  Biso   1.000  H
  H18      1.0000 0.07630  0.32820  0.37360  Biso   1.000  H
  C27      1.0000 0.83070  0.55540  0.67470  Biso   1.000  C
  C28      1.0000 0.16930  0.44460  0.32530  Biso   1.000  C
  H19      1.0000 0.83360  0.54450  0.73490  Biso   1.000  H
  H20      1.0000 0.16640  0.45550  0.26510  Biso   1.000  H
  C29      1.0000 0.77130  0.49610  0.64880  Biso   1.000  C
  C30      1.0000 0.22870  0.50390  0.35120  Biso   1.000  C
  H21      1.0000 0.73380  0.44580  0.69270  Biso   1.000  H
  H22      1.0000 0.26620  0.55420  0.30730  Biso   1.000  H
  C31      1.0000 0.24800  0.02910  0.98140  Biso   1.000  C
  C32      1.0000 0.75200  0.97090  0.01860  Biso   1.000  C
  H23      1.0000 0.28210  0.06100  0.92230  Biso   1.000  H
  H24      1.0000 0.71790  0.93900  0.07770  Biso   1.000  H
  C33      1.0000 0.26760  0.05750  0.05380  Biso   1.000  C
  C34      1.0000 0.73240  0.94250  0.94620  Biso   1.000  C
  H25      1.0000 0.31490  0.10710  0.04300  Biso   1.000  H
  H26      1.0000 0.68510  0.89290  0.95700  Biso   1.000  H
  C35      1.0000 0.21510  0.01020  0.14190  Biso   1.000  C
  C36      1.0000 0.78490  0.98980  0.85810  Biso   1.000  C
  H27      1.0000 0.22780  0.02760  0.19090  Biso   1.000  H
  H28      1.0000 0.77220  0.97240  0.80910  Biso   1.000  H
  C37      1.0000 0.14360  0.93670  0.15660  Biso   1.000  C
  C38      1.0000 0.85640  0.06330  0.84340  Biso   1.000  C
  H29      1.0000 0.10640  0.90530  0.21520  Biso   1.000  H
  H30      1.0000 0.89360  0.09470  0.78480  Biso   1.000  H
  C39      1.0000 0.12930  0.91170  0.08180  Biso   1.000  C
  C40      1.0000 0.87070  0.08830  0.91820  Biso   1.000  C
  C41      1.0000 0.06080  0.83150  0.08760  Biso   1.000  C
  C42      1.0000 0.93920  0.16850  0.91240  Biso   1.000  C
  C43      1.0000 0.99500  0.77570  0.16640  Biso   1.000  C
  C44      1.0000 0.00500  0.22430  0.83360  Biso   1.000  C
  H31      1.0000 0.98870  0.78800  0.22280  Biso   1.000  H
  H32      1.0000 0.01130  0.21200  0.77720  Biso   1.000  H
  C45      1.0000 0.93810  0.70030  0.16010  Biso   1.000  C
  C46      1.0000 0.06190  0.29970  0.83990  Biso   1.000  C
  C47      1.0000 0.94830  0.68530  0.07370  Biso   1.000  C
  C48      1.0000 0.05170  0.31470  0.92630  Biso   1.000  C
  H33      1.0000 0.91120  0.63630  0.06740  Biso   1.000  H
  H34      1.0000 0.08880  0.36370  0.93260  Biso   1.000  H
  C49      1.0000 0.01470  0.74490  0.99780  Biso   1.000  C
  C50      1.0000 0.98530  0.25510  0.00220  Biso   1.000  C
  C51      1.0000 0.02940  0.74270  0.90180  Biso   1.000  C
  C52      1.0000 0.97060  0.25730  0.09820  Biso   1.000  C
  C53      1.0000 0.97710  0.68170  0.87480  Biso   1.000  C
  C54      1.0000 0.02290  0.31830  0.12520  Biso   1.000  C
  H35      1.0000 0.93480  0.63310  0.91730  Biso   1.000  H
  H36      1.0000 0.06520  0.36690  0.08270  Biso   1.000  H
  C55      1.0000 0.98810  0.69360  0.78220  Biso   1.000  C
  C56      1.0000 0.01190  0.30640  0.21780  Biso   1.000  C
  H37      1.0000 0.95300  0.65290  0.76240  Biso   1.000  H
  H38      1.0000 0.04700  0.34710  0.23760  Biso   1.000  H
  C57      1.0000 0.05160  0.76630  0.72020  Biso   1.000  C
  C58      1.0000 0.94840  0.23370  0.27980  Biso   1.000  C
  H39      1.0000 0.05900  0.77580  0.65840  Biso   1.000  H
  H40      1.0000 0.94100  0.22420  0.34160  Biso   1.000  H
  C59      1.0000 0.10400  0.82490  0.75240  Biso   1.000  C
  C60      1.0000 0.89600  0.17510  0.24760  Biso   1.000  C
  H41      1.0000 0.14710  0.87380  0.71120  Biso   1.000  H
  H42      1.0000 0.85290  0.12620  0.28880  Biso   1.000  H
  C61      1.0000 0.51200  0.25870  0.80090  Biso   1.000  C
  C62      1.0000 0.48800  0.74130  0.19910  Biso   1.000  C
  H43      1.0000 0.41650  0.29370  0.81440  Biso   1.000  H
  H44      1.0000 0.58350  0.70630  0.18560  Biso   1.000  H
  H45      1.0000 0.52060  0.18500  0.82770  Biso   1.000  H
  H46      1.0000 0.47940  0.81500  0.17230  Biso   1.000  H
  C63      1.0000 0.57740  0.30150  0.85040  Biso   1.000  C
  C64      1.0000 0.42260  0.69850  0.14960  Biso   1.000  C
  H47      1.0000 0.54720  0.37750  0.83960  Biso   1.000  H
  H48      1.0000 0.45280  0.62250  0.16040  Biso   1.000  H
  H49      1.0000 0.67460  0.28130  0.82770  Biso   1.000  H
  H50      1.0000 0.32540  0.71870  0.17230  Biso   1.000  H
  C65      1.0000 0.53820  0.25720  0.95310  Biso   1.000  C
  C66      1.0000 0.46180  0.74280  0.04690  Biso   1.000  C
  H51      1.0000 0.58060  0.18240  0.96250  Biso   1.000  H
  H52      1.0000 0.41940  0.81760  0.03750  Biso   1.000  H
  H53      1.0000 0.44150  0.26590  0.97120  Biso   1.000  H
  H54      1.0000 0.55850  0.73410  0.02880  Biso   1.000  H
  C67      1.0000 0.30070  0.09090  0.39450  Biso   1.000  C
  C68      1.0000 0.69930  0.90910  0.60550  Biso   1.000  C
  H55      1.0000 0.31440  0.14050  0.42200  Biso   1.000  H
  H56      1.0000 0.68560  0.85950  0.57800  Biso   1.000  H
  H57      1.0000 0.27650  0.12890  0.33810  Biso   1.000  H
  H58      1.0000 0.72350  0.87110  0.66190  Biso   1.000  H
  C69      1.0000 0.54540  0.05530  0.30330  Biso   1.000  C
  C70      1.0000 0.45460  0.94470  0.69670  Biso   1.000  C
  H59      1.0000 0.56200  0.10580  0.32800  Biso   1.000  H
  H60      1.0000 0.43800  0.89420  0.67200  Biso   1.000  H
  H61      1.0000 0.51680  0.09160  0.24790  Biso   1.000  H
  H62      1.0000 0.48320  0.90840  0.75210  Biso   1.000  H
  C71      1.0000 0.43160  0.00760  0.37340  Biso   1.000  C
  C72      1.0000 0.56840  0.99240  0.62660  Biso   1.000  C
  H63      1.0000 0.41730  0.95550  0.34910  Biso   1.000  H
  H64      1.0000 0.58270  0.04450  0.65090  Biso   1.000  H
  H65      1.0000 0.45980  0.97270  0.42900  Biso   1.000  H
  H66      1.0000 0.54020  0.02730  0.57100  Biso   1.000  H
  H67      1.0000 0.28500  0.02000  0.58000  Biso   1.000  H
  H68      1.0000 0.71500  0.98000  0.42000  Biso   1.000  H
