data_image0
_cell_length_a       20.8359
_cell_length_b       13.3393
_cell_length_c       15.8184
_cell_angle_alpha    90
_cell_angle_beta     112.368
_cell_angle_gamma    90

_symmetry_space_group_name_H-M    "P 1"
_symmetry_int_tables_number       1

loop_
  _symmetry_equiv_pos_as_xyz
  'x, y, z'

loop_
  _atom_site_label
  _atom_site_occupancy
  _atom_site_fract_x
  _atom_site_fract_y
  _atom_site_fract_z
  _atom_site_thermal_displace_type
  _atom_site_B_iso_or_equiv
  _atom_site_type_symbol
  Cu1      1.0000 0.27376  0.38820  0.96256  Biso   1.000  Cu
  Cu2      1.0000 0.77376  0.88820  0.96256  Biso   1.000  Cu
  Cu3      1.0000 0.72624  0.38820  0.53744  Biso   1.000  Cu
  Cu4      1.0000 0.22624  0.88820  0.53744  Biso   1.000  Cu
  Cu5      1.0000 0.72624  0.61180  0.03744  Biso   1.000  Cu
  Cu6      1.0000 0.22624  0.11180  0.03744  Biso   1.000  Cu
  Cu7      1.0000 0.27376  0.61180  0.46256  Biso   1.000  Cu
  Cu8      1.0000 0.77376  0.11180  0.46256  Biso   1.000  Cu
  V1       1.0000 0.57691  0.34132  0.04917  Biso   1.000  V
  V2       1.0000 0.07691  0.84132  0.04917  Biso   1.000  V
  V3       1.0000 0.42309  0.34132  0.45083  Biso   1.000  V
  V4       1.0000 0.92309  0.84132  0.45083  Biso   1.000  V
  V5       1.0000 0.42309  0.65868  0.95083  Biso   1.000  V
  V6       1.0000 0.92309  0.15868  0.95083  Biso   1.000  V
  V7       1.0000 0.57691  0.65868  0.54917  Biso   1.000  V
  V8       1.0000 0.07691  0.15868  0.54917  Biso   1.000  V
  P1       1.0000 0.55935  0.12916  0.94232  Biso   1.000  P
  P2       1.0000 0.05935  0.62916  0.94232  Biso   1.000  P
  P3       1.0000 0.44065  0.12916  0.55768  Biso   1.000  P
  P4       1.0000 0.94065  0.62916  0.55768  Biso   1.000  P
  P5       1.0000 0.44065  0.87084  0.05768  Biso   1.000  P
  P6       1.0000 0.94065  0.37084  0.05768  Biso   1.000  P
  P7       1.0000 0.55935  0.87084  0.44232  Biso   1.000  P
  P8       1.0000 0.05935  0.37084  0.44232  Biso   1.000  P
  P9       1.0000 0.43542  0.43432  0.05263  Biso   1.000  P
  P10      1.0000 0.93542  0.93432  0.05263  Biso   1.000  P
  P11      1.0000 0.56458  0.43432  0.44737  Biso   1.000  P
  P12      1.0000 0.06458  0.93432  0.44737  Biso   1.000  P
  P13      1.0000 0.56458  0.56568  0.94737  Biso   1.000  P
  P14      1.0000 0.06458  0.06568  0.94737  Biso   1.000  P
  P15      1.0000 0.43542  0.56568  0.55263  Biso   1.000  P
  P16      1.0000 0.93542  0.06568  0.55263  Biso   1.000  P
  F1       1.0000 0.64018  0.32426  0.98717  Biso   1.000  F
  F2       1.0000 0.14018  0.82426  0.98717  Biso   1.000  F
  F3       1.0000 0.35982  0.32426  0.51283  Biso   1.000  F
  F4       1.0000 0.85982  0.82426  0.51283  Biso   1.000  F
  F5       1.0000 0.35982  0.67574  0.01283  Biso   1.000  F
  F6       1.0000 0.85982  0.17574  0.01283  Biso   1.000  F
  F7       1.0000 0.64018  0.67574  0.48717  Biso   1.000  F
  F8       1.0000 0.14018  0.17574  0.48717  Biso   1.000  F
  O1       1.0000 0.48050  0.35107  0.03758  Biso   1.000  O
  O2       1.0000 0.98050  0.85107  0.03758  Biso   1.000  O
  O3       1.0000 0.51950  0.35107  0.46242  Biso   1.000  O
  O4       1.0000 0.01950  0.85107  0.46242  Biso   1.000  O
  O5       1.0000 0.51950  0.64893  0.96242  Biso   1.000  O
  O6       1.0000 0.01950  0.14893  0.96242  Biso   1.000  O
  O7       1.0000 0.48050  0.64893  0.53758  Biso   1.000  O
  O8       1.0000 0.98050  0.14893  0.53758  Biso   1.000  O
  O9       1.0000 0.42425  0.51745  0.98253  Biso   1.000  O
  O10      1.0000 0.92425  0.01745  0.98253  Biso   1.000  O
  O11      1.0000 0.57575  0.51745  0.51747  Biso   1.000  O
  O12      1.0000 0.07575  0.01745  0.51747  Biso   1.000  O
  O13      1.0000 0.57575  0.48255  0.01747  Biso   1.000  O
  O14      1.0000 0.07575  0.98255  0.01747  Biso   1.000  O
  O15      1.0000 0.42425  0.48255  0.48253  Biso   1.000  O
  O16      1.0000 0.92425  0.98255  0.48253  Biso   1.000  O
  O17      1.0000 0.36706  0.38931  0.04856  Biso   1.000  O
  O18      1.0000 0.86706  0.88931  0.04856  Biso   1.000  O
  O19      1.0000 0.63294  0.38931  0.45144  Biso   1.000  O
  O20      1.0000 0.13294  0.88931  0.45144  Biso   1.000  O
  O21      1.0000 0.63294  0.61069  0.95144  Biso   1.000  O
  O22      1.0000 0.13294  0.11069  0.95144  Biso   1.000  O
  O23      1.0000 0.36706  0.61069  0.54856  Biso   1.000  O
  O24      1.0000 0.86706  0.11069  0.54856  Biso   1.000  O
  O25      1.0000 0.51970  0.03290  0.93530  Biso   1.000  O
  O26      1.0000 0.01970  0.53290  0.93530  Biso   1.000  O
  O27      1.0000 0.48030  0.03290  0.56470  Biso   1.000  O
  O28      1.0000 0.98030  0.53290  0.56470  Biso   1.000  O
  O29      1.0000 0.48030  0.96710  0.06470  Biso   1.000  O
  O30      1.0000 0.98030  0.46710  0.06470  Biso   1.000  O
  O31      1.0000 0.51970  0.96710  0.43530  Biso   1.000  O
  O32      1.0000 0.01970  0.46710  0.43530  Biso   1.000  O
  O33      1.0000 0.55360  0.19760  0.01841  Biso   1.000  O
  O34      1.0000 0.05360  0.69760  0.01841  Biso   1.000  O
  O35      1.0000 0.44640  0.19760  0.48159  Biso   1.000  O
  O36      1.0000 0.94640  0.69760  0.48159  Biso   1.000  O
  O37      1.0000 0.44640  0.80240  0.98159  Biso   1.000  O
  O38      1.0000 0.94640  0.30240  0.98159  Biso   1.000  O
  O39      1.0000 0.55360  0.80240  0.51841  Biso   1.000  O
  O40      1.0000 0.05360  0.30240  0.51841  Biso   1.000  O
  O41      1.0000 0.63150  0.08500  0.96180  Biso   1.000  O
  O42      1.0000 0.13150  0.58500  0.96180  Biso   1.000  O
  O43      1.0000 0.36850  0.08500  0.53820  Biso   1.000  O
  O44      1.0000 0.86850  0.58500  0.53820  Biso   1.000  O
  O45      1.0000 0.36850  0.91500  0.03820  Biso   1.000  O
  O46      1.0000 0.86850  0.41500  0.03820  Biso   1.000  O
  O47      1.0000 0.63150  0.91500  0.46180  Biso   1.000  O
  O48      1.0000 0.13150  0.41500  0.46180  Biso   1.000  O
  O49      1.0000 0.63360  0.13670  0.94490  Biso   1.000  O
  O50      1.0000 0.13360  0.63670  0.94490  Biso   1.000  O
  O51      1.0000 0.36640  0.13670  0.55510  Biso   1.000  O
  O52      1.0000 0.86640  0.63670  0.55510  Biso   1.000  O
  O53      1.0000 0.36640  0.86330  0.05510  Biso   1.000  O
  O54      1.0000 0.86640  0.36330  0.05510  Biso   1.000  O
  O55      1.0000 0.63360  0.86330  0.44490  Biso   1.000  O
  O56      1.0000 0.13360  0.36330  0.44490  Biso   1.000  O
  O57      1.0000 0.62102  0.33908  0.15626  Biso   1.000  O
  O58      1.0000 0.12102  0.83908  0.15626  Biso   1.000  O
  O59      1.0000 0.37898  0.33908  0.34374  Biso   1.000  O
  O60      1.0000 0.87898  0.83908  0.34374  Biso   1.000  O
  O61      1.0000 0.37898  0.66092  0.84374  Biso   1.000  O
  O62      1.0000 0.87898  0.16092  0.84374  Biso   1.000  O
  O63      1.0000 0.62102  0.66092  0.65626  Biso   1.000  O
  O64      1.0000 0.12102  0.16092  0.65626  Biso   1.000  O
  O65      1.0000 0.25249  0.55092  0.93331  Biso   1.000  O
  O66      1.0000 0.75249  0.05092  0.93331  Biso   1.000  O
  O67      1.0000 0.74751  0.55092  0.56669  Biso   1.000  O
  O68      1.0000 0.24751  0.05092  0.56669  Biso   1.000  O
  O69      1.0000 0.74751  0.44908  0.06669  Biso   1.000  O
  O70      1.0000 0.24751  0.94908  0.06669  Biso   1.000  O
  O71      1.0000 0.25249  0.44908  0.43331  Biso   1.000  O
  O72      1.0000 0.75249  0.94908  0.43331  Biso   1.000  O
  N1       1.0000 0.28018  0.37057  0.83705  Biso   1.000  N
  N2       1.0000 0.78018  0.87057  0.83705  Biso   1.000  N
  N3       1.0000 0.71982  0.37057  0.66295  Biso   1.000  N
  N4       1.0000 0.21982  0.87057  0.66295  Biso   1.000  N
  N5       1.0000 0.71982  0.62943  0.16295  Biso   1.000  N
  N6       1.0000 0.21982  0.12943  0.16295  Biso   1.000  N
  N7       1.0000 0.28018  0.62943  0.33705  Biso   1.000  N
  N8       1.0000 0.78018  0.12943  0.33705  Biso   1.000  N
  N9       1.0000 0.17735  0.35936  0.88724  Biso   1.000  N
  N10      1.0000 0.67735  0.85936  0.88724  Biso   1.000  N
  N11      1.0000 0.82265  0.35936  0.61276  Biso   1.000  N
  N12      1.0000 0.32265  0.85936  0.61276  Biso   1.000  N
  N13      1.0000 0.82265  0.64064  0.11276  Biso   1.000  N
  N14      1.0000 0.32265  0.14064  0.11276  Biso   1.000  N
  N15      1.0000 0.17735  0.64064  0.38724  Biso   1.000  N
  N16      1.0000 0.67735  0.14064  0.38724  Biso   1.000  N
  N17      1.0000 0.23316  0.37326  0.06047  Biso   1.000  N
  N18      1.0000 0.73316  0.87326  0.06047  Biso   1.000  N
  N19      1.0000 0.76684  0.37326  0.43953  Biso   1.000  N
  N20      1.0000 0.26684  0.87326  0.43953  Biso   1.000  N
  N21      1.0000 0.76684  0.62674  0.93953  Biso   1.000  N
  N22      1.0000 0.26684  0.12674  0.93953  Biso   1.000  N
  N23      1.0000 0.23316  0.62674  0.56047  Biso   1.000  N
  N24      1.0000 0.73316  0.12674  0.56047  Biso   1.000  N
  C1       1.0000 0.33725  0.37100  0.81720  Biso   1.000  C
  C2       1.0000 0.83725  0.87100  0.81720  Biso   1.000  C
  C3       1.0000 0.66275  0.37100  0.68280  Biso   1.000  C
  C4       1.0000 0.16275  0.87100  0.68280  Biso   1.000  C
  C5       1.0000 0.66275  0.62900  0.18280  Biso   1.000  C
  C6       1.0000 0.16275  0.12900  0.18280  Biso   1.000  C
  C7       1.0000 0.33725  0.62900  0.31720  Biso   1.000  C
  C8       1.0000 0.83725  0.12900  0.31720  Biso   1.000  C
  H1       1.0000 0.38130  0.37800  0.86560  Biso   1.000  H
  H2       1.0000 0.88130  0.87800  0.86560  Biso   1.000  H
  H3       1.0000 0.61870  0.37800  0.63440  Biso   1.000  H
  H4       1.0000 0.11870  0.87800  0.63440  Biso   1.000  H
  H5       1.0000 0.61870  0.62200  0.13440  Biso   1.000  H
  H6       1.0000 0.11870  0.12200  0.13440  Biso   1.000  H
  H7       1.0000 0.38130  0.62200  0.36560  Biso   1.000  H
  H8       1.0000 0.88130  0.12200  0.36560  Biso   1.000  H
  C9       1.0000 0.33440  0.36160  0.72840  Biso   1.000  C
  C10      1.0000 0.83440  0.86160  0.72840  Biso   1.000  C
  C11      1.0000 0.66560  0.36160  0.77160  Biso   1.000  C
  C12      1.0000 0.16560  0.86160  0.77160  Biso   1.000  C
  C13      1.0000 0.66560  0.63840  0.27160  Biso   1.000  C
  C14      1.0000 0.16560  0.13840  0.27160  Biso   1.000  C
  C15      1.0000 0.33440  0.63840  0.22840  Biso   1.000  C
  C16      1.0000 0.83440  0.13840  0.22840  Biso   1.000  C
  H9       1.0000 0.37580  0.36100  0.71670  Biso   1.000  H
  H10      1.0000 0.87580  0.86100  0.71670  Biso   1.000  H
  H11      1.0000 0.62420  0.36100  0.78330  Biso   1.000  H
  H12      1.0000 0.12420  0.86100  0.78330  Biso   1.000  H
  H13      1.0000 0.62420  0.63900  0.28330  Biso   1.000  H
  H14      1.0000 0.12420  0.13900  0.28330  Biso   1.000  H
  H15      1.0000 0.37580  0.63900  0.21670  Biso   1.000  H
  H16      1.0000 0.87580  0.13900  0.21670  Biso   1.000  H
  C17      1.0000 0.27004  0.35320  0.65700  Biso   1.000  C
  C18      1.0000 0.77004  0.85320  0.65700  Biso   1.000  C
  C19      1.0000 0.72996  0.35320  0.84300  Biso   1.000  C
  C20      1.0000 0.22996  0.85320  0.84300  Biso   1.000  C
  C21      1.0000 0.72996  0.64680  0.34300  Biso   1.000  C
  C22      1.0000 0.22996  0.14680  0.34300  Biso   1.000  C
  C23      1.0000 0.27004  0.64680  0.15700  Biso   1.000  C
  C24      1.0000 0.77004  0.14680  0.15700  Biso   1.000  C
  H17      1.0000 0.26680  0.34690  0.59570  Biso   1.000  H
  H18      1.0000 0.76680  0.84690  0.59570  Biso   1.000  H
  H19      1.0000 0.73320  0.34690  0.90430  Biso   1.000  H
  H20      1.0000 0.23320  0.84690  0.90430  Biso   1.000  H
  H21      1.0000 0.73320  0.65310  0.40430  Biso   1.000  H
  H22      1.0000 0.23320  0.15310  0.40430  Biso   1.000  H
  H23      1.0000 0.26680  0.65310  0.09570  Biso   1.000  H
  H24      1.0000 0.76680  0.15310  0.09570  Biso   1.000  H
  C25      1.0000 0.21074  0.35420  0.67672  Biso   1.000  C
  C26      1.0000 0.71074  0.85420  0.67672  Biso   1.000  C
  C27      1.0000 0.78926  0.35420  0.82328  Biso   1.000  C
  C28      1.0000 0.28926  0.85420  0.82328  Biso   1.000  C
  C29      1.0000 0.78926  0.64580  0.32328  Biso   1.000  C
  C30      1.0000 0.28926  0.14580  0.32328  Biso   1.000  C
  C31      1.0000 0.21074  0.64580  0.17672  Biso   1.000  C
  C32      1.0000 0.71074  0.14580  0.17672  Biso   1.000  C
  H25      1.0000 0.16620  0.34950  0.62900  Biso   1.000  H
  H26      1.0000 0.66620  0.84950  0.62900  Biso   1.000  H
  H27      1.0000 0.83380  0.34950  0.87100  Biso   1.000  H
  H28      1.0000 0.33380  0.84950  0.87100  Biso   1.000  H
  H29      1.0000 0.83380  0.65050  0.37100  Biso   1.000  H
  H30      1.0000 0.33380  0.15050  0.37100  Biso   1.000  H
  H31      1.0000 0.16620  0.65050  0.12900  Biso   1.000  H
  H32      1.0000 0.66620  0.15050  0.12900  Biso   1.000  H
  C33      1.0000 0.21725  0.36230  0.76701  Biso   1.000  C
  C34      1.0000 0.71725  0.86230  0.76701  Biso   1.000  C
  C35      1.0000 0.78275  0.36230  0.73299  Biso   1.000  C
  C36      1.0000 0.28275  0.86230  0.73299  Biso   1.000  C
  C37      1.0000 0.78275  0.63770  0.23299  Biso   1.000  C
  C38      1.0000 0.28275  0.13770  0.23299  Biso   1.000  C
  C39      1.0000 0.21725  0.63770  0.26701  Biso   1.000  C
  C40      1.0000 0.71725  0.13770  0.26701  Biso   1.000  C
  C41      1.0000 0.15762  0.35880  0.79601  Biso   1.000  C
  C42      1.0000 0.65762  0.85880  0.79601  Biso   1.000  C
  C43      1.0000 0.84238  0.35880  0.70399  Biso   1.000  C
  C44      1.0000 0.34238  0.85880  0.70399  Biso   1.000  C
  C45      1.0000 0.84238  0.64120  0.20399  Biso   1.000  C
  C46      1.0000 0.34238  0.14120  0.20399  Biso   1.000  C
  C47      1.0000 0.15762  0.64120  0.29601  Biso   1.000  C
  C48      1.0000 0.65762  0.14120  0.29601  Biso   1.000  C
  C49      1.0000 0.08776  0.35520  0.73942  Biso   1.000  C
  C50      1.0000 0.58776  0.85520  0.73942  Biso   1.000  C
  C51      1.0000 0.91224  0.35520  0.76058  Biso   1.000  C
  C52      1.0000 0.41224  0.85520  0.76058  Biso   1.000  C
  C53      1.0000 0.91224  0.64480  0.26058  Biso   1.000  C
  C54      1.0000 0.41224  0.14480  0.26058  Biso   1.000  C
  C55      1.0000 0.08776  0.64480  0.23942  Biso   1.000  C
  C56      1.0000 0.58776  0.14480  0.23942  Biso   1.000  C
  H33      1.0000 0.07390  0.35790  0.67490  Biso   1.000  H
  H34      1.0000 0.57390  0.85790  0.67490  Biso   1.000  H
  H35      1.0000 0.92610  0.35790  0.82510  Biso   1.000  H
  H36      1.0000 0.42610  0.85790  0.82510  Biso   1.000  H
  H37      1.0000 0.92610  0.64210  0.32510  Biso   1.000  H
  H38      1.0000 0.42610  0.14210  0.32510  Biso   1.000  H
  H39      1.0000 0.07390  0.64210  0.17490  Biso   1.000  H
  H40      1.0000 0.57390  0.14210  0.17490  Biso   1.000  H
  C57      1.0000 0.03786  0.34740  0.77899  Biso   1.000  C
  C58      1.0000 0.53786  0.84740  0.77899  Biso   1.000  C
  C59      1.0000 0.96214  0.34740  0.72101  Biso   1.000  C
  C60      1.0000 0.46214  0.84740  0.72101  Biso   1.000  C
  C61      1.0000 0.96214  0.65260  0.22101  Biso   1.000  C
  C62      1.0000 0.46214  0.15260  0.22101  Biso   1.000  C
  C63      1.0000 0.03786  0.65260  0.27899  Biso   1.000  C
  C64      1.0000 0.53786  0.15260  0.27899  Biso   1.000  C
  C65      1.0000 0.06056  0.34320  0.87421  Biso   1.000  C
  C66      1.0000 0.56056  0.84320  0.87421  Biso   1.000  C
  C67      1.0000 0.93944  0.34320  0.62579  Biso   1.000  C
  C68      1.0000 0.43944  0.84320  0.62579  Biso   1.000  C
  C69      1.0000 0.93944  0.65680  0.12579  Biso   1.000  C
  C70      1.0000 0.43944  0.15680  0.12579  Biso   1.000  C
  C71      1.0000 0.06056  0.65680  0.37421  Biso   1.000  C
  C72      1.0000 0.56056  0.15680  0.37421  Biso   1.000  C
  H41      1.0000 0.02830  0.33420  0.90280  Biso   1.000  H
  H42      1.0000 0.52830  0.83420  0.90280  Biso   1.000  H
  H43      1.0000 0.97170  0.33420  0.59720  Biso   1.000  H
  H44      1.0000 0.47170  0.83420  0.59720  Biso   1.000  H
  H45      1.0000 0.97170  0.66580  0.09720  Biso   1.000  H
  H46      1.0000 0.47170  0.16580  0.09720  Biso   1.000  H
  H47      1.0000 0.02830  0.66580  0.40280  Biso   1.000  H
  H48      1.0000 0.52830  0.16580  0.40280  Biso   1.000  H
  C73      1.0000 0.13122  0.35250  0.92649  Biso   1.000  C
  C74      1.0000 0.63122  0.85250  0.92649  Biso   1.000  C
  C75      1.0000 0.86878  0.35250  0.57351  Biso   1.000  C
  C76      1.0000 0.36878  0.85250  0.57351  Biso   1.000  C
  C77      1.0000 0.86878  0.64750  0.07351  Biso   1.000  C
  C78      1.0000 0.36878  0.14750  0.07351  Biso   1.000  C
  C79      1.0000 0.13122  0.64750  0.42649  Biso   1.000  C
  C80      1.0000 0.63122  0.14750  0.42649  Biso   1.000  C
  C81      1.0000 0.16348  0.36010  0.02724  Biso   1.000  C
  C82      1.0000 0.66348  0.86010  0.02724  Biso   1.000  C
  C83      1.0000 0.83652  0.36010  0.47276  Biso   1.000  C
  C84      1.0000 0.33652  0.86010  0.47276  Biso   1.000  C
  C85      1.0000 0.83652  0.63990  0.97276  Biso   1.000  C
  C86      1.0000 0.33652  0.13990  0.97276  Biso   1.000  C
  C87      1.0000 0.16348  0.63990  0.52724  Biso   1.000  C
  C88      1.0000 0.66348  0.13990  0.52724  Biso   1.000  C
  C89      1.0000 0.12637  0.35900  0.08370  Biso   1.000  C
  C90      1.0000 0.62637  0.85900  0.08370  Biso   1.000  C
  C91      1.0000 0.87363  0.35900  0.41630  Biso   1.000  C
  C92      1.0000 0.37363  0.85900  0.41630  Biso   1.000  C
  C93      1.0000 0.87363  0.64100  0.91630  Biso   1.000  C
  C94      1.0000 0.37363  0.14100  0.91630  Biso   1.000  C
  C95      1.0000 0.12637  0.64100  0.58370  Biso   1.000  C
  C96      1.0000 0.62637  0.14100  0.58370  Biso   1.000  C
  H49      1.0000 0.07770  0.34800  0.05930  Biso   1.000  H
  H50      1.0000 0.57770  0.84800  0.05930  Biso   1.000  H
  H51      1.0000 0.92230  0.34800  0.44070  Biso   1.000  H
  H52      1.0000 0.42230  0.84800  0.44070  Biso   1.000  H
  H53      1.0000 0.92230  0.65200  0.94070  Biso   1.000  H
  H54      1.0000 0.42230  0.15200  0.94070  Biso   1.000  H
  H55      1.0000 0.07770  0.65200  0.55930  Biso   1.000  H
  H56      1.0000 0.57770  0.15200  0.55930  Biso   1.000  H
  C97      1.0000 0.16205  0.37440  0.17690  Biso   1.000  C
  C98      1.0000 0.66205  0.87440  0.17690  Biso   1.000  C
  C99      1.0000 0.83795  0.37440  0.32310  Biso   1.000  C
  C100     1.0000 0.33795  0.87440  0.32310  Biso   1.000  C
  C101     1.0000 0.83795  0.62560  0.82310  Biso   1.000  C
  C102     1.0000 0.33795  0.12560  0.82310  Biso   1.000  C
  C103     1.0000 0.16205  0.62560  0.67690  Biso   1.000  C
  C104     1.0000 0.66205  0.12560  0.67690  Biso   1.000  C
  H57      1.0000 0.13770  0.37580  0.21680  Biso   1.000  H
  H58      1.0000 0.63770  0.87580  0.21680  Biso   1.000  H
  H59      1.0000 0.86230  0.37580  0.28320  Biso   1.000  H
  H60      1.0000 0.36230  0.87580  0.28320  Biso   1.000  H
  H61      1.0000 0.86230  0.62420  0.78320  Biso   1.000  H
  H62      1.0000 0.36230  0.12420  0.78320  Biso   1.000  H
  H63      1.0000 0.13770  0.62420  0.71680  Biso   1.000  H
  H64      1.0000 0.63770  0.12420  0.71680  Biso   1.000  H
  C105     1.0000 0.23347  0.38760  0.21116  Biso   1.000  C
  C106     1.0000 0.73347  0.88760  0.21116  Biso   1.000  C
  C107     1.0000 0.76653  0.38760  0.28884  Biso   1.000  C
  C108     1.0000 0.26653  0.88760  0.28884  Biso   1.000  C
  C109     1.0000 0.76653  0.61240  0.78884  Biso   1.000  C
  C110     1.0000 0.26653  0.11240  0.78884  Biso   1.000  C
  C111     1.0000 0.23347  0.61240  0.71116  Biso   1.000  C
  C112     1.0000 0.73347  0.11240  0.71116  Biso   1.000  C
  H65      1.0000 0.25860  0.39800  0.27470  Biso   1.000  H
  H66      1.0000 0.75860  0.89800  0.27470  Biso   1.000  H
  H67      1.0000 0.74140  0.39800  0.22530  Biso   1.000  H
  H68      1.0000 0.24140  0.89800  0.22530  Biso   1.000  H
  H69      1.0000 0.74140  0.60200  0.72530  Biso   1.000  H
  H70      1.0000 0.24140  0.10200  0.72530  Biso   1.000  H
  H71      1.0000 0.25860  0.60200  0.77470  Biso   1.000  H
  H72      1.0000 0.75860  0.10200  0.77470  Biso   1.000  H
  C113     1.0000 0.26735  0.38550  0.15078  Biso   1.000  C
  C114     1.0000 0.76735  0.88550  0.15078  Biso   1.000  C
  C115     1.0000 0.73265  0.38550  0.34922  Biso   1.000  C
  C116     1.0000 0.23265  0.88550  0.34922  Biso   1.000  C
  C117     1.0000 0.73265  0.61450  0.84922  Biso   1.000  C
  C118     1.0000 0.23265  0.11450  0.84922  Biso   1.000  C
  C119     1.0000 0.26735  0.61450  0.65078  Biso   1.000  C
  C120     1.0000 0.76735  0.11450  0.65078  Biso   1.000  C
  H73      1.0000 0.31640  0.39290  0.17410  Biso   1.000  H
  H74      1.0000 0.81640  0.89290  0.17410  Biso   1.000  H
  H75      1.0000 0.68360  0.39290  0.32590  Biso   1.000  H
  H76      1.0000 0.18360  0.89290  0.32590  Biso   1.000  H
  H77      1.0000 0.68360  0.60710  0.82590  Biso   1.000  H
  H78      1.0000 0.18360  0.10710  0.82590  Biso   1.000  H
  H79      1.0000 0.31640  0.60710  0.67410  Biso   1.000  H
  H80      1.0000 0.81640  0.10710  0.67410  Biso   1.000  H
  C121     1.0000 0.47888  0.49030  0.16405  Biso   1.000  C
  C122     1.0000 0.97888  0.99030  0.16405  Biso   1.000  C
  C123     1.0000 0.52112  0.49030  0.33595  Biso   1.000  C
  C124     1.0000 0.02112  0.99030  0.33595  Biso   1.000  C
  C125     1.0000 0.52112  0.50970  0.83595  Biso   1.000  C
  C126     1.0000 0.02112  0.00970  0.83595  Biso   1.000  C
  C127     1.0000 0.47888  0.50970  0.66405  Biso   1.000  C
  C128     1.0000 0.97888  0.00970  0.66405  Biso   1.000  C
  H81      1.0000 0.52150  0.52320  0.16410  Biso   1.000  H
  H82      1.0000 0.02150  0.02320  0.16410  Biso   1.000  H
  H83      1.0000 0.47850  0.52320  0.33590  Biso   1.000  H
  H84      1.0000 0.97850  0.02320  0.33590  Biso   1.000  H
  H85      1.0000 0.47850  0.47680  0.83590  Biso   1.000  H
  H86      1.0000 0.97850  0.97680  0.83590  Biso   1.000  H
  H87      1.0000 0.52150  0.47680  0.66410  Biso   1.000  H
  H88      1.0000 0.02150  0.97680  0.66410  Biso   1.000  H
  H89      1.0000 0.44840  0.54390  0.17080  Biso   1.000  H
  H90      1.0000 0.94840  0.04390  0.17080  Biso   1.000  H
  H91      1.0000 0.55160  0.54390  0.32920  Biso   1.000  H
  H92      1.0000 0.05160  0.04390  0.32920  Biso   1.000  H
  H93      1.0000 0.55160  0.45610  0.82920  Biso   1.000  H
  H94      1.0000 0.05160  0.95610  0.82920  Biso   1.000  H
  H95      1.0000 0.44840  0.45610  0.67080  Biso   1.000  H
  H96      1.0000 0.94840  0.95610  0.67080  Biso   1.000  H
  C129     1.0000 0.50000  0.42390  0.25000  Biso   1.000  C
  C130     1.0000 0.00000  0.92390  0.25000  Biso   1.000  C
  C131     1.0000 0.50000  0.57610  0.75000  Biso   1.000  C
  C132     1.0000 0.00000  0.07610  0.75000  Biso   1.000  C
  H97      1.0000 0.46060  0.38030  0.24660  Biso   1.000  H
  H98      1.0000 0.96060  0.88030  0.24660  Biso   1.000  H
  H99      1.0000 0.53940  0.38030  0.25340  Biso   1.000  H
  H100     1.0000 0.03940  0.88030  0.25340  Biso   1.000  H
  H101     1.0000 0.53940  0.61970  0.75340  Biso   1.000  H
  H102     1.0000 0.03940  0.11970  0.75340  Biso   1.000  H
  H103     1.0000 0.46060  0.61970  0.74660  Biso   1.000  H
  H104     1.0000 0.96060  0.11970  0.74660  Biso   1.000  H
  C133     1.0000 0.50000  0.12750  0.75000  Biso   1.000  C
  C134     1.0000 0.00000  0.62750  0.75000  Biso   1.000  C
  C135     1.0000 0.50000  0.87250  0.25000  Biso   1.000  C
  C136     1.0000 0.00000  0.37250  0.25000  Biso   1.000  C
  H105     1.0000 0.46000  0.08400  0.74380  Biso   1.000  H
  H106     1.0000 0.96000  0.58400  0.74380  Biso   1.000  H
  H107     1.0000 0.54000  0.08400  0.75620  Biso   1.000  H
  H108     1.0000 0.04000  0.58400  0.75620  Biso   1.000  H
  H109     1.0000 0.54000  0.91600  0.25620  Biso   1.000  H
  H110     1.0000 0.04000  0.41600  0.25620  Biso   1.000  H
  H111     1.0000 0.46000  0.91600  0.24380  Biso   1.000  H
  H112     1.0000 0.96000  0.41600  0.24380  Biso   1.000  H
  C137     1.0000 0.51780  0.19370  0.83520  Biso   1.000  C
  C138     1.0000 0.01780  0.69370  0.83520  Biso   1.000  C
  C139     1.0000 0.48220  0.19370  0.66480  Biso   1.000  C
  C140     1.0000 0.98220  0.69370  0.66480  Biso   1.000  C
  C141     1.0000 0.48220  0.80630  0.16480  Biso   1.000  C
  C142     1.0000 0.98220  0.30630  0.16480  Biso   1.000  C
  C143     1.0000 0.51780  0.80630  0.33520  Biso   1.000  C
  C144     1.0000 0.01780  0.30630  0.33520  Biso   1.000  C
  H113     1.0000 0.47450  0.22470  0.83460  Biso   1.000  H
  H114     1.0000 0.97450  0.72470  0.83460  Biso   1.000  H
  H115     1.0000 0.52550  0.22470  0.66540  Biso   1.000  H
  H116     1.0000 0.02550  0.72470  0.66540  Biso   1.000  H
  H117     1.0000 0.52550  0.77530  0.16540  Biso   1.000  H
  H118     1.0000 0.02550  0.27530  0.16540  Biso   1.000  H
  H119     1.0000 0.47450  0.77530  0.33460  Biso   1.000  H
  H120     1.0000 0.97450  0.27530  0.33460  Biso   1.000  H
  H121     1.0000 0.54860  0.24850  0.83150  Biso   1.000  H
  H122     1.0000 0.04860  0.74850  0.83150  Biso   1.000  H
  H123     1.0000 0.45140  0.24850  0.66850  Biso   1.000  H
  H124     1.0000 0.95140  0.74850  0.66850  Biso   1.000  H
  H125     1.0000 0.45140  0.75150  0.16850  Biso   1.000  H
  H126     1.0000 0.95140  0.25150  0.16850  Biso   1.000  H
  H127     1.0000 0.54860  0.75150  0.33150  Biso   1.000  H
  H128     1.0000 0.04860  0.25150  0.33150  Biso   1.000  H
