data_image0
_cell_length_a       10.9835
_cell_length_b       11.0327
_cell_length_c       21.7243
_cell_angle_alpha    90.985
_cell_angle_beta     96.692
_cell_angle_gamma    102.676

_symmetry_space_group_name_H-M    "P 1"
_symmetry_int_tables_number       1

loop_
  _symmetry_equiv_pos_as_xyz
  'x, y, z'

loop_
  _atom_site_label
  _atom_site_occupancy
  _atom_site_fract_x
  _atom_site_fract_y
  _atom_site_fract_z
  _atom_site_thermal_displace_type
  _atom_site_B_iso_or_equiv
  _atom_site_type_symbol
  Cu1      1.0000 0.92806  0.41375  0.42529  Biso   1.000  Cu
  Cu2      1.0000 0.07194  0.58625  0.57471  Biso   1.000  Cu
  Cu3      1.0000 0.57380  0.61295  0.06654  Biso   1.000  Cu
  Cu4      1.0000 0.42620  0.38705  0.93346  Biso   1.000  Cu
  V1       1.0000 0.06801  0.26070  0.21868  Biso   1.000  V
  V2       1.0000 0.93199  0.73930  0.78132  Biso   1.000  V
  V3       1.0000 0.86487  0.13378  0.33632  Biso   1.000  V
  V4       1.0000 0.13513  0.86622  0.66368  Biso   1.000  V
  V5       1.0000 0.61341  0.92742  0.11656  Biso   1.000  V
  V6       1.0000 0.38659  0.07258  0.88344  Biso   1.000  V
  V7       1.0000 0.38017  0.72371  0.27137  Biso   1.000  V
  V8       1.0000 0.61983  0.27629  0.72863  Biso   1.000  V
  P1       1.0000 0.12692  0.31219  0.36628  Biso   1.000  P
  P2       1.0000 0.87308  0.68781  0.63372  Biso   1.000  P
  P3       1.0000 0.87281  0.11474  0.10017  Biso   1.000  P
  P4       1.0000 0.12719  0.88526  0.89983  Biso   1.000  P
  P5       1.0000 0.58859  0.97588  0.26366  Biso   1.000  P
  P6       1.0000 0.41141  0.02412  0.73634  Biso   1.000  P
  P7       1.0000 0.37208  0.72443  0.11436  Biso   1.000  P
  P8       1.0000 0.62792  0.27557  0.88564  Biso   1.000  P
  F1       1.0000 0.12010  0.41690  0.18163  Biso   1.000  F
  F2       1.0000 0.87990  0.58310  0.81837  Biso   1.000  F
  F3       1.0000 0.84750  0.02250  0.39990  Biso   1.000  F
  F4       1.0000 0.15250  0.97750  0.60010  Biso   1.000  F
  F5       1.0000 0.60930  0.99600  0.03432  Biso   1.000  F
  F6       1.0000 0.39070  0.00400  0.96568  Biso   1.000  F
  F7       1.0000 0.42880  0.66540  0.34935  Biso   1.000  F
  F8       1.0000 0.57120  0.33460  0.65065  Biso   1.000  F
  O1       1.0000 0.81270  0.25250  0.35666  Biso   1.000  O
  O2       1.0000 0.18730  0.74750  0.64334  Biso   1.000  O
  O3       1.0000 0.09230  0.40710  0.40945  Biso   1.000  O
  O4       1.0000 0.90770  0.59290  0.59055  Biso   1.000  O
  O5       1.0000 0.12240  0.35740  0.29945  Biso   1.000  O
  O6       1.0000 0.87760  0.64260  0.70055  Biso   1.000  O
  O7       1.0000 0.04350  0.18180  0.36913  Biso   1.000  O
  O8       1.0000 0.95650  0.81820  0.63087  Biso   1.000  O
  O9       1.0000 0.16960  0.17820  0.21772  Biso   1.000  O
  O10      1.0000 0.83040  0.82180  0.78228  Biso   1.000  O
  O11      1.0000 0.91900  0.16990  0.25321  Biso   1.000  O
  O12      1.0000 0.08100  0.83010  0.74679  Biso   1.000  O
  O13      1.0000 0.72840  0.01670  0.28688  Biso   1.000  O
  O14      1.0000 0.27160  0.98330  0.71312  Biso   1.000  O
  O15      1.0000 0.96880  0.22240  0.13505  Biso   1.000  O
  O16      1.0000 0.03120  0.77760  0.86495  Biso   1.000  O
  O17      1.0000 0.76700  0.06320  0.13956  Biso   1.000  O
  O18      1.0000 0.23300  0.93680  0.86044  Biso   1.000  O
  O19      1.0000 0.81820  0.15960  0.03802  Biso   1.000  O
  O20      1.0000 0.18180  0.84040  0.96198  Biso   1.000  O
  O21      1.0000 0.56350  0.97720  0.19314  Biso   1.000  O
  O22      1.0000 0.43650  0.02280  0.80686  Biso   1.000  O
  O23      1.0000 0.53770  0.84830  0.28838  Biso   1.000  O
  O24      1.0000 0.46230  0.15170  0.71162  Biso   1.000  O
  O25      1.0000 0.67090  0.80490  0.11766  Biso   1.000  O
  O26      1.0000 0.32910  0.19510  0.88234  Biso   1.000  O
  O27      1.0000 0.43640  0.84990  0.09042  Biso   1.000  O
  O28      1.0000 0.56360  0.15010  0.90958  Biso   1.000  O
  O29      1.0000 0.40420  0.71510  0.18393  Biso   1.000  O
  O30      1.0000 0.59580  0.28490  0.81607  Biso   1.000  O
  O31      1.0000 0.26920  0.79280  0.27844  Biso   1.000  O
  O32      1.0000 0.73080  0.20720  0.72156  Biso   1.000  O
  O33      1.0000 0.29770  0.54000  0.25537  Biso   1.000  O
  O34      1.0000 0.70230  0.46000  0.74463  Biso   1.000  O
  O35      1.0000 0.40640  0.61640  0.07945  Biso   1.000  O
  O36      1.0000 0.59360  0.38360  0.92055  Biso   1.000  O
  O37      1.0000 0.63730  0.85380  0.43285  Biso   1.000  O
  O38      1.0000 0.36270  0.14620  0.56715  Biso   1.000  O
  N1       1.0000 0.90930  0.29710  0.49579  Biso   1.000  N
  N2       1.0000 0.09070  0.70290  0.50421  Biso   1.000  N
  N3       1.0000 0.77820  0.44720  0.45263  Biso   1.000  N
  N4       1.0000 0.22180  0.55280  0.54737  Biso   1.000  N
  N5       1.0000 0.90130  0.55210  0.36873  Biso   1.000  N
  N6       1.0000 0.09870  0.44790  0.63127  Biso   1.000  N
  N7       1.0000 0.62160  0.51720  0.14018  Biso   1.000  N
  N8       1.0000 0.37840  0.48280  0.85982  Biso   1.000  N
  N9       1.0000 0.72870  0.57780  0.04422  Biso   1.000  N
  N10      1.0000 0.27130  0.42220  0.95578  Biso   1.000  N
  N11      1.0000 0.57380  0.68200  0.98118  Biso   1.000  N
  N12      1.0000 0.42620  0.31800  0.01882  Biso   1.000  N
  C1       1.0000 0.98110  0.21770  0.51399  Biso   1.000  C
  C2       1.0000 0.01890  0.78230  0.48601  Biso   1.000  C
  H1       1.0000 0.05430  0.21850  0.49450  Biso   1.000  H
  H2       1.0000 0.94570  0.78150  0.50550  Biso   1.000  H
  C3       1.0000 0.95330  0.13420  0.56014  Biso   1.000  C
  C4       1.0000 0.04670  0.86580  0.43986  Biso   1.000  C
  H3       1.0000 0.00500  0.07740  0.57110  Biso   1.000  H
  H4       1.0000 0.99500  0.92260  0.42890  Biso   1.000  H
  C5       1.0000 0.84840  0.13550  0.58987  Biso   1.000  C
  C6       1.0000 0.15160  0.86450  0.41013  Biso   1.000  C
  H5       1.0000 0.82880  0.08140  0.62260  Biso   1.000  H
  H6       1.0000 0.17120  0.91860  0.37740  Biso   1.000  H
  C7       1.0000 0.77240  0.21660  0.57114  Biso   1.000  C
  C8       1.0000 0.22760  0.78340  0.42886  Biso   1.000  C
  H7       1.0000 0.69950  0.21830  0.59050  Biso   1.000  H
  H8       1.0000 0.30050  0.78170  0.40950  Biso   1.000  H
  C9       1.0000 0.80430  0.29440  0.52414  Biso   1.000  C
  C10      1.0000 0.19570  0.70560  0.47586  Biso   1.000  C
  C11      1.0000 0.72940  0.38310  0.49897  Biso   1.000  C
  C12      1.0000 0.27060  0.61690  0.50103  Biso   1.000  C
  C13      1.0000 0.61920  0.40130  0.51863  Biso   1.000  C
  C14      1.0000 0.38080  0.59870  0.48137  Biso   1.000  C
  H9       1.0000 0.58450  0.35510  0.55140  Biso   1.000  H
  H10      1.0000 0.41550  0.64490  0.44860  Biso   1.000  H
  C15      1.0000 0.55940  0.48870  0.48964  Biso   1.000  C
  C16      1.0000 0.44060  0.51130  0.51036  Biso   1.000  C
  C17      1.0000 0.61230  0.55400  0.44090  Biso   1.000  C
  C18      1.0000 0.38770  0.44600  0.55910  Biso   1.000  C
  H11      1.0000 0.57300  0.61290  0.42000  Biso   1.000  H
  H12      1.0000 0.42700  0.38710  0.58000  Biso   1.000  H
  C19      1.0000 0.72320  0.53110  0.42377  Biso   1.000  C
  C20      1.0000 0.27680  0.46890  0.57623  Biso   1.000  C
  C21      1.0000 0.79410  0.59320  0.37426  Biso   1.000  C
  C22      1.0000 0.20590  0.40680  0.62574  Biso   1.000  C
  C23      1.0000 0.75870  0.68330  0.33769  Biso   1.000  C
  C24      1.0000 0.24130  0.31670  0.66231  Biso   1.000  C
  H13      1.0000 0.68240  0.70830  0.34170  Biso   1.000  H
  H14      1.0000 0.31760  0.29170  0.65830  Biso   1.000  H
  C25      1.0000 0.83700  0.73730  0.29460  Biso   1.000  C
  C26      1.0000 0.16300  0.26270  0.70540  Biso   1.000  C
  H15      1.0000 0.81550  0.80050  0.26920  Biso   1.000  H
  H16      1.0000 0.18450  0.19950  0.73080  Biso   1.000  H
  C27      1.0000 0.94680  0.69720  0.28951  Biso   1.000  C
  C28      1.0000 0.05320  0.30280  0.71049  Biso   1.000  C
  H17      1.0000 0.00190  0.73310  0.26080  Biso   1.000  H
  H18      1.0000 0.99810  0.26690  0.73920  Biso   1.000  H
  C29      1.0000 0.97480  0.60400  0.32685  Biso   1.000  C
  C30      1.0000 0.02520  0.39600  0.67315  Biso   1.000  C
  H19      1.0000 0.04920  0.57570  0.32260  Biso   1.000  H
  H20      1.0000 0.95080  0.42430  0.67740  Biso   1.000  H
  C31      1.0000 0.55810  0.49260  0.18915  Biso   1.000  C
  C32      1.0000 0.44190  0.50740  0.81085  Biso   1.000  C
  H21      1.0000 0.48130  0.51860  0.18970  Biso   1.000  H
  H22      1.0000 0.51870  0.48140  0.81030  Biso   1.000  H
  C33      1.0000 0.60160  0.42990  0.23932  Biso   1.000  C
  C34      1.0000 0.39840  0.57010  0.76068  Biso   1.000  C
  H23      1.0000 0.55560  0.41420  0.27380  Biso   1.000  H
  H24      1.0000 0.44440  0.58580  0.72620  Biso   1.000  H
  C35      1.0000 0.71310  0.39070  0.23814  Biso   1.000  C
  C36      1.0000 0.28690  0.60930  0.76186  Biso   1.000  C
  H25      1.0000 0.74420  0.34720  0.27160  Biso   1.000  H
  H26      1.0000 0.25580  0.65280  0.72840  Biso   1.000  H
  C37      1.0000 0.77880  0.41630  0.18701  Biso   1.000  C
  C38      1.0000 0.22120  0.58370  0.81299  Biso   1.000  C
  H27      1.0000 0.85570  0.39100  0.18530  Biso   1.000  H
  H28      1.0000 0.14430  0.60900  0.81470  Biso   1.000  H
  C39      1.0000 0.73080  0.47900  0.13892  Biso   1.000  C
  C40      1.0000 0.26920  0.52100  0.86108  Biso   1.000  C
  C41      1.0000 0.79150  0.51160  0.08199  Biso   1.000  C
  C42      1.0000 0.20850  0.48840  0.91801  Biso   1.000  C
  C43      1.0000 0.89880  0.47870  0.06625  Biso   1.000  C
  C44      1.0000 0.10120  0.52130  0.93375  Biso   1.000  C
  H29      1.0000 0.94210  0.43080  0.09310  Biso   1.000  H
  H30      1.0000 0.05790  0.56920  0.90690  Biso   1.000  H
  C45      1.0000 0.94320  0.51750  0.00962  Biso   1.000  C
  C46      1.0000 0.05680  0.48250  0.99038  Biso   1.000  C
  C47      1.0000 0.87590  0.58860  0.97143  Biso   1.000  C
  C48      1.0000 0.12410  0.41140  0.02857  Biso   1.000  C
  H31      1.0000 0.90330  0.61680  0.93320  Biso   1.000  H
  H32      1.0000 0.09670  0.38320  0.06680  Biso   1.000  H
  C49      1.0000 0.76830  0.61680  0.99076  Biso   1.000  C
  C50      1.0000 0.23170  0.38320  0.00924  Biso   1.000  C
  C51      1.0000 0.68150  0.68360  0.95502  Biso   1.000  C
  C52      1.0000 0.31850  0.31640  0.04498  Biso   1.000  C
  C53      1.0000 0.70530  0.74300  0.90127  Biso   1.000  C
  C54      1.0000 0.29470  0.25700  0.09873  Biso   1.000  C
  H33      1.0000 0.78260  0.74610  0.88500  Biso   1.000  H
  H34      1.0000 0.21740  0.25390  0.11500  Biso   1.000  H
  C55      1.0000 0.61460  0.79860  0.87098  Biso   1.000  C
  C56      1.0000 0.38540  0.20140  0.12902  Biso   1.000  C
  H35      1.0000 0.62900  0.84000  0.83370  Biso   1.000  H
  H36      1.0000 0.37100  0.16000  0.16630  Biso   1.000  H
  C57      1.0000 0.50290  0.79290  0.89580  Biso   1.000  C
  C58      1.0000 0.49710  0.20710  0.10420  Biso   1.000  C
  H37      1.0000 0.43830  0.82750  0.87500  Biso   1.000  H
  H38      1.0000 0.56170  0.17250  0.12500  Biso   1.000  H
  C59      1.0000 0.48730  0.73570  0.95163  Biso   1.000  C
  C60      1.0000 0.51270  0.26430  0.04837  Biso   1.000  C
  H39      1.0000 0.41220  0.73480  0.96950  Biso   1.000  H
  H40      1.0000 0.58780  0.26520  0.03050  Biso   1.000  H
  C61      1.0000 0.50700  0.08370  0.29297  Biso   1.000  C
  C62      1.0000 0.49300  0.91630  0.70703  Biso   1.000  C
  H41      1.0000 0.54600  0.16830  0.28100  Biso   1.000  H
  H42      1.0000 0.45400  0.83170  0.71900  Biso   1.000  H
  H43      1.0000 0.41880  0.06310  0.27310  Biso   1.000  H
  H44      1.0000 0.58120  0.93690  0.72690  Biso   1.000  H
  C63      1.0000 0.50750  0.08460  0.36351  Biso   1.000  C
  C64      1.0000 0.49250  0.91540  0.63649  Biso   1.000  C
  H45      1.0000 0.45160  0.00690  0.37460  Biso   1.000  H
  H46      1.0000 0.54840  0.99310  0.62540  Biso   1.000  H
  H47      1.0000 0.59370  0.08570  0.38330  Biso   1.000  H
  H48      1.0000 0.40630  0.91430  0.61670  Biso   1.000  H
  C65      1.0000 0.46460  0.19570  0.38953  Biso   1.000  C
  C66      1.0000 0.53540  0.80430  0.61047  Biso   1.000  C
  H49      1.0000 0.52570  0.27310  0.38250  Biso   1.000  H
  H50      1.0000 0.47430  0.72690  0.61750  Biso   1.000  H
  H51      1.0000 0.46400  0.18870  0.43490  Biso   1.000  H
  H52      1.0000 0.53600  0.81130  0.56510  Biso   1.000  H
  C67      1.0000 0.33370  0.20450  0.35992  Biso   1.000  C
  C68      1.0000 0.66630  0.79550  0.64008  Biso   1.000  C
  H53      1.0000 0.27470  0.12290  0.36120  Biso   1.000  H
  H54      1.0000 0.72530  0.87710  0.63880  Biso   1.000  H
  H55      1.0000 0.33700  0.22530  0.31590  Biso   1.000  H
  H56      1.0000 0.66300  0.77470  0.68410  Biso   1.000  H
  C69      1.0000 0.28510  0.30440  0.39406  Biso   1.000  C
  C70      1.0000 0.71490  0.69560  0.60594  Biso   1.000  C
  H57      1.0000 0.34120  0.38650  0.38980  Biso   1.000  H
  H58      1.0000 0.65880  0.61350  0.61020  Biso   1.000  H
  H59      1.0000 0.28990  0.28730  0.43880  Biso   1.000  H
  H60      1.0000 0.71010  0.71270  0.56120  Biso   1.000  H
  C71      1.0000 0.20640  0.71230  0.09778  Biso   1.000  C
  C72      1.0000 0.79360  0.28770  0.90222  Biso   1.000  C
  H61      1.0000 0.18210  0.70070  0.05240  Biso   1.000  H
  H62      1.0000 0.81790  0.29930  0.94760  Biso   1.000  H
  H63      1.0000 0.16160  0.63790  0.11730  Biso   1.000  H
  H64      1.0000 0.83840  0.36210  0.88270  Biso   1.000  H
  C73      1.0000 0.16480  0.82730  0.12125  Biso   1.000  C
  C74      1.0000 0.83520  0.17270  0.87875  Biso   1.000  C
  H65      1.0000 0.20870  0.85350  0.16340  Biso   1.000  H
  H66      1.0000 0.79130  0.14650  0.83660  Biso   1.000  H
  H67      1.0000 0.18880  0.89660  0.09360  Biso   1.000  H
  H68      1.0000 0.81120  0.10340  0.90640  Biso   1.000  H
  C75      1.0000 0.02380  0.80040  0.12316  Biso   1.000  C
  C76      1.0000 0.97620  0.19960  0.87684  Biso   1.000  C
  H69      1.0000 0.00160  0.73570  0.15350  Biso   1.000  H
  H70      1.0000 0.99840  0.26430  0.84650  Biso   1.000  H
  H71      1.0000 0.98080  0.76630  0.08190  Biso   1.000  H
  H72      1.0000 0.01920  0.23370  0.91810  Biso   1.000  H
  C77      1.0000 0.97470  0.91430  0.14076  Biso   1.000  C
  C78      1.0000 0.02530  0.08570  0.85924  Biso   1.000  C
  H73      1.0000 0.03770  0.96770  0.17180  Biso   1.000  H
  H74      1.0000 0.96230  0.03230  0.82820  Biso   1.000  H
  H75      1.0000 0.89650  0.88660  0.16000  Biso   1.000  H
  H76      1.0000 0.10350  0.11340  0.84000  Biso   1.000  H
  C79      1.0000 0.94800  0.99070  0.08445  Biso   1.000  C
  C80      1.0000 0.05200  0.00930  0.91555  Biso   1.000  C
  H77      1.0000 0.89400  0.93420  0.05140  Biso   1.000  H
  H78      1.0000 0.10600  0.06580  0.94860  Biso   1.000  H
  H79      1.0000 0.02850  0.02620  0.06840  Biso   1.000  H
  H80      1.0000 0.97150  0.97380  0.93160  Biso   1.000  H
