data_image0
_cell_length_a       10.7766
_cell_length_b       14.1439
_cell_length_c       20.1563
_cell_angle_alpha    73.173
_cell_angle_beta     88.644
_cell_angle_gamma    73.019

_symmetry_space_group_name_H-M    "P 1"
_symmetry_int_tables_number       1

loop_
  _symmetry_equiv_pos_as_xyz
  'x, y, z'

loop_
  _atom_site_label
  _atom_site_occupancy
  _atom_site_fract_x
  _atom_site_fract_y
  _atom_site_fract_z
  _atom_site_thermal_displace_type
  _atom_site_B_iso_or_equiv
  _atom_site_type_symbol
  Cu1      1.0000 0.56142  0.39395  0.07679  Biso   1.000  Cu
  Cu2      1.0000 0.43858  0.60605  0.92322  Biso   1.000  Cu
  Cu3      1.0000 0.42960  0.12262  0.42691  Biso   1.000  Cu
  Cu4      1.0000 0.57040  0.87738  0.57309  Biso   1.000  Cu
  V1       1.0000 0.62783  0.16445  0.21177  Biso   1.000  V
  V2       1.0000 0.37217  0.83555  0.78823  Biso   1.000  V
  V3       1.0000 0.11612  0.76444  0.30569  Biso   1.000  V
  V4       1.0000 0.88388  0.23556  0.69431  Biso   1.000  V
  V5       1.0000 0.86357  0.77271  0.18864  Biso   1.000  V
  V6       1.0000 0.13643  0.22729  0.81136  Biso   1.000  V
  V7       1.0000 0.42990  0.06336  0.11086  Biso   1.000  V
  V8       1.0000 0.57010  0.93664  0.88914  Biso   1.000  V
  P1       1.0000 0.70320  0.91660  0.03940  Biso   1.000  P
  P2       1.0000 0.29680  0.08340  0.96060  Biso   1.000  P
  O1       1.0000 0.33270  0.01310  0.15750  Biso   1.000  O
  O2       1.0000 0.66730  0.98690  0.84250  Biso   1.000  O
  O3       1.0000 0.56180  0.93960  0.10070  Biso   1.000  O
  O4       1.0000 0.43820  0.06040  0.89930  Biso   1.000  O
  C1       1.0000 0.83230  0.94120  0.99040  Biso   1.000  C
  C2       1.0000 0.16770  0.05880  0.00960  Biso   1.000  C
  H1       1.0000 0.87320  0.88160  0.97450  Biso   1.000  H
  H2       1.0000 0.12680  0.11840  0.02550  Biso   1.000  H
  H3       1.0000 0.79680  0.99940  0.94960  Biso   1.000  H
  H4       1.0000 0.20320  0.00060  0.05040  Biso   1.000  H
  C3       1.0000 0.93560  0.96410  0.02590  Biso   1.000  C
  C4       1.0000 0.06440  0.03590  0.97410  Biso   1.000  C
  H5       1.0000 0.96210  0.91070  0.07010  Biso   1.000  H
  H6       1.0000 0.03790  0.08930  0.92990  Biso   1.000  H
  H7       1.0000 0.89670  0.02910  0.03610  Biso   1.000  H
  H8       1.0000 0.10330  0.97090  0.96390  Biso   1.000  H
  V9       1.0000 0.46580  0.07369  0.09575  Biso   1.000  V
  V10      1.0000 0.53420  0.92631  0.90425  Biso   1.000  V
  P3       1.0000 0.67110  0.91230  0.05230  Biso   1.000  P
  P4       1.0000 0.32890  0.08770  0.94770  Biso   1.000  P
  O5       1.0000 0.40060  0.98710  0.13640  Biso   1.000  O
  O6       1.0000 0.59940  0.01290  0.86360  Biso   1.000  O
  O7       1.0000 0.62940  0.01100  0.06010  Biso   1.000  O
  O8       1.0000 0.37060  0.98900  0.93990  Biso   1.000  O
  C5       1.0000 0.72800  0.02180  0.01910  Biso   1.000  C
  C6       1.0000 0.27200  0.97820  0.98090  Biso   1.000  C
  H9       1.0000 0.65800  0.07760  0.99000  Biso   1.000  H
  H10      1.0000 0.34200  0.92240  0.01000  Biso   1.000  H
  H11      1.0000 0.74750  0.04390  0.05790  Biso   1.000  H
  H12      1.0000 0.25250  0.95610  0.94210  Biso   1.000  H
  C7       1.0000 0.84400  0.00650  0.97840  Biso   1.000  C
  C8       1.0000 0.15600  0.99350  0.02160  Biso   1.000  C
  H13      1.0000 0.87350  0.93580  0.97620  Biso   1.000  H
  H14      1.0000 0.12650  0.06420  0.02380  Biso   1.000  H
  H15      1.0000 0.82370  0.05280  0.93140  Biso   1.000  H
  H16      1.0000 0.17630  0.94720  0.06860  Biso   1.000  H
  P5       1.0000 0.35390  0.28905  0.13805  Biso   1.000  P
  P6       1.0000 0.64610  0.71095  0.86195  Biso   1.000  P
  P7       1.0000 0.68791  0.17149  0.37042  Biso   1.000  P
  P8       1.0000 0.31209  0.82851  0.62958  Biso   1.000  P
  P9       1.0000 0.18492  0.51867  0.32435  Biso   1.000  P
  P10      1.0000 0.81508  0.48133  0.67565  Biso   1.000  P
  P11      1.0000 0.89144  0.96921  0.23292  Biso   1.000  P
  P12      1.0000 0.10856  0.03079  0.76708  Biso   1.000  P
  F1       1.0000 0.12870  0.76585  0.39910  Biso   1.000  F
  F2       1.0000 0.87130  0.23415  0.60090  Biso   1.000  F
  F3       1.0000 0.96009  0.65278  0.16204  Biso   1.000  F
  F4       1.0000 0.03991  0.34722  0.83796  Biso   1.000  F
  O9       1.0000 0.39070  0.38311  0.09320  Biso   1.000  O
  O10      1.0000 0.60930  0.61689  0.90680  Biso   1.000  O
  O11      1.0000 0.68620  0.24013  0.15307  Biso   1.000  O
  O12      1.0000 0.31380  0.75987  0.84693  Biso   1.000  O
  O13      1.0000 0.44280  0.23772  0.20588  Biso   1.000  O
  O14      1.0000 0.55720  0.76228  0.79412  Biso   1.000  O
  O15      1.0000 0.58120  0.07168  0.16918  Biso   1.000  O
  O16      1.0000 0.41880  0.92832  0.83082  Biso   1.000  O
  O17      1.0000 0.35840  0.21223  0.09806  Biso   1.000  O
  O18      1.0000 0.64160  0.78777  0.90194  Biso   1.000  O
  O19      1.0000 0.62590  0.20572  0.29743  Biso   1.000  O
  O20      1.0000 0.37410  0.79428  0.70257  Biso   1.000  O
  O21      1.0000 0.60220  0.13565  0.42677  Biso   1.000  O
  O22      1.0000 0.39780  0.86435  0.57323  Biso   1.000  O
  O23      1.0000 0.81800  0.08115  0.37491  Biso   1.000  O
  O24      1.0000 0.18200  0.91885  0.62509  Biso   1.000  O
  O25      1.0000 0.30650  0.43393  0.35328  Biso   1.000  O
  O26      1.0000 0.69350  0.56607  0.64672  Biso   1.000  O
  O27      1.0000 0.17460  0.53836  0.24290  Biso   1.000  O
  O28      1.0000 0.82540  0.46164  0.75710  Biso   1.000  O
  O29      1.0000 0.18430  0.61762  0.34201  Biso   1.000  O
  O30      1.0000 0.81570  0.38238  0.65799  Biso   1.000  O
  O31      1.0000 0.23260  0.80190  0.26720  Biso   1.000  O
  O32      1.0000 0.76740  0.19810  0.73280  Biso   1.000  O
  O33      1.0000 0.97480  0.89249  0.29705  Biso   1.000  O
  O34      1.0000 0.02520  0.10751  0.70295  Biso   1.000  O
  O35      1.0000 0.03370  0.75071  0.23082  Biso   1.000  O
  O36      1.0000 0.96630  0.24929  0.76918  Biso   1.000  O
  O37      1.0000 0.77710  0.72980  0.24664  Biso   1.000  O
  O38      1.0000 0.22290  0.27020  0.75336  Biso   1.000  O
  O39      1.0000 0.83380  0.91865  0.18881  Biso   1.000  O
  O40      1.0000 0.16620  0.08135  0.81119  Biso   1.000  O
  O41      1.0000 0.78040  0.04500  0.25847  Biso   1.000  O
  O42      1.0000 0.21960  0.95500  0.74153  Biso   1.000  O
  O43      1.0000 0.77350  0.82170  0.09860  Biso   1.000  O
  O44      1.0000 0.22650  0.17830  0.90140  Biso   1.000  O
  O45      1.0000 0.62020  0.88400  0.99451  Biso   1.000  O
  O46      1.0000 0.37980  0.11600  0.00549  Biso   1.000  O
  O47      1.0000 0.34450  0.24890  0.33464  Biso   1.000  O
  O48      1.0000 0.65550  0.75110  0.66536  Biso   1.000  O
  O49      1.0000 0.35740  0.63670  0.47078  Biso   1.000  O
  O50      1.0000 0.64260  0.36330  0.52922  Biso   1.000  O
  O51      1.0000 0.85950  0.70530  0.00350  Biso   1.000  O
  O52      1.0000 0.14050  0.29470  0.99650  Biso   1.000  O
  O53      1.0000 0.49940  0.49464  0.40792  Biso   1.000  O
  O54      1.0000 0.50060  0.50536  0.59208  Biso   1.000  O
  N1       1.0000 0.57290  0.47070  0.14587  Biso   1.000  N
  N2       1.0000 0.42710  0.52930  0.85413  Biso   1.000  N
  N3       1.0000 0.71720  0.43170  0.04952  Biso   1.000  N
  N4       1.0000 0.28280  0.56830  0.95048  Biso   1.000  N
  N5       1.0000 0.59990  0.33950  0.99304  Biso   1.000  N
  N6       1.0000 0.40010  0.66050  0.00696  Biso   1.000  N
  N7       1.0000 0.46230  0.00190  0.38674  Biso   1.000  N
  N8       1.0000 0.53770  0.99810  0.61326  Biso   1.000  N
  N9       1.0000 0.27150  0.08419  0.44939  Biso   1.000  N
  N10      1.0000 0.72850  0.91581  0.55061  Biso   1.000  N
  N11      1.0000 0.35170  0.21150  0.48991  Biso   1.000  N
  N12      1.0000 0.64830  0.78850  0.51009  Biso   1.000  N
  C9       1.0000 0.49160  0.48630  0.19540  Biso   1.000  C
  C10      1.0000 0.50840  0.51370  0.80460  Biso   1.000  C
  H17      1.0000 0.41910  0.46260  0.19880  Biso   1.000  H
  H18      1.0000 0.58090  0.53740  0.80120  Biso   1.000  H
  C11      1.0000 0.51170  0.53680  0.24188  Biso   1.000  C
  C12      1.0000 0.48830  0.46320  0.75812  Biso   1.000  C
  H19      1.0000 0.45350  0.54700  0.27580  Biso   1.000  H
  H20      1.0000 0.54650  0.45300  0.72420  Biso   1.000  H
  C13      1.0000 0.61980  0.57170  0.23690  Biso   1.000  C
  C14      1.0000 0.38020  0.42830  0.76310  Biso   1.000  C
  H21      1.0000 0.63540  0.60550  0.26770  Biso   1.000  H
  H22      1.0000 0.36460  0.39450  0.73230  Biso   1.000  H
  C15      1.0000 0.70490  0.55580  0.18560  Biso   1.000  C
  C16      1.0000 0.29510  0.44420  0.81440  Biso   1.000  C
  H23      1.0000 0.77790  0.57900  0.18130  Biso   1.000  H
  H24      1.0000 0.22210  0.42100  0.81870  Biso   1.000  H
  C17      1.0000 0.67920  0.50510  0.14130  Biso   1.000  C
  C18      1.0000 0.32080  0.49490  0.85870  Biso   1.000  C
  C19      1.0000 0.76110  0.48330  0.08424  Biso   1.000  C
  C20      1.0000 0.23890  0.51670  0.91576  Biso   1.000  C
  C21      1.0000 0.87340  0.51160  0.06570  Biso   1.000  C
  C22      1.0000 0.12660  0.48840  0.93430  Biso   1.000  C
  H25      1.0000 0.90340  0.54860  0.08970  Biso   1.000  H
  H26      1.0000 0.09660  0.45140  0.91030  Biso   1.000  H
  C23      1.0000 0.94060  0.48380  0.01067  Biso   1.000  C
  C24      1.0000 0.05940  0.51620  0.98933  Biso   1.000  C
  C25      1.0000 0.89360  0.42800  0.97664  Biso   1.000  C
  C26      1.0000 0.10640  0.57200  0.02336  Biso   1.000  C
  H27      1.0000 0.93750  0.40710  0.94070  Biso   1.000  H
  H28      1.0000 0.06250  0.59290  0.05930  Biso   1.000  H
  C27      1.0000 0.77980  0.40380  0.99694  Biso   1.000  C
  C28      1.0000 0.22020  0.59620  0.00306  Biso   1.000  C
  C29      1.0000 0.71410  0.34750  0.96499  Biso   1.000  C
  C30      1.0000 0.28590  0.65250  0.03501  Biso   1.000  C
  C31      1.0000 0.76050  0.30700  0.91190  Biso   1.000  C
  C32      1.0000 0.23950  0.69300  0.08810  Biso   1.000  C
  H29      1.0000 0.83910  0.31260  0.89370  Biso   1.000  H
  H30      1.0000 0.16090  0.68740  0.10630  Biso   1.000  H
  C33      1.0000 0.68830  0.25770  0.88580  Biso   1.000  C
  C34      1.0000 0.31170  0.74230  0.11420  Biso   1.000  C
  H31      1.0000 0.71780  0.23040  0.84960  Biso   1.000  H
  H32      1.0000 0.28220  0.76960  0.15040  Biso   1.000  H
  C35      1.0000 0.57300  0.24920  0.91370  Biso   1.000  C
  C36      1.0000 0.42700  0.75080  0.08630  Biso   1.000  C
  H33      1.0000 0.52390  0.21590  0.89680  Biso   1.000  H
  H34      1.0000 0.47610  0.78410  0.10320  Biso   1.000  H
  C37      1.0000 0.53110  0.29140  0.96750  Biso   1.000  C
  C38      1.0000 0.46890  0.70860  0.03250  Biso   1.000  C
  H35      1.0000 0.45290  0.28600  0.98630  Biso   1.000  H
  H36      1.0000 0.54710  0.71400  0.01370  Biso   1.000  H
  C39      1.0000 0.56590  0.96390  0.35344  Biso   1.000  C
  C40      1.0000 0.43410  0.03610  0.64656  Biso   1.000  C
  H37      1.0000 0.63850  0.98660  0.35420  Biso   1.000  H
  H38      1.0000 0.36150  0.01340  0.64580  Biso   1.000  H
  C41      1.0000 0.56960  0.89300  0.31830  Biso   1.000  C
  C42      1.0000 0.43040  0.10700  0.68170  Biso   1.000  C
  H39      1.0000 0.64240  0.86920  0.29520  Biso   1.000  H
  H40      1.0000 0.35760  0.13080  0.70480  Biso   1.000  H
  C43      1.0000 0.46280  0.85800  0.31800  Biso   1.000  C
  C44      1.0000 0.53720  0.14200  0.68200  Biso   1.000  C
  H41      1.0000 0.46200  0.81130  0.29390  Biso   1.000  H
  H42      1.0000 0.53800  0.18870  0.70610  Biso   1.000  H
  C45      1.0000 0.35640  0.89330  0.35426  Biso   1.000  C
  C46      1.0000 0.64360  0.10670  0.64574  Biso   1.000  C
  H43      1.0000 0.28480  0.86880  0.35600  Biso   1.000  H
  H44      1.0000 0.71520  0.13120  0.64400  Biso   1.000  H
  C47      1.0000 0.35920  0.96550  0.38756  Biso   1.000  C
  C48      1.0000 0.64080  0.03450  0.61244  Biso   1.000  C
  C49      1.0000 0.25210  0.00920  0.42737  Biso   1.000  C
  C50      1.0000 0.74790  0.99080  0.57263  Biso   1.000  C
  C51      1.0000 0.14340  0.97580  0.44492  Biso   1.000  C
  C52      1.0000 0.85660  0.02420  0.55508  Biso   1.000  C
  H45      1.0000 0.12910  0.92450  0.42860  Biso   1.000  H
  H46      1.0000 0.87090  0.07550  0.57140  Biso   1.000  H
  C53      1.0000 0.05570  0.02040  0.48750  Biso   1.000  C
  C54      1.0000 0.94430  0.97960  0.51250  Biso   1.000  C
  C55      1.0000 0.07670  0.10140  0.50779  Biso   1.000  C
  C56      1.0000 0.92330  0.89860  0.49221  Biso   1.000  C
  H47      1.0000 0.01760  0.13490  0.53410  Biso   1.000  H
  H48      1.0000 0.98240  0.86510  0.46590  Biso   1.000  H
  C57      1.0000 0.18720  0.13080  0.48805  Biso   1.000  C
  C58      1.0000 0.81280  0.86920  0.51195  Biso   1.000  C
  C59      1.0000 0.23040  0.20920  0.50870  Biso   1.000  C
  C60      1.0000 0.76960  0.79080  0.49130  Biso   1.000  C
  C61      1.0000 0.15780  0.27380  0.54451  Biso   1.000  C
  C62      1.0000 0.84220  0.72620  0.45549  Biso   1.000  C
  H49      1.0000 0.07450  0.27200  0.55660  Biso   1.000  H
  H50      1.0000 0.92550  0.72800  0.44340  Biso   1.000  H
  C63      1.0000 0.21250  0.34170  0.56210  Biso   1.000  C
  C64      1.0000 0.78750  0.65830  0.43790  Biso   1.000  C
  H51      1.0000 0.16580  0.38560  0.58650  Biso   1.000  H
  H52      1.0000 0.83420  0.61440  0.41350  Biso   1.000  H
  C65      1.0000 0.33540  0.34420  0.54350  Biso   1.000  C
  C66      1.0000 0.66460  0.65580  0.45650  Biso   1.000  C
  H53      1.0000 0.37240  0.38950  0.55500  Biso   1.000  H
  H54      1.0000 0.62760  0.61050  0.44500  Biso   1.000  H
  C67      1.0000 0.40310  0.27730  0.50703  Biso   1.000  C
  C68      1.0000 0.59690  0.72270  0.49297  Biso   1.000  C
  H55      1.0000 0.48630  0.27840  0.49430  Biso   1.000  H
  H56      1.0000 0.51370  0.72160  0.50570  Biso   1.000  H
  C69      1.0000 0.19260  0.33320  0.16386  Biso   1.000  C
  C70      1.0000 0.80740  0.66680  0.83614  Biso   1.000  C
  H57      1.0000 0.19080  0.38250  0.18900  Biso   1.000  H
  H58      1.0000 0.80920  0.61750  0.81100  Biso   1.000  H
  H59      1.0000 0.13460  0.36950  0.12240  Biso   1.000  H
  H60      1.0000 0.86540  0.63050  0.87760  Biso   1.000  H
  C71      1.0000 0.14000  0.24730  0.20967  Biso   1.000  C
  C72      1.0000 0.86000  0.75270  0.79033  Biso   1.000  C
  H61      1.0000 0.20930  0.19840  0.24310  Biso   1.000  H
  H62      1.0000 0.79070  0.80160  0.75690  Biso   1.000  H
  H63      1.0000 0.07090  0.27820  0.23550  Biso   1.000  H
  H64      1.0000 0.92910  0.72180  0.76450  Biso   1.000  H
  C73      1.0000 0.08830  0.18850  0.17064  Biso   1.000  C
  C74      1.0000 0.91170  0.81150  0.82936  Biso   1.000  C
  H65      1.0000 0.15770  0.15480  0.14610  Biso   1.000  H
  H66      1.0000 0.84230  0.84520  0.85390  Biso   1.000  H
  H67      1.0000 0.02010  0.23690  0.13640  Biso   1.000  H
  H68      1.0000 0.97990  0.76310  0.86360  Biso   1.000  H
  C75      1.0000 0.03440  0.10760  0.21882  Biso   1.000  C
  C76      1.0000 0.96560  0.89240  0.78118  Biso   1.000  C
  H69      1.0000 0.96380  0.14180  0.24250  Biso   1.000  H
  H70      1.0000 0.03620  0.85820  0.75750  Biso   1.000  H
  H71      1.0000 0.10210  0.06060  0.25380  Biso   1.000  H
  H72      1.0000 0.89790  0.93940  0.74620  Biso   1.000  H
  C77      1.0000 0.73680  0.27130  0.38869  Biso   1.000  C
  C78      1.0000 0.26320  0.72870  0.61131  Biso   1.000  C
  H73      1.0000 0.66270  0.33310  0.37860  Biso   1.000  H
  H74      1.0000 0.33730  0.66690  0.62140  Biso   1.000  H
  H75      1.0000 0.76100  0.25060  0.43800  Biso   1.000  H
  H76      1.0000 0.23900  0.74940  0.56200  Biso   1.000  H
  C79      1.0000 0.85010  0.29870  0.34870  Biso   1.000  C
  C80      1.0000 0.14990  0.70130  0.65130  Biso   1.000  C
  H77      1.0000 0.92350  0.23670  0.35650  Biso   1.000  H
  H78      1.0000 0.07650  0.76330  0.64350  Biso   1.000  H
  H79      1.0000 0.82470  0.32450  0.29940  Biso   1.000  H
  H80      1.0000 0.17530  0.67550  0.70060  Biso   1.000  H
  C81      1.0000 0.89060  0.37920  0.37069  Biso   1.000  C
  C82      1.0000 0.10940  0.62080  0.62931  Biso   1.000  C
  H81      1.0000 0.90840  0.35540  0.42070  Biso   1.000  H
  H82      1.0000 0.09160  0.64460  0.57930  Biso   1.000  H
  H83      1.0000 0.81870  0.44260  0.35960  Biso   1.000  H
  H84      1.0000 0.18130  0.55740  0.64040  Biso   1.000  H
  C83      1.0000 0.01080  0.40330  0.33630  Biso   1.000  C
  C84      1.0000 0.98920  0.59670  0.66370  Biso   1.000  C
  H85      1.0000 0.08500  0.34170  0.35060  Biso   1.000  H
  H86      1.0000 0.91500  0.65830  0.64940  Biso   1.000  H
  H87      1.0000 0.99610  0.42200  0.28630  Biso   1.000  H
  H88      1.0000 0.00390  0.57800  0.71370  Biso   1.000  H
  C85      1.0000 0.04090  0.49030  0.35534  Biso   1.000  C
  C86      1.0000 0.95910  0.50970  0.64466  Biso   1.000  C
  H89      1.0000 0.04660  0.47340  0.40560  Biso   1.000  H
  H90      1.0000 0.95340  0.52660  0.59440  Biso   1.000  H
  H91      1.0000 0.96830  0.55240  0.33790  Biso   1.000  H
  H92      1.0000 0.03170  0.44760  0.66210  Biso   1.000  H
  C87      1.0000 0.98460  0.04510  0.18090  Biso   1.000  C
  C88      1.0000 0.01540  0.95490  0.81910  Biso   1.000  C
  H93      1.0000 0.05830  0.99970  0.16580  Biso   1.000  H
  H94      1.0000 0.94170  0.00030  0.83420  Biso   1.000  H
  H95      1.0000 0.93130  0.09240  0.13980  Biso   1.000  H
  H96      1.0000 0.06870  0.90760  0.86020  Biso   1.000  H
  C89      1.0000 0.94250  0.02820  0.01230  Biso   1.000  C
  C90      1.0000 0.05750  0.97180  0.98770  Biso   1.000  C
  H97      1.0000 0.94170  0.00320  0.06240  Biso   1.000  H
  H98      1.0000 0.05830  0.99680  0.93760  Biso   1.000  H
  H99      1.0000 0.93320  0.10170  0.99850  Biso   1.000  H
  H100     1.0000 0.06680  0.89830  0.00150  Biso   1.000  H
