data_image0
_cell_length_a       12.946
_cell_length_b       12.568
_cell_length_c       11.044
_cell_angle_alpha    90
_cell_angle_beta     115.18
_cell_angle_gamma    90

_symmetry_space_group_name_H-M    "P 1"
_symmetry_int_tables_number       1

loop_
  _symmetry_equiv_pos_as_xyz
  'x, y, z'

loop_
  _atom_site_label
  _atom_site_occupancy
  _atom_site_fract_x
  _atom_site_fract_y
  _atom_site_fract_z
  _atom_site_thermal_displace_type
  _atom_site_B_iso_or_equiv
  _atom_site_type_symbol
  Cu1      1.0000 0.99887  0.95931  0.38914  Biso   1.000  Cu
  Cu2      1.0000 0.00113  0.45931  0.11086  Biso   1.000  Cu
  Cu3      1.0000 0.00113  0.04069  0.61086  Biso   1.000  Cu
  Cu4      1.0000 0.99887  0.54069  0.88914  Biso   1.000  Cu
  Cu5      1.0000 0.00000  0.00000  0.00000  Biso   1.000  Cu
  Cu6      1.0000 0.00000  0.50000  0.50000  Biso   1.000  Cu
  Cl1      1.0000 0.80176  0.99175  0.88622  Biso   1.000  Cl
  Cl2      1.0000 0.19824  0.49175  0.61378  Biso   1.000  Cl
  Cl3      1.0000 0.19824  0.00825  0.11378  Biso   1.000  Cl
  Cl4      1.0000 0.80176  0.50825  0.38622  Biso   1.000  Cl
  Cl5      1.0000 0.98967  0.86597  0.19198  Biso   1.000  Cl
  Cl6      1.0000 0.01033  0.36597  0.30802  Biso   1.000  Cl
  Cl7      1.0000 0.01033  0.13403  0.80802  Biso   1.000  Cl
  Cl8      1.0000 0.98967  0.63403  0.69198  Biso   1.000  Cl
  O1       1.0000 0.11610  0.86380  0.51400  Biso   1.000  O
  O2       1.0000 0.88390  0.36380  0.98600  Biso   1.000  O
  O3       1.0000 0.88390  0.13620  0.48600  Biso   1.000  O
  O4       1.0000 0.11610  0.63620  0.01400  Biso   1.000  O
  O5       1.0000 0.98500  0.12960  0.10100  Biso   1.000  O
  O6       1.0000 0.01500  0.62960  0.39900  Biso   1.000  O
  O7       1.0000 0.01500  0.87040  0.89900  Biso   1.000  O
  O8       1.0000 0.98500  0.37040  0.60100  Biso   1.000  O
  O9       1.0000 0.11350  0.92730  0.70120  Biso   1.000  O
  O10      1.0000 0.88650  0.42730  0.79880  Biso   1.000  O
  O11      1.0000 0.88650  0.07270  0.29880  Biso   1.000  O
  O12      1.0000 0.11350  0.57270  0.20120  Biso   1.000  O
  O13      1.0000 0.87780  0.86960  0.39980  Biso   1.000  O
  O14      1.0000 0.12220  0.36960  0.10020  Biso   1.000  O
  O15      1.0000 0.12220  0.13040  0.60020  Biso   1.000  O
  O16      1.0000 0.87780  0.63040  0.89980  Biso   1.000  O
  O17      1.0000 0.87920  0.93750  0.58800  Biso   1.000  O
  O18      1.0000 0.12080  0.43750  0.91200  Biso   1.000  O
  O19      1.0000 0.12080  0.06250  0.41200  Biso   1.000  O
  O20      1.0000 0.87920  0.56250  0.08800  Biso   1.000  O
  N1       1.0000 0.29770  0.58970  0.91060  Biso   1.000  N
  N2       1.0000 0.70230  0.08970  0.58940  Biso   1.000  N
  N3       1.0000 0.70230  0.41030  0.08940  Biso   1.000  N
  N4       1.0000 0.29770  0.91030  0.41060  Biso   1.000  N
  N5       1.0000 0.71440  0.59130  0.60500  Biso   1.000  N
  N6       1.0000 0.28560  0.09130  0.89500  Biso   1.000  N
  N7       1.0000 0.28560  0.40870  0.39500  Biso   1.000  N
  N8       1.0000 0.71440  0.90870  0.10500  Biso   1.000  N
  C1       1.0000 0.14800  0.86350  0.63890  Biso   1.000  C
  C2       1.0000 0.85200  0.36350  0.86110  Biso   1.000  C
  C3       1.0000 0.85200  0.13650  0.36110  Biso   1.000  C
  C4       1.0000 0.14800  0.63650  0.13890  Biso   1.000  C
  C5       1.0000 0.23080  0.77580  0.71410  Biso   1.000  C
  C6       1.0000 0.76920  0.27580  0.78590  Biso   1.000  C
  C7       1.0000 0.76920  0.22420  0.28590  Biso   1.000  C
  C8       1.0000 0.23080  0.72420  0.21410  Biso   1.000  C
  C9       1.0000 0.27740  0.78370  0.86440  Biso   1.000  C
  C10      1.0000 0.72260  0.28370  0.63560  Biso   1.000  C
  C11      1.0000 0.72260  0.21630  0.13560  Biso   1.000  C
  C12      1.0000 0.27740  0.71630  0.36440  Biso   1.000  C
  C13      1.0000 0.36000  0.69390  0.93430  Biso   1.000  C
  C14      1.0000 0.64000  0.19390  0.56570  Biso   1.000  C
  C15      1.0000 0.64000  0.30610  0.06570  Biso   1.000  C
  C16      1.0000 0.36000  0.80610  0.43430  Biso   1.000  C
  C17      1.0000 0.84400  0.87300  0.49080  Biso   1.000  C
  C18      1.0000 0.15600  0.37300  0.00920  Biso   1.000  C
  C19      1.0000 0.15600  0.12700  0.50920  Biso   1.000  C
  C20      1.0000 0.84400  0.62700  0.99080  Biso   1.000  C
  C21      1.0000 0.75150  0.79430  0.48070  Biso   1.000  C
  C22      1.0000 0.24850  0.29430  0.01930  Biso   1.000  C
  C23      1.0000 0.24850  0.20570  0.51930  Biso   1.000  C
  C24      1.0000 0.75150  0.70570  0.98070  Biso   1.000  C
  C25      1.0000 0.72610  0.78810  0.60290  Biso   1.000  C
  C26      1.0000 0.27390  0.28810  0.89710  Biso   1.000  C
  C27      1.0000 0.27390  0.21190  0.39710  Biso   1.000  C
  C28      1.0000 0.72610  0.71190  0.10290  Biso   1.000  C
  C29      1.0000 0.65430  0.69310  0.60040  Biso   1.000  C
  C30      1.0000 0.34570  0.19310  0.89960  Biso   1.000  C
  C31      1.0000 0.34570  0.30690  0.39960  Biso   1.000  C
  C32      1.0000 0.65430  0.80690  0.10040  Biso   1.000  C
  H1       1.0000 0.98700  0.13870  0.19200  Biso   1.000  H
  H2       1.0000 0.01300  0.63870  0.30800  Biso   1.000  H
  H3       1.0000 0.01300  0.86130  0.80800  Biso   1.000  H
  H4       1.0000 0.98700  0.36130  0.69200  Biso   1.000  H
  H5       1.0000 0.26710  0.57390  0.82180  Biso   1.000  H
  H6       1.0000 0.73290  0.07390  0.67820  Biso   1.000  H
  H7       1.0000 0.73290  0.42610  0.17820  Biso   1.000  H
  H8       1.0000 0.26710  0.92610  0.32180  Biso   1.000  H
  H9       1.0000 0.24090  0.59460  0.93820  Biso   1.000  H
  H10      1.0000 0.75910  0.09460  0.56180  Biso   1.000  H
  H11      1.0000 0.75910  0.40540  0.06180  Biso   1.000  H
  H12      1.0000 0.24090  0.90540  0.43820  Biso   1.000  H
  H13      1.0000 0.34730  0.53750  0.95750  Biso   1.000  H
  H14      1.0000 0.65270  0.03750  0.54250  Biso   1.000  H
  H15      1.0000 0.65270  0.46250  0.04250  Biso   1.000  H
  H16      1.0000 0.34730  0.96250  0.45750  Biso   1.000  H
  H17      1.0000 0.98210  0.20340  0.06870  Biso   1.000  H
  H18      1.0000 0.01790  0.70340  0.43130  Biso   1.000  H
  H19      1.0000 0.01790  0.79660  0.93130  Biso   1.000  H
  H20      1.0000 0.98210  0.29660  0.56870  Biso   1.000  H
  H21      1.0000 0.69960  0.57060  0.52030  Biso   1.000  H
  H22      1.0000 0.30040  0.07060  0.97970  Biso   1.000  H
  H23      1.0000 0.30040  0.42940  0.47970  Biso   1.000  H
  H24      1.0000 0.69960  0.92940  0.02030  Biso   1.000  H
  H25      1.0000 0.68940  0.54040  0.64480  Biso   1.000  H
  H26      1.0000 0.31060  0.04040  0.85520  Biso   1.000  H
  H27      1.0000 0.31060  0.45960  0.35520  Biso   1.000  H
  H28      1.0000 0.68940  0.95960  0.14480  Biso   1.000  H
  H29      1.0000 0.79090  0.60060  0.65280  Biso   1.000  H
  H30      1.0000 0.20910  0.10060  0.84720  Biso   1.000  H
  H31      1.0000 0.20910  0.39940  0.34720  Biso   1.000  H
  H32      1.0000 0.79090  0.89940  0.15280  Biso   1.000  H
  H33      1.0000 0.19180  0.70640  0.68550  Biso   1.000  H
  H34      1.0000 0.80820  0.20640  0.81450  Biso   1.000  H
  H35      1.0000 0.80820  0.29360  0.31450  Biso   1.000  H
  H36      1.0000 0.19180  0.79360  0.18550  Biso   1.000  H
  H37      1.0000 0.29550  0.77710  0.68880  Biso   1.000  H
  H38      1.0000 0.70450  0.27710  0.81120  Biso   1.000  H
  H39      1.0000 0.70450  0.22290  0.31120  Biso   1.000  H
  H40      1.0000 0.29550  0.72290  0.18880  Biso   1.000  H
  H41      1.0000 0.21320  0.78180  0.89070  Biso   1.000  H
  H42      1.0000 0.78680  0.28180  0.60930  Biso   1.000  H
  H43      1.0000 0.78680  0.21820  0.10930  Biso   1.000  H
  H44      1.0000 0.21320  0.71820  0.39070  Biso   1.000  H
  H45      1.0000 0.31700  0.85280  0.89400  Biso   1.000  H
  H46      1.0000 0.68300  0.35280  0.60600  Biso   1.000  H
  H47      1.0000 0.68300  0.14720  0.10600  Biso   1.000  H
  H48      1.0000 0.31700  0.64720  0.39400  Biso   1.000  H
  H49      1.0000 0.41910  0.69000  0.89990  Biso   1.000  H
  H50      1.0000 0.58090  0.19000  0.60010  Biso   1.000  H
  H51      1.0000 0.58090  0.31000  0.10010  Biso   1.000  H
  H52      1.0000 0.41910  0.81000  0.39990  Biso   1.000  H
  H53      1.0000 0.39850  0.70850  0.03150  Biso   1.000  H
  H54      1.0000 0.60150  0.20850  0.46850  Biso   1.000  H
  H55      1.0000 0.60150  0.29150  0.96850  Biso   1.000  H
  H56      1.0000 0.39850  0.79150  0.53150  Biso   1.000  H
  H57      1.0000 0.77430  0.72260  0.46370  Biso   1.000  H
  H58      1.0000 0.22570  0.22260  0.03630  Biso   1.000  H
  H59      1.0000 0.22570  0.27740  0.53630  Biso   1.000  H
  H60      1.0000 0.77430  0.77740  0.96370  Biso   1.000  H
  H61      1.0000 0.68020  0.81360  0.40220  Biso   1.000  H
  H62      1.0000 0.31980  0.31360  0.09780  Biso   1.000  H
  H63      1.0000 0.31980  0.18640  0.59780  Biso   1.000  H
  H64      1.0000 0.68020  0.68640  0.90220  Biso   1.000  H
  H65      1.0000 0.79900  0.78480  0.68440  Biso   1.000  H
  H66      1.0000 0.20100  0.28480  0.81560  Biso   1.000  H
  H67      1.0000 0.20100  0.21520  0.31560  Biso   1.000  H
  H68      1.0000 0.79900  0.71520  0.18440  Biso   1.000  H
  H69      1.0000 0.68580  0.85370  0.60800  Biso   1.000  H
  H70      1.0000 0.31420  0.35370  0.89200  Biso   1.000  H
  H71      1.0000 0.31420  0.14630  0.39200  Biso   1.000  H
  H72      1.0000 0.68580  0.64630  0.10800  Biso   1.000  H
  H73      1.0000 0.63500  0.69660  0.67800  Biso   1.000  H
  H74      1.0000 0.36500  0.19660  0.82200  Biso   1.000  H
  H75      1.0000 0.36500  0.30340  0.32200  Biso   1.000  H
  H76      1.0000 0.63500  0.80340  0.17800  Biso   1.000  H
  H77      1.0000 0.58210  0.69510  0.51790  Biso   1.000  H
  H78      1.0000 0.41790  0.19510  0.98210  Biso   1.000  H
  H79      1.0000 0.41790  0.30490  0.48210  Biso   1.000  H
  H80      1.0000 0.58210  0.80490  0.01790  Biso   1.000  H
  Cl9      1.0000 0.51942  0.47535  0.74998  Biso   1.000  Cl
  Cl10     1.0000 0.48058  0.97535  0.75002  Biso   1.000  Cl
  Cl11     1.0000 0.48058  0.52465  0.25002  Biso   1.000  Cl
  Cl12     1.0000 0.51942  0.02465  0.24998  Biso   1.000  Cl
  O21      1.0000 0.49470  0.50970  0.85870  Biso   1.000  O
  O22      1.0000 0.50530  0.00970  0.64130  Biso   1.000  O
  O23      1.0000 0.50530  0.49030  0.14130  Biso   1.000  O
  O24      1.0000 0.49470  0.99030  0.35870  Biso   1.000  O
  O25      1.0000 0.46360  0.54010  0.63590  Biso   1.000  O
  O26      1.0000 0.53640  0.04010  0.86410  Biso   1.000  O
  O27      1.0000 0.53640  0.45990  0.36410  Biso   1.000  O
  O28      1.0000 0.46360  0.95990  0.13590  Biso   1.000  O
  O29      1.0000 0.64210  0.48200  0.79320  Biso   1.000  O
  O30      1.0000 0.35790  0.98200  0.70680  Biso   1.000  O
  O31      1.0000 0.35790  0.51800  0.20680  Biso   1.000  O
  O32      1.0000 0.64210  0.01800  0.29320  Biso   1.000  O
  O33      1.0000 0.48410  0.36690  0.71910  Biso   1.000  O
  O34      1.0000 0.51590  0.86690  0.78090  Biso   1.000  O
  O35      1.0000 0.51590  0.63310  0.28090  Biso   1.000  O
  O36      1.0000 0.48410  0.13310  0.21910  Biso   1.000  O
