data_image0
_cell_length_a       8.733
_cell_length_b       21.67
_cell_length_c       15.27
_cell_angle_alpha    90
_cell_angle_beta     96.14
_cell_angle_gamma    90

_symmetry_space_group_name_H-M    "P 1"
_symmetry_int_tables_number       1

loop_
  _symmetry_equiv_pos_as_xyz
  'x, y, z'

loop_
  _atom_site_label
  _atom_site_occupancy
  _atom_site_fract_x
  _atom_site_fract_y
  _atom_site_fract_z
  _atom_site_thermal_displace_type
  _atom_site_B_iso_or_equiv
  _atom_site_type_symbol
  Cu1      1.0000 0.90990  0.91180  0.69290  Biso   1.000  Cu
  Cu2      1.0000 0.59010  0.41180  0.80710  Biso   1.000  Cu
  Cu3      1.0000 0.09010  0.08820  0.30710  Biso   1.000  Cu
  Cu4      1.0000 0.40990  0.58820  0.19290  Biso   1.000  Cu
  Cu5      1.0000 0.98750  0.02060  0.80600  Biso   1.000  Cu
  Cu6      1.0000 0.51250  0.52060  0.69400  Biso   1.000  Cu
  Cu7      1.0000 0.01250  0.97940  0.19400  Biso   1.000  Cu
  Cu8      1.0000 0.48750  0.47940  0.30600  Biso   1.000  Cu
  O1       1.0000 0.83740  0.95480  0.78970  Biso   1.000  O
  O2       1.0000 0.66260  0.45480  0.71030  Biso   1.000  O
  O3       1.0000 0.16260  0.04520  0.21030  Biso   1.000  O
  O4       1.0000 0.33740  0.54520  0.28970  Biso   1.000  O
  N1       1.0000 0.69730  0.87910  0.66930  Biso   1.000  N
  N2       1.0000 0.80270  0.37910  0.83070  Biso   1.000  N
  N3       1.0000 0.30270  0.12090  0.33070  Biso   1.000  N
  N4       1.0000 0.19730  0.62090  0.16930  Biso   1.000  N
  C1       1.0000 0.68250  0.94390  0.79940  Biso   1.000  C
  C2       1.0000 0.81750  0.44390  0.70060  Biso   1.000  C
  C3       1.0000 0.31750  0.05610  0.20060  Biso   1.000  C
  C4       1.0000 0.18250  0.55610  0.29940  Biso   1.000  C
  C5       1.0000 0.62620  0.89470  0.75030  Biso   1.000  C
  C6       1.0000 0.87380  0.39470  0.74970  Biso   1.000  C
  C7       1.0000 0.37380  0.10530  0.24970  Biso   1.000  C
  C8       1.0000 0.12620  0.60530  0.25030  Biso   1.000  C
  C9       1.0000 0.70380  0.81890  0.66970  Biso   1.000  C
  C10      1.0000 0.79620  0.31890  0.83030  Biso   1.000  C
  C11      1.0000 0.29620  0.18110  0.33030  Biso   1.000  C
  C12      1.0000 0.20380  0.68110  0.16970  Biso   1.000  C
  C13      1.0000 0.63330  0.76580  0.66880  Biso   1.000  C
  C14      1.0000 0.86670  0.26580  0.83120  Biso   1.000  C
  C15      1.0000 0.36670  0.23420  0.33120  Biso   1.000  C
  C16      1.0000 0.13330  0.73420  0.16880  Biso   1.000  C
  C17      1.0000 0.61190  0.90070  0.58980  Biso   1.000  C
  C18      1.0000 0.88810  0.40070  0.91020  Biso   1.000  C
  C19      1.0000 0.38810  0.09930  0.41020  Biso   1.000  C
  C20      1.0000 0.11190  0.59930  0.08980  Biso   1.000  C
  C21      1.0000 0.66180  0.92850  0.52190  Biso   1.000  C
  C22      1.0000 0.83820  0.42850  0.97810  Biso   1.000  C
  C23      1.0000 0.33820  0.07150  0.47810  Biso   1.000  C
  C24      1.0000 0.16180  0.57150  0.02190  Biso   1.000  C
  O5       1.0000 0.99960  0.87850  0.59370  Biso   1.000  O
  O6       1.0000 0.50040  0.37850  0.90630  Biso   1.000  O
  O7       1.0000 0.00040  0.12150  0.40630  Biso   1.000  O
  O8       1.0000 0.49960  0.62150  0.09370  Biso   1.000  O
  O9       1.0000 0.14330  0.80220  0.65550  Biso   1.000  O
  O10      1.0000 0.35670  0.30220  0.84450  Biso   1.000  O
  O11      1.0000 0.85670  0.19780  0.34450  Biso   1.000  O
  O12      1.0000 0.64330  0.69780  0.15550  Biso   1.000  O
  O13      1.0000 0.23270  0.92580  0.31860  Biso   1.000  O
  O14      1.0000 0.26730  0.42580  0.18140  Biso   1.000  O
  O15      1.0000 0.76730  0.07420  0.68140  Biso   1.000  O
  O16      1.0000 0.73270  0.57420  0.81860  Biso   1.000  O
  C25      1.0000 0.10250  0.83710  0.59430  Biso   1.000  C
  C26      1.0000 0.39750  0.33710  0.90570  Biso   1.000  C
  C27      1.0000 0.89750  0.16290  0.40570  Biso   1.000  C
  C28      1.0000 0.60250  0.66290  0.09430  Biso   1.000  C
  C29      1.0000 0.17920  0.83320  0.51110  Biso   1.000  C
  C30      1.0000 0.32080  0.33320  0.98890  Biso   1.000  C
  C31      1.0000 0.82080  0.16680  0.48890  Biso   1.000  C
  C32      1.0000 0.67920  0.66680  0.01110  Biso   1.000  C
  C33      1.0000 0.17050  0.87960  0.45160  Biso   1.000  C
  C34      1.0000 0.32950  0.37960  0.04840  Biso   1.000  C
  C35      1.0000 0.82950  0.12040  0.54840  Biso   1.000  C
  C36      1.0000 0.67050  0.62040  0.95160  Biso   1.000  C
  C37      1.0000 0.24570  0.87670  0.37590  Biso   1.000  C
  C38      1.0000 0.25430  0.37670  0.12410  Biso   1.000  C
  C39      1.0000 0.75430  0.12330  0.62410  Biso   1.000  C
  C40      1.0000 0.74570  0.62330  0.87590  Biso   1.000  C
  C41      1.0000 0.32690  0.82530  0.36010  Biso   1.000  C
  C42      1.0000 0.17310  0.32530  0.13990  Biso   1.000  C
  C43      1.0000 0.67310  0.17470  0.63990  Biso   1.000  C
  C44      1.0000 0.82690  0.67470  0.86010  Biso   1.000  C
  C45      1.0000 0.33880  0.77790  0.42040  Biso   1.000  C
  C46      1.0000 0.16120  0.27790  0.07960  Biso   1.000  C
  C47      1.0000 0.66120  0.22210  0.57960  Biso   1.000  C
  C48      1.0000 0.83880  0.72210  0.92040  Biso   1.000  C
  C49      1.0000 0.26510  0.78170  0.49530  Biso   1.000  C
  C50      1.0000 0.23490  0.28170  0.00470  Biso   1.000  C
  C51      1.0000 0.73490  0.21830  0.50470  Biso   1.000  C
  C52      1.0000 0.76510  0.71830  0.99530  Biso   1.000  C
  O17      1.0000 0.06920  0.96930  0.72170  Biso   1.000  O
  O18      1.0000 0.43080  0.46930  0.77830  Biso   1.000  O
  O19      1.0000 0.93080  0.03070  0.27830  Biso   1.000  O
  O20      1.0000 0.56920  0.53070  0.22170  Biso   1.000  O
  N5       1.0000 0.18850  0.06650  0.80230  Biso   1.000  N
  N6       1.0000 0.31150  0.56650  0.69770  Biso   1.000  N
  N7       1.0000 0.81150  0.93350  0.19770  Biso   1.000  N
  N8       1.0000 0.68850  0.43350  0.30230  Biso   1.000  N
  C53      1.0000 0.20580  0.98660  0.69230  Biso   1.000  C
  C54      1.0000 0.29420  0.48660  0.80770  Biso   1.000  C
  C55      1.0000 0.79420  0.01340  0.30770  Biso   1.000  C
  C56      1.0000 0.70580  0.51340  0.19230  Biso   1.000  C
  C57      1.0000 0.22980  0.05410  0.71410  Biso   1.000  C
  C58      1.0000 0.27020  0.55410  0.78590  Biso   1.000  C
  C59      1.0000 0.77020  0.94590  0.28590  Biso   1.000  C
  C60      1.0000 0.72980  0.44590  0.21410  Biso   1.000  C
  C61      1.0000 0.20590  0.12950  0.82870  Biso   1.000  C
  C62      1.0000 0.29410  0.62950  0.67130  Biso   1.000  C
  C63      1.0000 0.79410  0.87050  0.17130  Biso   1.000  C
  C64      1.0000 0.70590  0.37050  0.32870  Biso   1.000  C
  C65      1.0000 0.08970  0.16630  0.76340  Biso   1.000  C
  C66      1.0000 0.41030  0.66630  0.73660  Biso   1.000  C
  C67      1.0000 0.91030  0.83370  0.23660  Biso   1.000  C
  C68      1.0000 0.58970  0.33370  0.26340  Biso   1.000  C
  C69      1.0000 0.31000  0.03320  0.85960  Biso   1.000  C
  C70      1.0000 0.19000  0.53320  0.64040  Biso   1.000  C
  C71      1.0000 0.69000  0.96680  0.14040  Biso   1.000  C
  C72      1.0000 0.81000  0.46680  0.35960  Biso   1.000  C
  C73      1.0000 0.28220  0.04180  0.95750  Biso   1.000  C
  C74      1.0000 0.21780  0.54180  0.54250  Biso   1.000  C
  C75      1.0000 0.71780  0.95820  0.04250  Biso   1.000  C
  C76      1.0000 0.78220  0.45820  0.45750  Biso   1.000  C
  O21      1.0000 0.08220  0.93220  0.09980  Biso   1.000  O
  O22      1.0000 0.41780  0.43220  0.40020  Biso   1.000  O
  O23      1.0000 0.91780  0.06780  0.90020  Biso   1.000  O
  O24      1.0000 0.58220  0.56780  0.59980  Biso   1.000  O
  O25      1.0000 0.31100  0.90150  0.16350  Biso   1.000  O
  O26      1.0000 0.18900  0.40150  0.33650  Biso   1.000  O
  O27      1.0000 0.68900  0.09850  0.83650  Biso   1.000  O
  O28      1.0000 0.81100  0.59850  0.66350  Biso   1.000  O
  O29      1.0000 0.03940  0.83310  0.80210  Biso   1.000  O
  O30      1.0000 0.46060  0.33310  0.69790  Biso   1.000  O
  O31      1.0000 0.96060  0.16690  0.19790  Biso   1.000  O
  O32      1.0000 0.53940  0.66690  0.30210  Biso   1.000  O
  C77      1.0000 0.21040  0.90380  0.10130  Biso   1.000  C
  C78      1.0000 0.28960  0.40380  0.39870  Biso   1.000  C
  C79      1.0000 0.78960  0.09620  0.89870  Biso   1.000  C
  C80      1.0000 0.71040  0.59620  0.60130  Biso   1.000  C
  C81      1.0000 0.23710  0.87150  0.01710  Biso   1.000  C
  C82      1.0000 0.26290  0.37150  0.48290  Biso   1.000  C
  C83      1.0000 0.76290  0.12850  0.98290  Biso   1.000  C
  C84      1.0000 0.73710  0.62850  0.51710  Biso   1.000  C
  C85      1.0000 0.12630  0.86930  0.94600  Biso   1.000  C
  C86      1.0000 0.37370  0.36930  0.55400  Biso   1.000  C
  C87      1.0000 0.87370  0.13070  0.05400  Biso   1.000  C
  C88      1.0000 0.62630  0.63070  0.44600  Biso   1.000  C
  C89      1.0000 0.15340  0.83800  0.87100  Biso   1.000  C
  C90      1.0000 0.34660  0.33800  0.62900  Biso   1.000  C
  C91      1.0000 0.84660  0.16200  0.12900  Biso   1.000  C
  C92      1.0000 0.65340  0.66200  0.37100  Biso   1.000  C
  C93      1.0000 0.29420  0.81110  0.86460  Biso   1.000  C
  C94      1.0000 0.20580  0.31110  0.63540  Biso   1.000  C
  C95      1.0000 0.70580  0.18890  0.13540  Biso   1.000  C
  C96      1.0000 0.79420  0.68890  0.36460  Biso   1.000  C
  C97      1.0000 0.40290  0.81240  0.93450  Biso   1.000  C
  C98      1.0000 0.09710  0.31240  0.56550  Biso   1.000  C
  C99      1.0000 0.59710  0.18760  0.06550  Biso   1.000  C
  C100     1.0000 0.90290  0.68760  0.43450  Biso   1.000  C
  C101     1.0000 0.37570  0.84300  0.01250  Biso   1.000  C
  C102     1.0000 0.12430  0.34300  0.48750  Biso   1.000  C
  C103     1.0000 0.62430  0.15700  0.98750  Biso   1.000  C
  C104     1.0000 0.87570  0.65700  0.51250  Biso   1.000  C
  H1       1.0000 0.72730  0.09930  0.77530  Biso   1.000  H
  H2       1.0000 0.77270  0.59930  0.72470  Biso   1.000  H
  H3       1.0000 0.27270  0.90070  0.22470  Biso   1.000  H
  H4       1.0000 0.22730  0.40070  0.27530  Biso   1.000  H
