data_image0
_cell_length_a       9.016
_cell_length_b       16.322
_cell_length_c       30.908
_cell_angle_alpha    90
_cell_angle_beta     90
_cell_angle_gamma    90

_symmetry_space_group_name_H-M    "P 1"
_symmetry_int_tables_number       1

loop_
  _symmetry_equiv_pos_as_xyz
  'x, y, z'

loop_
  _atom_site_label
  _atom_site_occupancy
  _atom_site_fract_x
  _atom_site_fract_y
  _atom_site_fract_z
  _atom_site_thermal_displace_type
  _atom_site_B_iso_or_equiv
  _atom_site_type_symbol
  Cu1      1.0000 0.62500  0.12500  0.37817  Biso   1.000  Cu
  Cu2      1.0000 0.62500  0.12500  0.87183  Biso   1.000  Cu
  Cu3      1.0000 0.62500  0.62500  0.87817  Biso   1.000  Cu
  Cu4      1.0000 0.12500  0.12500  0.87817  Biso   1.000  Cu
  Cu5      1.0000 0.12500  0.62500  0.37817  Biso   1.000  Cu
  Cu6      1.0000 0.62500  0.62500  0.37183  Biso   1.000  Cu
  Cu7      1.0000 0.12500  0.12500  0.37183  Biso   1.000  Cu
  Cu8      1.0000 0.12500  0.62500  0.87183  Biso   1.000  Cu
  Cu9      1.0000 0.37500  0.87500  0.62183  Biso   1.000  Cu
  Cu10     1.0000 0.87500  0.37500  0.62183  Biso   1.000  Cu
  Cu11     1.0000 0.37500  0.37500  0.62817  Biso   1.000  Cu
  Cu12     1.0000 0.87500  0.87500  0.62817  Biso   1.000  Cu
  Cu13     1.0000 0.37500  0.37500  0.12183  Biso   1.000  Cu
  Cu14     1.0000 0.87500  0.87500  0.12183  Biso   1.000  Cu
  Cu15     1.0000 0.37500  0.87500  0.12817  Biso   1.000  Cu
  Cu16     1.0000 0.87500  0.37500  0.12817  Biso   1.000  Cu
  O1       1.0000 0.87500  0.06174  0.37500  Biso   1.000  O
  O2       1.0000 0.37500  0.18826  0.37500  Biso   1.000  O
  O3       1.0000 0.87500  0.18826  0.87500  Biso   1.000  O
  O4       1.0000 0.37500  0.06174  0.87500  Biso   1.000  O
  O5       1.0000 0.87500  0.56174  0.87500  Biso   1.000  O
  O6       1.0000 0.37500  0.56174  0.37500  Biso   1.000  O
  O7       1.0000 0.37500  0.68826  0.87500  Biso   1.000  O
  O8       1.0000 0.87500  0.68826  0.37500  Biso   1.000  O
  O9       1.0000 0.12500  0.93826  0.62500  Biso   1.000  O
  O10      1.0000 0.12500  0.31174  0.62500  Biso   1.000  O
  O11      1.0000 0.12500  0.43826  0.12500  Biso   1.000  O
  O12      1.0000 0.62500  0.93826  0.12500  Biso   1.000  O
  O13      1.0000 0.62500  0.43826  0.62500  Biso   1.000  O
  O14      1.0000 0.12500  0.81174  0.12500  Biso   1.000  O
  O15      1.0000 0.62500  0.31174  0.12500  Biso   1.000  O
  O16      1.0000 0.62500  0.81174  0.62500  Biso   1.000  O
  H1       1.0000 0.85200  0.03730  0.39420  Biso   1.000  H
  H2       1.0000 0.39800  0.21270  0.39420  Biso   1.000  H
  H3       1.0000 0.85200  0.21270  0.85580  Biso   1.000  H
  H4       1.0000 0.39800  0.03730  0.85580  Biso   1.000  H
  H5       1.0000 0.85200  0.53730  0.89420  Biso   1.000  H
  H6       1.0000 0.35200  0.03730  0.89420  Biso   1.000  H
  H7       1.0000 0.35200  0.53730  0.39420  Biso   1.000  H
  H8       1.0000 0.39800  0.71270  0.89420  Biso   1.000  H
  H9       1.0000 0.85200  0.71270  0.35580  Biso   1.000  H
  H10      1.0000 0.39800  0.53730  0.35580  Biso   1.000  H
  H11      1.0000 0.89800  0.21270  0.89420  Biso   1.000  H
  H12      1.0000 0.35200  0.21270  0.35580  Biso   1.000  H
  H13      1.0000 0.89800  0.03730  0.35580  Biso   1.000  H
  H14      1.0000 0.89800  0.71270  0.39420  Biso   1.000  H
  H15      1.0000 0.35200  0.71270  0.85580  Biso   1.000  H
  H16      1.0000 0.89800  0.53730  0.85580  Biso   1.000  H
  H17      1.0000 0.14800  0.96270  0.60580  Biso   1.000  H
  H18      1.0000 0.10200  0.28730  0.60580  Biso   1.000  H
  H19      1.0000 0.14800  0.28730  0.64420  Biso   1.000  H
  H20      1.0000 0.10200  0.96270  0.64420  Biso   1.000  H
  H21      1.0000 0.14800  0.46270  0.10580  Biso   1.000  H
  H22      1.0000 0.64800  0.96270  0.10580  Biso   1.000  H
  H23      1.0000 0.64800  0.46270  0.60580  Biso   1.000  H
  H24      1.0000 0.10200  0.78730  0.10580  Biso   1.000  H
  H25      1.0000 0.14800  0.78730  0.14420  Biso   1.000  H
  H26      1.0000 0.10200  0.46270  0.14420  Biso   1.000  H
  H27      1.0000 0.60200  0.28730  0.10580  Biso   1.000  H
  H28      1.0000 0.64800  0.28730  0.14420  Biso   1.000  H
  H29      1.0000 0.60200  0.96270  0.14420  Biso   1.000  H
  H30      1.0000 0.60200  0.78730  0.60580  Biso   1.000  H
  H31      1.0000 0.64800  0.78730  0.64420  Biso   1.000  H
  H32      1.0000 0.60200  0.46270  0.64420  Biso   1.000  H
  O17      1.0000 0.53897  0.05586  0.42415  Biso   1.000  O
  O18      1.0000 0.71103  0.19414  0.42415  Biso   1.000  O
  O19      1.0000 0.53897  0.19414  0.82585  Biso   1.000  O
  O20      1.0000 0.71103  0.05586  0.82585  Biso   1.000  O
  O21      1.0000 0.53897  0.55586  0.92415  Biso   1.000  O
  O22      1.0000 0.03897  0.05586  0.92415  Biso   1.000  O
  O23      1.0000 0.03897  0.55586  0.42415  Biso   1.000  O
  O24      1.0000 0.71103  0.69414  0.92415  Biso   1.000  O
  O25      1.0000 0.53897  0.69414  0.32585  Biso   1.000  O
  O26      1.0000 0.71103  0.55586  0.32585  Biso   1.000  O
  O27      1.0000 0.21103  0.19414  0.92415  Biso   1.000  O
  O28      1.0000 0.03897  0.19414  0.32585  Biso   1.000  O
  O29      1.0000 0.21103  0.05586  0.32585  Biso   1.000  O
  O30      1.0000 0.21103  0.69414  0.42415  Biso   1.000  O
  O31      1.0000 0.03897  0.69414  0.82585  Biso   1.000  O
  O32      1.0000 0.21103  0.55586  0.82585  Biso   1.000  O
  O33      1.0000 0.46103  0.94414  0.57585  Biso   1.000  O
  O34      1.0000 0.78897  0.30586  0.57585  Biso   1.000  O
  O35      1.0000 0.46103  0.30586  0.67415  Biso   1.000  O
  O36      1.0000 0.78897  0.94414  0.67415  Biso   1.000  O
  O37      1.0000 0.46103  0.44414  0.07585  Biso   1.000  O
  O38      1.0000 0.96103  0.94414  0.07585  Biso   1.000  O
  O39      1.0000 0.96103  0.44414  0.57585  Biso   1.000  O
  O40      1.0000 0.78897  0.80586  0.07585  Biso   1.000  O
  O41      1.0000 0.46103  0.80586  0.17415  Biso   1.000  O
  O42      1.0000 0.78897  0.44414  0.17415  Biso   1.000  O
  O43      1.0000 0.28897  0.30586  0.07585  Biso   1.000  O
  O44      1.0000 0.96103  0.30586  0.17415  Biso   1.000  O
  O45      1.0000 0.28897  0.94414  0.17415  Biso   1.000  O
  O46      1.0000 0.28897  0.80586  0.57585  Biso   1.000  O
  O47      1.0000 0.96103  0.80586  0.67415  Biso   1.000  O
  O48      1.0000 0.28897  0.44414  0.67415  Biso   1.000  O
  O49      1.0000 0.74240  0.98424  0.43970  Biso   1.000  O
  O50      1.0000 0.50760  0.26576  0.43970  Biso   1.000  O
  O51      1.0000 0.74240  0.26576  0.81030  Biso   1.000  O
  O52      1.0000 0.50760  0.98424  0.81030  Biso   1.000  O
  O53      1.0000 0.74240  0.48424  0.93970  Biso   1.000  O
  O54      1.0000 0.24240  0.98424  0.93970  Biso   1.000  O
  O55      1.0000 0.24240  0.48424  0.43970  Biso   1.000  O
  O56      1.0000 0.50760  0.76576  0.93970  Biso   1.000  O
  O57      1.0000 0.74240  0.76576  0.31030  Biso   1.000  O
  O58      1.0000 0.50760  0.48424  0.31030  Biso   1.000  O
  O59      1.0000 0.00760  0.26576  0.93970  Biso   1.000  O
  O60      1.0000 0.24240  0.26576  0.31030  Biso   1.000  O
  O61      1.0000 0.00760  0.98424  0.31030  Biso   1.000  O
  O62      1.0000 0.00760  0.76576  0.43970  Biso   1.000  O
  O63      1.0000 0.24240  0.76576  0.81030  Biso   1.000  O
  O64      1.0000 0.00760  0.48424  0.81030  Biso   1.000  O
  O65      1.0000 0.25760  0.01576  0.56030  Biso   1.000  O
  O66      1.0000 0.99240  0.23424  0.56030  Biso   1.000  O
  O67      1.0000 0.25760  0.23424  0.68970  Biso   1.000  O
  O68      1.0000 0.99240  0.01576  0.68970  Biso   1.000  O
  O69      1.0000 0.25760  0.51576  0.06030  Biso   1.000  O
  O70      1.0000 0.75760  0.01576  0.06030  Biso   1.000  O
  O71      1.0000 0.75760  0.51576  0.56030  Biso   1.000  O
  O72      1.0000 0.99240  0.73424  0.06030  Biso   1.000  O
  O73      1.0000 0.25760  0.73424  0.18970  Biso   1.000  O
  O74      1.0000 0.99240  0.51576  0.18970  Biso   1.000  O
  O75      1.0000 0.49240  0.23424  0.06030  Biso   1.000  O
  O76      1.0000 0.75760  0.23424  0.18970  Biso   1.000  O
  O77      1.0000 0.49240  0.01576  0.18970  Biso   1.000  O
  O78      1.0000 0.49240  0.73424  0.56030  Biso   1.000  O
  O79      1.0000 0.75760  0.73424  0.68970  Biso   1.000  O
  O80      1.0000 0.49240  0.51576  0.68970  Biso   1.000  O
  N1       1.0000 0.69460  0.19965  0.33008  Biso   1.000  N
  N2       1.0000 0.55540  0.05035  0.33008  Biso   1.000  N
  N3       1.0000 0.69460  0.05035  0.91992  Biso   1.000  N
  N4       1.0000 0.55540  0.19965  0.91992  Biso   1.000  N
  N5       1.0000 0.69460  0.69965  0.83008  Biso   1.000  N
  N6       1.0000 0.19460  0.19965  0.83008  Biso   1.000  N
  N7       1.0000 0.19460  0.69965  0.33008  Biso   1.000  N
  N8       1.0000 0.55540  0.55035  0.83008  Biso   1.000  N
  N9       1.0000 0.69460  0.55035  0.41992  Biso   1.000  N
  N10      1.0000 0.55540  0.69965  0.41992  Biso   1.000  N
  N11      1.0000 0.05540  0.05035  0.83008  Biso   1.000  N
  N12      1.0000 0.19460  0.05035  0.41992  Biso   1.000  N
  N13      1.0000 0.05540  0.19965  0.41992  Biso   1.000  N
  N14      1.0000 0.05540  0.55035  0.33008  Biso   1.000  N
  N15      1.0000 0.19460  0.55035  0.91992  Biso   1.000  N
  N16      1.0000 0.05540  0.69965  0.91992  Biso   1.000  N
  N17      1.0000 0.30540  0.80035  0.66992  Biso   1.000  N
  N18      1.0000 0.94460  0.44965  0.66992  Biso   1.000  N
  N19      1.0000 0.30540  0.44965  0.58008  Biso   1.000  N
  N20      1.0000 0.94460  0.80035  0.58008  Biso   1.000  N
  N21      1.0000 0.30540  0.30035  0.16992  Biso   1.000  N
  N22      1.0000 0.80540  0.80035  0.16992  Biso   1.000  N
  N23      1.0000 0.80540  0.30035  0.66992  Biso   1.000  N
  N24      1.0000 0.94460  0.94965  0.16992  Biso   1.000  N
  N25      1.0000 0.30540  0.94965  0.08008  Biso   1.000  N
  N26      1.0000 0.94460  0.30035  0.08008  Biso   1.000  N
  N27      1.0000 0.44460  0.44965  0.16992  Biso   1.000  N
  N28      1.0000 0.80540  0.44965  0.08008  Biso   1.000  N
  N29      1.0000 0.44460  0.80035  0.08008  Biso   1.000  N
  N30      1.0000 0.44460  0.94965  0.66992  Biso   1.000  N
  N31      1.0000 0.80540  0.94965  0.58008  Biso   1.000  N
  N32      1.0000 0.44460  0.30035  0.58008  Biso   1.000  N
  H33      1.0000 0.79310  0.18930  0.32660  Biso   1.000  H
  H34      1.0000 0.45690  0.06070  0.32660  Biso   1.000  H
  H35      1.0000 0.79310  0.06070  0.92340  Biso   1.000  H
  H36      1.0000 0.45690  0.18930  0.92340  Biso   1.000  H
  H37      1.0000 0.79310  0.68930  0.82660  Biso   1.000  H
  H38      1.0000 0.29310  0.18930  0.82660  Biso   1.000  H
  H39      1.0000 0.29310  0.68930  0.32660  Biso   1.000  H
  H40      1.0000 0.45690  0.56070  0.82660  Biso   1.000  H
  H41      1.0000 0.79310  0.56070  0.42340  Biso   1.000  H
  H42      1.0000 0.45690  0.68930  0.42340  Biso   1.000  H
  H43      1.0000 0.95690  0.06070  0.82660  Biso   1.000  H
  H44      1.0000 0.29310  0.06070  0.42340  Biso   1.000  H
  H45      1.0000 0.95690  0.18930  0.42340  Biso   1.000  H
  H46      1.0000 0.95690  0.56070  0.32660  Biso   1.000  H
  H47      1.0000 0.29310  0.56070  0.92340  Biso   1.000  H
  H48      1.0000 0.95690  0.68930  0.92340  Biso   1.000  H
  H49      1.0000 0.20690  0.81070  0.67340  Biso   1.000  H
  H50      1.0000 0.04310  0.43930  0.67340  Biso   1.000  H
  H51      1.0000 0.20690  0.43930  0.57660  Biso   1.000  H
  H52      1.0000 0.04310  0.81070  0.57660  Biso   1.000  H
  H53      1.0000 0.20690  0.31070  0.17340  Biso   1.000  H
  H54      1.0000 0.70690  0.81070  0.17340  Biso   1.000  H
  H55      1.0000 0.70690  0.31070  0.67340  Biso   1.000  H
  H56      1.0000 0.04310  0.93930  0.17340  Biso   1.000  H
  H57      1.0000 0.20690  0.93930  0.07660  Biso   1.000  H
  H58      1.0000 0.04310  0.31070  0.07660  Biso   1.000  H
  H59      1.0000 0.54310  0.43930  0.17340  Biso   1.000  H
  H60      1.0000 0.70690  0.43930  0.07660  Biso   1.000  H
  H61      1.0000 0.54310  0.81070  0.07660  Biso   1.000  H
  H62      1.0000 0.54310  0.93930  0.67340  Biso   1.000  H
  H63      1.0000 0.70690  0.93930  0.57660  Biso   1.000  H
  H64      1.0000 0.54310  0.31070  0.57660  Biso   1.000  H
  C1       1.0000 0.62160  0.17090  0.29037  Biso   1.000  C
  C2       1.0000 0.62840  0.07910  0.29037  Biso   1.000  C
  C3       1.0000 0.62160  0.07910  0.95963  Biso   1.000  C
  C4       1.0000 0.62840  0.17090  0.95963  Biso   1.000  C
  C5       1.0000 0.62160  0.67090  0.79037  Biso   1.000  C
  C6       1.0000 0.12160  0.17090  0.79037  Biso   1.000  C
  C7       1.0000 0.12160  0.67090  0.29037  Biso   1.000  C
  C8       1.0000 0.62840  0.57910  0.79037  Biso   1.000  C
  C9       1.0000 0.62160  0.57910  0.45963  Biso   1.000  C
  C10      1.0000 0.62840  0.67090  0.45963  Biso   1.000  C
  C11      1.0000 0.12840  0.07910  0.79037  Biso   1.000  C
  C12      1.0000 0.12160  0.07910  0.45963  Biso   1.000  C
  C13      1.0000 0.12840  0.17090  0.45963  Biso   1.000  C
  C14      1.0000 0.12840  0.57910  0.29037  Biso   1.000  C
  C15      1.0000 0.12160  0.57910  0.95963  Biso   1.000  C
  C16      1.0000 0.12840  0.67090  0.95963  Biso   1.000  C
  C17      1.0000 0.37840  0.82910  0.70963  Biso   1.000  C
  C18      1.0000 0.87160  0.42090  0.70963  Biso   1.000  C
  C19      1.0000 0.37840  0.42090  0.54037  Biso   1.000  C
  C20      1.0000 0.87160  0.82910  0.54037  Biso   1.000  C
  C21      1.0000 0.37840  0.32910  0.20963  Biso   1.000  C
  C22      1.0000 0.87840  0.82910  0.20963  Biso   1.000  C
  C23      1.0000 0.87840  0.32910  0.70963  Biso   1.000  C
  C24      1.0000 0.87160  0.92090  0.20963  Biso   1.000  C
  C25      1.0000 0.37840  0.92090  0.04037  Biso   1.000  C
  C26      1.0000 0.87160  0.32910  0.04037  Biso   1.000  C
  C27      1.0000 0.37160  0.42090  0.20963  Biso   1.000  C
  C28      1.0000 0.87840  0.42090  0.04037  Biso   1.000  C
  C29      1.0000 0.37160  0.82910  0.04037  Biso   1.000  C
  C30      1.0000 0.37160  0.92090  0.70963  Biso   1.000  C
  C31      1.0000 0.87840  0.92090  0.54037  Biso   1.000  C
  C32      1.0000 0.37160  0.32910  0.54037  Biso   1.000  C
  H65      1.0000 0.67200  0.19250  0.26510  Biso   1.000  H
  H66      1.0000 0.57800  0.05750  0.26510  Biso   1.000  H
  H67      1.0000 0.67200  0.05750  0.98490  Biso   1.000  H
  H68      1.0000 0.57800  0.19250  0.98490  Biso   1.000  H
  H69      1.0000 0.67200  0.69250  0.76510  Biso   1.000  H
  H70      1.0000 0.17200  0.19250  0.76510  Biso   1.000  H
  H71      1.0000 0.17200  0.69250  0.26510  Biso   1.000  H
  H72      1.0000 0.57800  0.55750  0.76510  Biso   1.000  H
  H73      1.0000 0.67200  0.55750  0.48490  Biso   1.000  H
  H74      1.0000 0.57800  0.69250  0.48490  Biso   1.000  H
  H75      1.0000 0.07800  0.05750  0.76510  Biso   1.000  H
  H76      1.0000 0.17200  0.05750  0.48490  Biso   1.000  H
  H77      1.0000 0.07800  0.19250  0.48490  Biso   1.000  H
  H78      1.0000 0.07800  0.55750  0.26510  Biso   1.000  H
  H79      1.0000 0.17200  0.55750  0.98490  Biso   1.000  H
  H80      1.0000 0.07800  0.69250  0.98490  Biso   1.000  H
  H81      1.0000 0.32800  0.80750  0.73490  Biso   1.000  H
  H82      1.0000 0.92200  0.44250  0.73490  Biso   1.000  H
  H83      1.0000 0.32800  0.44250  0.51510  Biso   1.000  H
  H84      1.0000 0.92200  0.80750  0.51510  Biso   1.000  H
  H85      1.0000 0.32800  0.30750  0.23490  Biso   1.000  H
  H86      1.0000 0.82800  0.80750  0.23490  Biso   1.000  H
  H87      1.0000 0.82800  0.30750  0.73490  Biso   1.000  H
  H88      1.0000 0.92200  0.94250  0.23490  Biso   1.000  H
  H89      1.0000 0.32800  0.94250  0.01510  Biso   1.000  H
  H90      1.0000 0.92200  0.30750  0.01510  Biso   1.000  H
  H91      1.0000 0.42200  0.44250  0.23490  Biso   1.000  H
  H92      1.0000 0.82800  0.44250  0.01510  Biso   1.000  H
  H93      1.0000 0.42200  0.80750  0.01510  Biso   1.000  H
  H94      1.0000 0.42200  0.94250  0.73490  Biso   1.000  H
  H95      1.0000 0.82800  0.94250  0.51510  Biso   1.000  H
  H96      1.0000 0.42200  0.30750  0.51510  Biso   1.000  H
  H97      1.0000 0.51920  0.18910  0.28970  Biso   1.000  H
  H98      1.0000 0.73080  0.06090  0.28970  Biso   1.000  H
  H99      1.0000 0.51920  0.06090  0.96030  Biso   1.000  H
  H100     1.0000 0.73080  0.18910  0.96030  Biso   1.000  H
  H101     1.0000 0.51920  0.68910  0.78970  Biso   1.000  H
  H102     1.0000 0.01920  0.18910  0.78970  Biso   1.000  H
  H103     1.0000 0.01920  0.68910  0.28970  Biso   1.000  H
  H104     1.0000 0.73080  0.56090  0.78970  Biso   1.000  H
  H105     1.0000 0.51920  0.56090  0.46030  Biso   1.000  H
  H106     1.0000 0.73080  0.68910  0.46030  Biso   1.000  H
  H107     1.0000 0.23080  0.06090  0.78970  Biso   1.000  H
  H108     1.0000 0.01920  0.06090  0.46030  Biso   1.000  H
  H109     1.0000 0.23080  0.18910  0.46030  Biso   1.000  H
  H110     1.0000 0.23080  0.56090  0.28970  Biso   1.000  H
  H111     1.0000 0.01920  0.56090  0.96030  Biso   1.000  H
  H112     1.0000 0.23080  0.68910  0.96030  Biso   1.000  H
  H113     1.0000 0.48080  0.81090  0.71030  Biso   1.000  H
  H114     1.0000 0.76920  0.43910  0.71030  Biso   1.000  H
  H115     1.0000 0.48080  0.43910  0.53970  Biso   1.000  H
  H116     1.0000 0.76920  0.81090  0.53970  Biso   1.000  H
  H117     1.0000 0.48080  0.31090  0.21030  Biso   1.000  H
  H118     1.0000 0.98080  0.81090  0.21030  Biso   1.000  H
  H119     1.0000 0.98080  0.31090  0.71030  Biso   1.000  H
  H120     1.0000 0.76920  0.93910  0.21030  Biso   1.000  H
  H121     1.0000 0.48080  0.93910  0.03970  Biso   1.000  H
  H122     1.0000 0.76920  0.31090  0.03970  Biso   1.000  H
  H123     1.0000 0.26920  0.43910  0.21030  Biso   1.000  H
  H124     1.0000 0.98080  0.43910  0.03970  Biso   1.000  H
  H125     1.0000 0.26920  0.81090  0.03970  Biso   1.000  H
  H126     1.0000 0.26920  0.93910  0.71030  Biso   1.000  H
  H127     1.0000 0.98080  0.93910  0.53970  Biso   1.000  H
  H128     1.0000 0.26920  0.31090  0.53970  Biso   1.000  H
  C33      1.0000 0.68100  0.28869  0.33536  Biso   1.000  C
  C34      1.0000 0.56900  0.96131  0.33536  Biso   1.000  C
  C35      1.0000 0.68100  0.96131  0.91464  Biso   1.000  C
  C36      1.0000 0.56900  0.28869  0.91464  Biso   1.000  C
  C37      1.0000 0.68100  0.78869  0.83536  Biso   1.000  C
  C38      1.0000 0.18100  0.28869  0.83536  Biso   1.000  C
  C39      1.0000 0.18100  0.78869  0.33536  Biso   1.000  C
  C40      1.0000 0.56900  0.46131  0.83536  Biso   1.000  C
  C41      1.0000 0.68100  0.46131  0.41464  Biso   1.000  C
  C42      1.0000 0.56900  0.78869  0.41464  Biso   1.000  C
  C43      1.0000 0.06900  0.96131  0.83536  Biso   1.000  C
  C44      1.0000 0.18100  0.96131  0.41464  Biso   1.000  C
  C45      1.0000 0.06900  0.28869  0.41464  Biso   1.000  C
  C46      1.0000 0.06900  0.46131  0.33536  Biso   1.000  C
  C47      1.0000 0.18100  0.46131  0.91464  Biso   1.000  C
  C48      1.0000 0.06900  0.78869  0.91464  Biso   1.000  C
  C49      1.0000 0.31900  0.71131  0.66464  Biso   1.000  C
  C50      1.0000 0.93100  0.53869  0.66464  Biso   1.000  C
  C51      1.0000 0.31900  0.53869  0.58536  Biso   1.000  C
  C52      1.0000 0.93100  0.71131  0.58536  Biso   1.000  C
  C53      1.0000 0.31900  0.21131  0.16464  Biso   1.000  C
  C54      1.0000 0.81900  0.71131  0.16464  Biso   1.000  C
  C55      1.0000 0.81900  0.21131  0.66464  Biso   1.000  C
  C56      1.0000 0.93100  0.03869  0.16464  Biso   1.000  C
  C57      1.0000 0.31900  0.03869  0.08536  Biso   1.000  C
  C58      1.0000 0.93100  0.21131  0.08536  Biso   1.000  C
  C59      1.0000 0.43100  0.53869  0.16464  Biso   1.000  C
  C60      1.0000 0.81900  0.53869  0.08536  Biso   1.000  C
  C61      1.0000 0.43100  0.71131  0.08536  Biso   1.000  C
  C62      1.0000 0.43100  0.03869  0.66464  Biso   1.000  C
  C63      1.0000 0.81900  0.03869  0.58536  Biso   1.000  C
  C64      1.0000 0.43100  0.21131  0.58536  Biso   1.000  C
  H129     1.0000 0.72840  0.31580  0.31150  Biso   1.000  H
  H130     1.0000 0.52160  0.93420  0.31150  Biso   1.000  H
  H131     1.0000 0.72840  0.93420  0.93850  Biso   1.000  H
  H132     1.0000 0.52160  0.31580  0.93850  Biso   1.000  H
  H133     1.0000 0.72840  0.81580  0.81150  Biso   1.000  H
  H134     1.0000 0.22840  0.31580  0.81150  Biso   1.000  H
  H135     1.0000 0.22840  0.81580  0.31150  Biso   1.000  H
  H136     1.0000 0.52160  0.43420  0.81150  Biso   1.000  H
  H137     1.0000 0.72840  0.43420  0.43850  Biso   1.000  H
  H138     1.0000 0.52160  0.81580  0.43850  Biso   1.000  H
  H139     1.0000 0.02160  0.93420  0.81150  Biso   1.000  H
  H140     1.0000 0.22840  0.93420  0.43850  Biso   1.000  H
  H141     1.0000 0.02160  0.31580  0.43850  Biso   1.000  H
  H142     1.0000 0.02160  0.43420  0.31150  Biso   1.000  H
  H143     1.0000 0.22840  0.43420  0.93850  Biso   1.000  H
  H144     1.0000 0.02160  0.81580  0.93850  Biso   1.000  H
  H145     1.0000 0.27160  0.68420  0.68850  Biso   1.000  H
  H146     1.0000 0.97840  0.56580  0.68850  Biso   1.000  H
  H147     1.0000 0.27160  0.56580  0.56150  Biso   1.000  H
  H148     1.0000 0.97840  0.68420  0.56150  Biso   1.000  H
  H149     1.0000 0.27160  0.18420  0.18850  Biso   1.000  H
  H150     1.0000 0.77160  0.68420  0.18850  Biso   1.000  H
  H151     1.0000 0.77160  0.18420  0.68850  Biso   1.000  H
  H152     1.0000 0.97840  0.06580  0.18850  Biso   1.000  H
  H153     1.0000 0.27160  0.06580  0.06150  Biso   1.000  H
  H154     1.0000 0.97840  0.18420  0.06150  Biso   1.000  H
  H155     1.0000 0.47840  0.56580  0.18850  Biso   1.000  H
  H156     1.0000 0.77160  0.56580  0.06150  Biso   1.000  H
  H157     1.0000 0.47840  0.68420  0.06150  Biso   1.000  H
  H158     1.0000 0.47840  0.06580  0.68850  Biso   1.000  H
  H159     1.0000 0.77160  0.06580  0.56150  Biso   1.000  H
  H160     1.0000 0.47840  0.18420  0.56150  Biso   1.000  H
  H161     1.0000 0.72760  0.30500  0.36190  Biso   1.000  H
  H162     1.0000 0.52240  0.94500  0.36190  Biso   1.000  H
  H163     1.0000 0.72760  0.94500  0.88810  Biso   1.000  H
  H164     1.0000 0.52240  0.30500  0.88810  Biso   1.000  H
  H165     1.0000 0.72760  0.80500  0.86190  Biso   1.000  H
  H166     1.0000 0.22760  0.30500  0.86190  Biso   1.000  H
  H167     1.0000 0.22760  0.80500  0.36190  Biso   1.000  H
  H168     1.0000 0.52240  0.44500  0.86190  Biso   1.000  H
  H169     1.0000 0.72760  0.44500  0.38810  Biso   1.000  H
  H170     1.0000 0.52240  0.80500  0.38810  Biso   1.000  H
  H171     1.0000 0.02240  0.94500  0.86190  Biso   1.000  H
  H172     1.0000 0.22760  0.94500  0.38810  Biso   1.000  H
  H173     1.0000 0.02240  0.30500  0.38810  Biso   1.000  H
  H174     1.0000 0.02240  0.44500  0.36190  Biso   1.000  H
  H175     1.0000 0.22760  0.44500  0.88810  Biso   1.000  H
  H176     1.0000 0.02240  0.80500  0.88810  Biso   1.000  H
  H177     1.0000 0.27240  0.69500  0.63810  Biso   1.000  H
  H178     1.0000 0.97760  0.55500  0.63810  Biso   1.000  H
  H179     1.0000 0.27240  0.55500  0.61190  Biso   1.000  H
  H180     1.0000 0.97760  0.69500  0.61190  Biso   1.000  H
  H181     1.0000 0.27240  0.19500  0.13810  Biso   1.000  H
  H182     1.0000 0.77240  0.69500  0.13810  Biso   1.000  H
  H183     1.0000 0.77240  0.19500  0.63810  Biso   1.000  H
  H184     1.0000 0.97760  0.05500  0.13810  Biso   1.000  H
  H185     1.0000 0.27240  0.05500  0.11190  Biso   1.000  H
  H186     1.0000 0.97760  0.19500  0.11190  Biso   1.000  H
  H187     1.0000 0.47760  0.55500  0.13810  Biso   1.000  H
  H188     1.0000 0.77240  0.55500  0.11190  Biso   1.000  H
  H189     1.0000 0.47760  0.69500  0.11190  Biso   1.000  H
  H190     1.0000 0.47760  0.05500  0.63810  Biso   1.000  H
  H191     1.0000 0.77240  0.05500  0.61190  Biso   1.000  H
  H192     1.0000 0.47760  0.19500  0.61190  Biso   1.000  H
  H193     1.0000 0.57800  0.30350  0.33610  Biso   1.000  H
  H194     1.0000 0.67200  0.94650  0.33610  Biso   1.000  H
  H195     1.0000 0.57800  0.94650  0.91390  Biso   1.000  H
  H196     1.0000 0.67200  0.30350  0.91390  Biso   1.000  H
  H197     1.0000 0.57800  0.80350  0.83610  Biso   1.000  H
  H198     1.0000 0.07800  0.30350  0.83610  Biso   1.000  H
  H199     1.0000 0.07800  0.80350  0.33610  Biso   1.000  H
  H200     1.0000 0.67200  0.44650  0.83610  Biso   1.000  H
  H201     1.0000 0.57800  0.44650  0.41390  Biso   1.000  H
  H202     1.0000 0.67200  0.80350  0.41390  Biso   1.000  H
  H203     1.0000 0.17200  0.94650  0.83610  Biso   1.000  H
  H204     1.0000 0.07800  0.94650  0.41390  Biso   1.000  H
  H205     1.0000 0.17200  0.30350  0.41390  Biso   1.000  H
  H206     1.0000 0.17200  0.44650  0.33610  Biso   1.000  H
  H207     1.0000 0.07800  0.44650  0.91390  Biso   1.000  H
  H208     1.0000 0.17200  0.80350  0.91390  Biso   1.000  H
  H209     1.0000 0.42200  0.69650  0.66390  Biso   1.000  H
  H210     1.0000 0.82800  0.55350  0.66390  Biso   1.000  H
  H211     1.0000 0.42200  0.55350  0.58610  Biso   1.000  H
  H212     1.0000 0.82800  0.69650  0.58610  Biso   1.000  H
  H213     1.0000 0.42200  0.19650  0.16390  Biso   1.000  H
  H214     1.0000 0.92200  0.69650  0.16390  Biso   1.000  H
  H215     1.0000 0.92200  0.19650  0.66390  Biso   1.000  H
  H216     1.0000 0.82800  0.05350  0.16390  Biso   1.000  H
  H217     1.0000 0.42200  0.05350  0.08610  Biso   1.000  H
  H218     1.0000 0.82800  0.19650  0.08610  Biso   1.000  H
  H219     1.0000 0.32800  0.55350  0.16390  Biso   1.000  H
  H220     1.0000 0.92200  0.55350  0.08610  Biso   1.000  H
  H221     1.0000 0.32800  0.69650  0.08610  Biso   1.000  H
  H222     1.0000 0.32800  0.05350  0.66390  Biso   1.000  H
  H223     1.0000 0.92200  0.05350  0.58610  Biso   1.000  H
  H224     1.0000 0.32800  0.19650  0.58610  Biso   1.000  H
  C65      1.0000 0.61510  0.00788  0.44738  Biso   1.000  C
  C66      1.0000 0.63490  0.24212  0.44738  Biso   1.000  C
  C67      1.0000 0.61510  0.24212  0.80262  Biso   1.000  C
  C68      1.0000 0.63490  0.00788  0.80262  Biso   1.000  C
  C69      1.0000 0.61510  0.50788  0.94738  Biso   1.000  C
  C70      1.0000 0.11510  0.00788  0.94738  Biso   1.000  C
  C71      1.0000 0.11510  0.50788  0.44738  Biso   1.000  C
  C72      1.0000 0.63490  0.74212  0.94738  Biso   1.000  C
  C73      1.0000 0.61510  0.74212  0.30262  Biso   1.000  C
  C74      1.0000 0.63490  0.50788  0.30262  Biso   1.000  C
  C75      1.0000 0.13490  0.24212  0.94738  Biso   1.000  C
  C76      1.0000 0.11510  0.24212  0.30262  Biso   1.000  C
  C77      1.0000 0.13490  0.00788  0.30262  Biso   1.000  C
  C78      1.0000 0.13490  0.74212  0.44738  Biso   1.000  C
  C79      1.0000 0.11510  0.74212  0.80262  Biso   1.000  C
  C80      1.0000 0.13490  0.50788  0.80262  Biso   1.000  C
  C81      1.0000 0.38490  0.99212  0.55262  Biso   1.000  C
  C82      1.0000 0.86510  0.25788  0.55262  Biso   1.000  C
  C83      1.0000 0.38490  0.25788  0.69738  Biso   1.000  C
  C84      1.0000 0.86510  0.99212  0.69738  Biso   1.000  C
  C85      1.0000 0.38490  0.49212  0.05262  Biso   1.000  C
  C86      1.0000 0.88490  0.99212  0.05262  Biso   1.000  C
  C87      1.0000 0.88490  0.49212  0.55262  Biso   1.000  C
  C88      1.0000 0.86510  0.75788  0.05262  Biso   1.000  C
  C89      1.0000 0.38490  0.75788  0.19738  Biso   1.000  C
  C90      1.0000 0.86510  0.49212  0.19738  Biso   1.000  C
  C91      1.0000 0.36510  0.25788  0.05262  Biso   1.000  C
  C92      1.0000 0.88490  0.25788  0.19738  Biso   1.000  C
  C93      1.0000 0.36510  0.99212  0.19738  Biso   1.000  C
  C94      1.0000 0.36510  0.75788  0.55262  Biso   1.000  C
  C95      1.0000 0.88490  0.75788  0.69738  Biso   1.000  C
  C96      1.0000 0.36510  0.49212  0.69738  Biso   1.000  C
  C97      1.0000 0.54540  0.97798  0.48820  Biso   1.000  C
  C98      1.0000 0.70460  0.27202  0.48820  Biso   1.000  C
  C99      1.0000 0.54540  0.27202  0.76180  Biso   1.000  C
  C100     1.0000 0.70460  0.97798  0.76180  Biso   1.000  C
  C101     1.0000 0.54540  0.47798  0.98820  Biso   1.000  C
  C102     1.0000 0.04540  0.97798  0.98820  Biso   1.000  C
  C103     1.0000 0.04540  0.47798  0.48820  Biso   1.000  C
  C104     1.0000 0.70460  0.77202  0.98820  Biso   1.000  C
  C105     1.0000 0.54540  0.77202  0.26180  Biso   1.000  C
  C106     1.0000 0.70460  0.47798  0.26180  Biso   1.000  C
  C107     1.0000 0.20460  0.27202  0.98820  Biso   1.000  C
  C108     1.0000 0.04540  0.27202  0.26180  Biso   1.000  C
  C109     1.0000 0.20460  0.97798  0.26180  Biso   1.000  C
  C110     1.0000 0.20460  0.77202  0.48820  Biso   1.000  C
  C111     1.0000 0.04540  0.77202  0.76180  Biso   1.000  C
  C112     1.0000 0.20460  0.47798  0.76180  Biso   1.000  C
  C113     1.0000 0.45460  0.02202  0.51180  Biso   1.000  C
  C114     1.0000 0.79540  0.22798  0.51180  Biso   1.000  C
  C115     1.0000 0.45460  0.22798  0.73820  Biso   1.000  C
  C116     1.0000 0.79540  0.02202  0.73820  Biso   1.000  C
  C117     1.0000 0.45460  0.52202  0.01180  Biso   1.000  C
  C118     1.0000 0.95460  0.02202  0.01180  Biso   1.000  C
  C119     1.0000 0.95460  0.52202  0.51180  Biso   1.000  C
  C120     1.0000 0.79540  0.72798  0.01180  Biso   1.000  C
  C121     1.0000 0.45460  0.72798  0.23820  Biso   1.000  C
  C122     1.0000 0.79540  0.52202  0.23820  Biso   1.000  C
  C123     1.0000 0.29540  0.22798  0.01180  Biso   1.000  C
  C124     1.0000 0.95460  0.22798  0.23820  Biso   1.000  C
  C125     1.0000 0.29540  0.02202  0.23820  Biso   1.000  C
  C126     1.0000 0.29540  0.72798  0.51180  Biso   1.000  C
  C127     1.0000 0.95460  0.72798  0.73820  Biso   1.000  C
  C128     1.0000 0.29540  0.52202  0.73820  Biso   1.000  C
  H225     1.0000 0.56760  0.92510  0.49740  Biso   1.000  H
  H226     1.0000 0.68240  0.32490  0.49740  Biso   1.000  H
  H227     1.0000 0.56760  0.32490  0.75260  Biso   1.000  H
  H228     1.0000 0.68240  0.92510  0.75260  Biso   1.000  H
  H229     1.0000 0.56760  0.42510  0.99740  Biso   1.000  H
  H230     1.0000 0.06760  0.92510  0.99740  Biso   1.000  H
  H231     1.0000 0.06760  0.42510  0.49740  Biso   1.000  H
  H232     1.0000 0.68240  0.82490  0.99740  Biso   1.000  H
  H233     1.0000 0.56760  0.82490  0.25260  Biso   1.000  H
  H234     1.0000 0.68240  0.42510  0.25260  Biso   1.000  H
  H235     1.0000 0.18240  0.32490  0.99740  Biso   1.000  H
  H236     1.0000 0.06760  0.32490  0.25260  Biso   1.000  H
  H237     1.0000 0.18240  0.92510  0.25260  Biso   1.000  H
  H238     1.0000 0.18240  0.82490  0.49740  Biso   1.000  H
  H239     1.0000 0.06760  0.82490  0.75260  Biso   1.000  H
  H240     1.0000 0.18240  0.42510  0.75260  Biso   1.000  H
  H241     1.0000 0.43240  0.07490  0.50260  Biso   1.000  H
  H242     1.0000 0.81760  0.17510  0.50260  Biso   1.000  H
  H243     1.0000 0.43240  0.17510  0.74740  Biso   1.000  H
  H244     1.0000 0.81760  0.07490  0.74740  Biso   1.000  H
  H245     1.0000 0.43240  0.57490  0.00260  Biso   1.000  H
  H246     1.0000 0.93240  0.07490  0.00260  Biso   1.000  H
  H247     1.0000 0.93240  0.57490  0.50260  Biso   1.000  H
  H248     1.0000 0.81760  0.67510  0.00260  Biso   1.000  H
  H249     1.0000 0.43240  0.67510  0.24740  Biso   1.000  H
  H250     1.0000 0.81760  0.57490  0.24740  Biso   1.000  H
  H251     1.0000 0.31760  0.17510  0.00260  Biso   1.000  H
  H252     1.0000 0.93240  0.17510  0.24740  Biso   1.000  H
  H253     1.0000 0.31760  0.07490  0.24740  Biso   1.000  H
  H254     1.0000 0.31760  0.67510  0.50260  Biso   1.000  H
  H255     1.0000 0.93240  0.67510  0.74740  Biso   1.000  H
  H256     1.0000 0.31760  0.57490  0.74740  Biso   1.000  H
