data_image0
_cell_length_a       7.437
_cell_length_b       9.367
_cell_length_c       20.103
_cell_angle_alpha    90
_cell_angle_beta     94.07
_cell_angle_gamma    90

_symmetry_space_group_name_H-M    "P 1"
_symmetry_int_tables_number       1

loop_
  _symmetry_equiv_pos_as_xyz
  'x, y, z'

loop_
  _atom_site_label
  _atom_site_occupancy
  _atom_site_fract_x
  _atom_site_fract_y
  _atom_site_fract_z
  _atom_site_thermal_displace_type
  _atom_site_B_iso_or_equiv
  _atom_site_type_symbol
  Cu1      1.0000 0.06239  0.55038  0.26898  Biso   1.000  Cu
  Cu2      1.0000 0.43761  0.05038  0.23102  Biso   1.000  Cu
  Cu3      1.0000 0.93761  0.44962  0.73102  Biso   1.000  Cu
  Cu4      1.0000 0.56239  0.94962  0.76898  Biso   1.000  Cu
  O1       1.0000 0.98750  0.34450  0.27060  Biso   1.000  O
  O2       1.0000 0.51250  0.84450  0.22940  Biso   1.000  O
  O3       1.0000 0.01250  0.65550  0.72940  Biso   1.000  O
  O4       1.0000 0.48750  0.15550  0.77060  Biso   1.000  O
  H1       1.0000 0.01400  0.28200  0.23500  Biso   1.000  H
  H2       1.0000 0.48600  0.78200  0.26500  Biso   1.000  H
  H3       1.0000 0.98600  0.71800  0.76500  Biso   1.000  H
  H4       1.0000 0.51400  0.21800  0.73500  Biso   1.000  H
  O5       1.0000 0.13600  0.52360  0.17750  Biso   1.000  O
  O6       1.0000 0.36400  0.02360  0.32250  Biso   1.000  O
  O7       1.0000 0.86400  0.47640  0.82250  Biso   1.000  O
  O8       1.0000 0.63600  0.97640  0.67750  Biso   1.000  O
  O9       1.0000 0.84200  0.55610  0.16570  Biso   1.000  O
  O10      1.0000 0.65800  0.05610  0.33430  Biso   1.000  O
  O11      1.0000 0.15800  0.44390  0.83430  Biso   1.000  O
  O12      1.0000 0.34200  0.94390  0.66570  Biso   1.000  O
  O13      1.0000 0.33360  0.49470  0.32500  Biso   1.000  O
  O14      1.0000 0.16640  0.99470  0.17500  Biso   1.000  O
  O15      1.0000 0.66640  0.50530  0.67500  Biso   1.000  O
  O16      1.0000 0.83360  0.00530  0.82500  Biso   1.000  O
  O17      1.0000 0.52030  0.68200  0.33910  Biso   1.000  O
  O18      1.0000 0.97970  0.18200  0.16090  Biso   1.000  O
  O19      1.0000 0.47970  0.31800  0.66090  Biso   1.000  O
  O20      1.0000 0.02030  0.81800  0.83910  Biso   1.000  O
  N1       1.0000 0.10700  0.76080  0.27220  Biso   1.000  N
  N2       1.0000 0.39300  0.26080  0.22780  Biso   1.000  N
  N3       1.0000 0.89300  0.23920  0.72780  Biso   1.000  N
  N4       1.0000 0.60700  0.73920  0.77220  Biso   1.000  N
  H5       1.0000 0.22130  0.77820  0.28790  Biso   1.000  H
  H6       1.0000 0.27870  0.27820  0.21210  Biso   1.000  H
  H7       1.0000 0.77870  0.22180  0.71210  Biso   1.000  H
  H8       1.0000 0.72130  0.72180  0.78790  Biso   1.000  H
  H9       1.0000 0.09100  0.79790  0.23090  Biso   1.000  H
  H10      1.0000 0.40900  0.29790  0.26910  Biso   1.000  H
  H11      1.0000 0.90900  0.20210  0.76910  Biso   1.000  H
  H12      1.0000 0.59100  0.70210  0.73090  Biso   1.000  H
  N5       1.0000 0.92570  0.58530  0.35110  Biso   1.000  N
  N6       1.0000 0.57430  0.08530  0.14890  Biso   1.000  N
  N7       1.0000 0.07430  0.41470  0.64890  Biso   1.000  N
  N8       1.0000 0.42570  0.91470  0.85110  Biso   1.000  N
  H13      1.0000 0.80660  0.58750  0.33720  Biso   1.000  H
  H14      1.0000 0.69340  0.08750  0.16280  Biso   1.000  H
  H15      1.0000 0.19340  0.41250  0.66280  Biso   1.000  H
  H16      1.0000 0.30660  0.91250  0.83720  Biso   1.000  H
  C1       1.0000 0.99580  0.26180  0.33050  Biso   1.000  C
  C2       1.0000 0.50420  0.76180  0.16950  Biso   1.000  C
  C3       1.0000 0.00420  0.73820  0.66950  Biso   1.000  C
  C4       1.0000 0.49580  0.23820  0.83050  Biso   1.000  C
  H17      1.0000 0.11980  0.25480  0.34880  Biso   1.000  H
  H18      1.0000 0.38020  0.75480  0.15120  Biso   1.000  H
  H19      1.0000 0.88020  0.74520  0.65120  Biso   1.000  H
  H20      1.0000 0.61980  0.24520  0.84880  Biso   1.000  H
  H21      1.0000 0.95160  0.16610  0.32080  Biso   1.000  H
  H22      1.0000 0.54840  0.66610  0.17920  Biso   1.000  H
  H23      1.0000 0.04840  0.83390  0.67920  Biso   1.000  H
  H24      1.0000 0.45160  0.33390  0.82080  Biso   1.000  H
  C5       1.0000 0.88140  0.33260  0.38100  Biso   1.000  C
  C6       1.0000 0.61860  0.83260  0.11900  Biso   1.000  C
  C7       1.0000 0.11860  0.66740  0.61900  Biso   1.000  C
  C8       1.0000 0.38140  0.16740  0.88100  Biso   1.000  C
  H25      1.0000 0.75900  0.34130  0.36130  Biso   1.000  H
  H26      1.0000 0.74100  0.84130  0.13870  Biso   1.000  H
  H27      1.0000 0.24100  0.65870  0.63870  Biso   1.000  H
  H28      1.0000 0.25900  0.15870  0.86130  Biso   1.000  H
  H29      1.0000 0.87820  0.27040  0.41950  Biso   1.000  H
  H30      1.0000 0.62180  0.77040  0.08050  Biso   1.000  H
  H31      1.0000 0.12180  0.72960  0.58050  Biso   1.000  H
  H32      1.0000 0.37820  0.22960  0.91950  Biso   1.000  H
  C9       1.0000 0.94540  0.47850  0.40470  Biso   1.000  C
  C10      1.0000 0.55460  0.97850  0.09530  Biso   1.000  C
  C11      1.0000 0.05460  0.52150  0.59530  Biso   1.000  C
  C12      1.0000 0.44540  0.02150  0.90470  Biso   1.000  C
  H33      1.0000 0.87640  0.50860  0.44140  Biso   1.000  H
  H34      1.0000 0.62360  0.00860  0.05860  Biso   1.000  H
  H35      1.0000 0.12360  0.49140  0.55860  Biso   1.000  H
  H36      1.0000 0.37640  0.99140  0.94140  Biso   1.000  H
  H37      1.0000 0.07110  0.47270  0.42100  Biso   1.000  H
  H38      1.0000 0.42890  0.97270  0.07900  Biso   1.000  H
  H39      1.0000 0.92890  0.52730  0.57900  Biso   1.000  H
  H40      1.0000 0.57110  0.02730  0.92100  Biso   1.000  H
  C13      1.0000 0.97390  0.73160  0.37520  Biso   1.000  C
  C14      1.0000 0.52610  0.23160  0.12480  Biso   1.000  C
  C15      1.0000 0.02610  0.26840  0.62480  Biso   1.000  C
  C16      1.0000 0.47390  0.76840  0.87520  Biso   1.000  C
  H41      1.0000 0.09000  0.73020  0.40050  Biso   1.000  H
  H42      1.0000 0.41000  0.23020  0.09950  Biso   1.000  H
  H43      1.0000 0.91000  0.26980  0.59950  Biso   1.000  H
  H44      1.0000 0.59000  0.76980  0.90050  Biso   1.000  H
  H45      1.0000 0.88420  0.76630  0.40400  Biso   1.000  H
  H46      1.0000 0.61580  0.26630  0.09600  Biso   1.000  H
  H47      1.0000 0.11580  0.23370  0.59600  Biso   1.000  H
  H48      1.0000 0.38420  0.73370  0.90400  Biso   1.000  H
  C17      1.0000 0.98170  0.82750  0.31580  Biso   1.000  C
  C18      1.0000 0.51830  0.32750  0.18420  Biso   1.000  C
  C19      1.0000 0.01830  0.17250  0.68420  Biso   1.000  C
  C20      1.0000 0.48170  0.67250  0.81580  Biso   1.000  C
  H49      1.0000 0.86320  0.83690  0.29270  Biso   1.000  H
  H50      1.0000 0.63680  0.33690  0.20730  Biso   1.000  H
  H51      1.0000 0.13680  0.16310  0.70730  Biso   1.000  H
  H52      1.0000 0.36320  0.66310  0.79270  Biso   1.000  H
  H53      1.0000 0.02420  0.92160  0.32940  Biso   1.000  H
  H54      1.0000 0.47580  0.42160  0.17060  Biso   1.000  H
  H55      1.0000 0.97580  0.07840  0.67060  Biso   1.000  H
  H56      1.0000 0.52420  0.57840  0.82940  Biso   1.000  H
  C21      1.0000 0.98740  0.53320  0.14250  Biso   1.000  C
  C22      1.0000 0.51260  0.03320  0.35750  Biso   1.000  C
  C23      1.0000 0.01260  0.46680  0.85750  Biso   1.000  C
  C24      1.0000 0.48740  0.96680  0.64250  Biso   1.000  C
  C25      1.0000 0.99550  0.51670  0.06870  Biso   1.000  C
  C26      1.0000 0.50450  0.01670  0.43130  Biso   1.000  C
  C27      1.0000 0.00450  0.48330  0.93130  Biso   1.000  C
  C28      1.0000 0.49550  0.98330  0.56870  Biso   1.000  C
  C29      1.0000 0.15940  0.50100  0.03960  Biso   1.000  C
  C30      1.0000 0.34060  0.00100  0.46040  Biso   1.000  C
  C31      1.0000 0.84060  0.49900  0.96040  Biso   1.000  C
  C32      1.0000 0.65940  0.99900  0.53960  Biso   1.000  C
  H57      1.0000 0.26660  0.50140  0.06630  Biso   1.000  H
  H58      1.0000 0.23340  0.00140  0.43370  Biso   1.000  H
  H59      1.0000 0.73340  0.49860  0.93370  Biso   1.000  H
  H60      1.0000 0.76660  0.99860  0.56630  Biso   1.000  H
  C33      1.0000 0.83630  0.51490  0.02800  Biso   1.000  C
  C34      1.0000 0.66370  0.01490  0.47200  Biso   1.000  C
  C35      1.0000 0.16370  0.48510  0.97200  Biso   1.000  C
  C36      1.0000 0.33630  0.98510  0.52800  Biso   1.000  C
  H61      1.0000 0.72620  0.52450  0.04680  Biso   1.000  H
  H62      1.0000 0.77380  0.02450  0.45320  Biso   1.000  H
  H63      1.0000 0.27380  0.47550  0.95320  Biso   1.000  H
  H64      1.0000 0.22620  0.97550  0.54680  Biso   1.000  H
  C37      1.0000 0.44000  0.57560  0.35930  Biso   1.000  C
  C38      1.0000 0.06000  0.07560  0.14070  Biso   1.000  C
  C39      1.0000 0.56000  0.42440  0.64070  Biso   1.000  C
  C40      1.0000 0.94000  0.92440  0.85930  Biso   1.000  C
  C41      1.0000 0.47310  0.53430  0.43230  Biso   1.000  C
  C42      1.0000 0.02690  0.03430  0.06770  Biso   1.000  C
  C43      1.0000 0.52690  0.46570  0.56770  Biso   1.000  C
  C44      1.0000 0.97310  0.96570  0.93230  Biso   1.000  C
  C45      1.0000 0.53330  0.63720  0.47880  Biso   1.000  C
  C46      1.0000 0.96670  0.13720  0.02120  Biso   1.000  C
  C47      1.0000 0.46670  0.36280  0.52120  Biso   1.000  C
  C48      1.0000 0.03330  0.86280  0.97880  Biso   1.000  C
  H65      1.0000 0.55490  0.72990  0.46490  Biso   1.000  H
  H66      1.0000 0.94510  0.22990  0.03510  Biso   1.000  H
  H67      1.0000 0.44510  0.27010  0.53510  Biso   1.000  H
  H68      1.0000 0.05490  0.77010  0.96490  Biso   1.000  H
  C49      1.0000 0.43910  0.39810  0.45460  Biso   1.000  C
  C50      1.0000 0.06090  0.89810  0.04540  Biso   1.000  C
  C51      1.0000 0.56090  0.60190  0.54540  Biso   1.000  C
  C52      1.0000 0.93910  0.10190  0.95460  Biso   1.000  C
  H69      1.0000 0.39690  0.32900  0.42410  Biso   1.000  H
  H70      1.0000 0.10310  0.82900  0.07590  Biso   1.000  H
  H71      1.0000 0.60310  0.67100  0.57590  Biso   1.000  H
  H72      1.0000 0.89690  0.17100  0.92410  Biso   1.000  H
