data_image0
_cell_length_a       10.252
_cell_length_b       8.086
_cell_length_c       20.609
_cell_angle_alpha    90
_cell_angle_beta     90.059
_cell_angle_gamma    90

_symmetry_space_group_name_H-M    "P 1"
_symmetry_int_tables_number       1

loop_
  _symmetry_equiv_pos_as_xyz
  'x, y, z'

loop_
  _atom_site_label
  _atom_site_occupancy
  _atom_site_fract_x
  _atom_site_fract_y
  _atom_site_fract_z
  _atom_site_thermal_displace_type
  _atom_site_B_iso_or_equiv
  _atom_site_type_symbol
  Cu1      1.0000 0.60893  0.07954  0.51584  Biso   1.000  Cu
  Cu2      1.0000 0.89107  0.57954  0.98416  Biso   1.000  Cu
  Cu3      1.0000 0.39107  0.92046  0.48416  Biso   1.000  Cu
  Cu4      1.0000 0.10893  0.42046  0.01584  Biso   1.000  Cu
  P1       1.0000 0.91206  0.13036  0.58481  Biso   1.000  P
  P2       1.0000 0.58794  0.63036  0.91519  Biso   1.000  P
  P3       1.0000 0.08794  0.86964  0.41519  Biso   1.000  P
  P4       1.0000 0.41206  0.36964  0.08481  Biso   1.000  P
  O1       1.0000 0.78299  0.18130  0.55730  Biso   1.000  O
  O2       1.0000 0.71701  0.68130  0.94270  Biso   1.000  O
  O3       1.0000 0.21701  0.81870  0.44270  Biso   1.000  O
  O4       1.0000 0.28299  0.31870  0.05730  Biso   1.000  O
  O5       1.0000 0.33290  0.95460  0.57470  Biso   1.000  O
  O6       1.0000 0.16710  0.45460  0.92530  Biso   1.000  O
  O7       1.0000 0.66710  0.04540  0.42530  Biso   1.000  O
  O8       1.0000 0.83290  0.54540  0.07470  Biso   1.000  O
  O9       1.0000 0.33610  0.14640  0.46177  Biso   1.000  O
  O10      1.0000 0.16390  0.64640  0.03823  Biso   1.000  O
  O11      1.0000 0.66390  0.85360  0.53823  Biso   1.000  O
  O12      1.0000 0.83610  0.35360  0.96177  Biso   1.000  O
  O13      1.0000 0.52300  0.27880  0.48366  Biso   1.000  O
  O14      1.0000 0.97700  0.77880  0.01634  Biso   1.000  O
  O15      1.0000 0.47700  0.72120  0.51634  Biso   1.000  O
  O16      1.0000 0.02300  0.22120  0.98366  Biso   1.000  O
  C1       1.0000 0.01830  0.30640  0.59631  Biso   1.000  C
  C2       1.0000 0.48170  0.80640  0.90369  Biso   1.000  C
  C3       1.0000 0.98170  0.69360  0.40369  Biso   1.000  C
  C4       1.0000 0.51830  0.19360  0.09631  Biso   1.000  C
  O17      1.0000 0.51600  0.09240  0.60004  Biso   1.000  O
  O18      1.0000 0.98400  0.59240  0.89996  Biso   1.000  O
  O19      1.0000 0.48400  0.90760  0.39996  Biso   1.000  O
  O20      1.0000 0.01600  0.40760  0.10004  Biso   1.000  O
  C5       1.0000 0.89950  0.03290  0.66356  Biso   1.000  C
  C6       1.0000 0.60050  0.53290  0.83644  Biso   1.000  C
  C7       1.0000 0.10050  0.96710  0.33644  Biso   1.000  C
  C8       1.0000 0.39950  0.46710  0.16356  Biso   1.000  C
  C9       1.0000 0.96510  0.44490  0.62622  Biso   1.000  C
  C10      1.0000 0.53490  0.94490  0.87378  Biso   1.000  C
  C11      1.0000 0.03490  0.55510  0.37378  Biso   1.000  C
  C12      1.0000 0.46510  0.05510  0.12622  Biso   1.000  C
  H1       1.0000 0.87820  0.44380  0.63910  Biso   1.000  H
  H2       1.0000 0.62180  0.94380  0.86090  Biso   1.000  H
  H3       1.0000 0.12180  0.55620  0.36090  Biso   1.000  H
  H4       1.0000 0.37820  0.05620  0.13910  Biso   1.000  H
  C13      1.0000 0.00020  0.04040  0.70876  Biso   1.000  C
  C14      1.0000 0.49980  0.54040  0.79124  Biso   1.000  C
  C15      1.0000 0.99980  0.95960  0.29124  Biso   1.000  C
  C16      1.0000 0.50020  0.45960  0.20876  Biso   1.000  C
  H5       1.0000 0.07370  0.10410  0.70020  Biso   1.000  H
  H6       1.0000 0.42630  0.60410  0.79980  Biso   1.000  H
  H7       1.0000 0.92630  0.89590  0.29980  Biso   1.000  H
  H8       1.0000 0.57370  0.39590  0.20020  Biso   1.000  H
  C17      1.0000 0.14840  0.30960  0.57741  Biso   1.000  C
  C18      1.0000 0.35160  0.80960  0.92259  Biso   1.000  C
  C19      1.0000 0.85160  0.69040  0.42259  Biso   1.000  C
  C20      1.0000 0.64840  0.19040  0.07741  Biso   1.000  C
  H9       1.0000 0.18550  0.21740  0.55780  Biso   1.000  H
  H10      1.0000 0.31450  0.71740  0.94220  Biso   1.000  H
  H11      1.0000 0.81450  0.78260  0.44220  Biso   1.000  H
  H12      1.0000 0.68550  0.28260  0.05780  Biso   1.000  H
  C21      1.0000 0.99120  0.95340  0.76642  Biso   1.000  C
  C22      1.0000 0.50880  0.45340  0.73358  Biso   1.000  C
  C23      1.0000 0.00880  0.04660  0.23358  Biso   1.000  C
  C24      1.0000 0.49120  0.54660  0.26642  Biso   1.000  C
  H13      1.0000 0.05880  0.95920  0.79650  Biso   1.000  H
  H14      1.0000 0.44120  0.45920  0.70350  Biso   1.000  H
  H15      1.0000 0.94120  0.04080  0.20350  Biso   1.000  H
  H16      1.0000 0.55880  0.54080  0.29650  Biso   1.000  H
  C25      1.0000 0.78200  0.85190  0.73564  Biso   1.000  C
  C26      1.0000 0.71800  0.35190  0.76436  Biso   1.000  C
  C27      1.0000 0.21800  0.14810  0.26436  Biso   1.000  C
  C28      1.0000 0.28200  0.64810  0.23564  Biso   1.000  C
  H17      1.0000 0.70860  0.78840  0.74470  Biso   1.000  H
  H18      1.0000 0.79140  0.28840  0.75530  Biso   1.000  H
  H19      1.0000 0.29140  0.21160  0.25530  Biso   1.000  H
  H20      1.0000 0.20860  0.71160  0.24470  Biso   1.000  H
  C29      1.0000 0.88270  0.85810  0.77966  Biso   1.000  C
  C30      1.0000 0.61730  0.35810  0.72034  Biso   1.000  C
  C31      1.0000 0.11730  0.14190  0.22034  Biso   1.000  C
  C32      1.0000 0.38270  0.64190  0.27966  Biso   1.000  C
  H21      1.0000 0.87770  0.79840  0.81820  Biso   1.000  H
  H22      1.0000 0.62230  0.29840  0.68180  Biso   1.000  H
  H23      1.0000 0.12230  0.20160  0.18180  Biso   1.000  H
  H24      1.0000 0.37770  0.70160  0.31820  Biso   1.000  H
  C33      1.0000 0.16880  0.58780  0.61667  Biso   1.000  C
  C34      1.0000 0.33120  0.08780  0.88333  Biso   1.000  C
  C35      1.0000 0.83120  0.41220  0.38333  Biso   1.000  C
  C36      1.0000 0.66880  0.91220  0.11667  Biso   1.000  C
  H25      1.0000 0.21870  0.68280  0.62240  Biso   1.000  H
  H26      1.0000 0.28130  0.18280  0.87760  Biso   1.000  H
  H27      1.0000 0.78130  0.31720  0.37760  Biso   1.000  H
  H28      1.0000 0.71870  0.81720  0.12240  Biso   1.000  H
  C37      1.0000 0.99460  0.97590  0.53602  Biso   1.000  C
  C38      1.0000 0.50540  0.47590  0.96398  Biso   1.000  C
  C39      1.0000 0.00540  0.02410  0.46398  Biso   1.000  C
  C40      1.0000 0.49460  0.52410  0.03602  Biso   1.000  C
  H29      1.0000 0.08150  0.95870  0.55330  Biso   1.000  H
  H30      1.0000 0.41850  0.45870  0.94670  Biso   1.000  H
  H31      1.0000 0.91850  0.04130  0.44670  Biso   1.000  H
  H32      1.0000 0.58150  0.54130  0.05330  Biso   1.000  H
  H33      1.0000 0.94770  0.87210  0.53940  Biso   1.000  H
  H34      1.0000 0.55230  0.37210  0.96060  Biso   1.000  H
  H35      1.0000 0.05230  0.12790  0.46060  Biso   1.000  H
  H36      1.0000 0.44770  0.62790  0.03940  Biso   1.000  H
  C41      1.0000 0.40820  0.02470  0.61443  Biso   1.000  C
  C42      1.0000 0.09180  0.52470  0.88557  Biso   1.000  C
  C43      1.0000 0.59180  0.97530  0.38557  Biso   1.000  C
  C44      1.0000 0.90820  0.47530  0.11443  Biso   1.000  C
  C45      1.0000 0.04050  0.58460  0.63701  Biso   1.000  C
  C46      1.0000 0.45950  0.08460  0.86299  Biso   1.000  C
  C47      1.0000 0.95950  0.41540  0.36299  Biso   1.000  C
  C48      1.0000 0.54050  0.91540  0.13701  Biso   1.000  C
  H37      1.0000 0.00470  0.67590  0.65790  Biso   1.000  H
  H38      1.0000 0.49530  0.17590  0.84210  Biso   1.000  H
  H39      1.0000 0.99530  0.32410  0.34210  Biso   1.000  H
  H40      1.0000 0.50470  0.82410  0.15790  Biso   1.000  H
  C49      1.0000 0.22280  0.45030  0.58790  Biso   1.000  C
  C50      1.0000 0.27720  0.95030  0.91210  Biso   1.000  C
  C51      1.0000 0.77720  0.54970  0.41210  Biso   1.000  C
  C52      1.0000 0.72280  0.04970  0.08790  Biso   1.000  C
  H41      1.0000 0.30990  0.45190  0.57540  Biso   1.000  H
  H42      1.0000 0.19010  0.95190  0.92460  Biso   1.000  H
  H43      1.0000 0.69010  0.54810  0.42460  Biso   1.000  H
  H44      1.0000 0.80990  0.04810  0.07540  Biso   1.000  H
  C53      1.0000 0.35530  0.42390  0.42870  Biso   1.000  C
  C54      1.0000 0.14470  0.92390  0.07130  Biso   1.000  C
  C55      1.0000 0.64470  0.57610  0.57130  Biso   1.000  C
  C56      1.0000 0.85530  0.07610  0.92870  Biso   1.000  C
  H45      1.0000 0.26850  0.40140  0.41350  Biso   1.000  H
  H46      1.0000 0.23150  0.90140  0.08650  Biso   1.000  H
  H47      1.0000 0.73150  0.59860  0.58650  Biso   1.000  H
  H48      1.0000 0.76850  0.09860  0.91350  Biso   1.000  H
  H49      1.0000 0.40970  0.45380  0.39270  Biso   1.000  H
  H50      1.0000 0.09030  0.95380  0.10730  Biso   1.000  H
  H51      1.0000 0.59030  0.54620  0.60730  Biso   1.000  H
  H52      1.0000 0.90970  0.04620  0.89270  Biso   1.000  H
  H53      1.0000 0.35290  0.51340  0.45930  Biso   1.000  H
  H54      1.0000 0.14710  0.01340  0.04070  Biso   1.000  H
  H55      1.0000 0.64710  0.48660  0.54070  Biso   1.000  H
  H56      1.0000 0.85290  0.98660  0.95930  Biso   1.000  H
  C57      1.0000 0.78870  0.93930  0.67780  Biso   1.000  C
  C58      1.0000 0.71130  0.43930  0.82220  Biso   1.000  C
  C59      1.0000 0.21130  0.06070  0.32220  Biso   1.000  C
  C60      1.0000 0.28870  0.56070  0.17780  Biso   1.000  C
  H57      1.0000 0.71960  0.93550  0.64860  Biso   1.000  H
  H58      1.0000 0.78040  0.43550  0.85140  Biso   1.000  H
  H59      1.0000 0.28040  0.06450  0.35140  Biso   1.000  H
  H60      1.0000 0.21960  0.56450  0.14860  Biso   1.000  H
  C61      1.0000 0.40930  0.27290  0.46093  Biso   1.000  C
  C62      1.0000 0.09070  0.77290  0.03907  Biso   1.000  C
  C63      1.0000 0.59070  0.72710  0.53907  Biso   1.000  C
  C64      1.0000 0.90930  0.22710  0.96093  Biso   1.000  C
  C65      1.0000 0.36950  0.02900  0.68448  Biso   1.000  C
  C66      1.0000 0.13050  0.52900  0.81552  Biso   1.000  C
  C67      1.0000 0.63050  0.97100  0.31552  Biso   1.000  C
  C68      1.0000 0.86950  0.47100  0.18448  Biso   1.000  C
  H61      1.0000 0.43550  0.08530  0.70910  Biso   1.000  H
  H62      1.0000 0.06450  0.58530  0.79090  Biso   1.000  H
  H63      1.0000 0.56450  0.91470  0.29090  Biso   1.000  H
  H64      1.0000 0.93550  0.41470  0.20910  Biso   1.000  H
  H65      1.0000 0.36010  0.91810  0.70040  Biso   1.000  H
  H66      1.0000 0.13990  0.41810  0.79960  Biso   1.000  H
  H67      1.0000 0.63990  0.08190  0.29960  Biso   1.000  H
  H68      1.0000 0.86010  0.58190  0.20040  Biso   1.000  H
  H69      1.0000 0.28800  0.08650  0.68890  Biso   1.000  H
  H70      1.0000 0.21200  0.58650  0.81110  Biso   1.000  H
  H71      1.0000 0.71200  0.91350  0.31110  Biso   1.000  H
  H72      1.0000 0.78800  0.41350  0.18890  Biso   1.000  H
