data_image0
_cell_length_a       13.381
_cell_length_b       5.8873
_cell_length_c       18.7769
_cell_angle_alpha    90
_cell_angle_beta     100.016
_cell_angle_gamma    90

_symmetry_space_group_name_H-M    "P 1"
_symmetry_int_tables_number       1

loop_
  _symmetry_equiv_pos_as_xyz
  'x, y, z'

loop_
  _atom_site_label
  _atom_site_occupancy
  _atom_site_fract_x
  _atom_site_fract_y
  _atom_site_fract_z
  _atom_site_thermal_displace_type
  _atom_site_B_iso_or_equiv
  _atom_site_type_symbol
  Cu1      1.0000 0.00000  0.00000  0.50000  Biso   1.000  Cu
  Cu2      1.0000 0.50000  0.50000  0.00000  Biso   1.000  Cu
  O1       1.0000 0.89220  0.08250  0.41859  Biso   1.000  O
  O2       1.0000 0.60780  0.58250  0.08141  Biso   1.000  O
  O3       1.0000 0.10780  0.91750  0.58141  Biso   1.000  O
  O4       1.0000 0.39220  0.41750  0.91859  Biso   1.000  O
  O5       1.0000 0.84240  0.76000  0.45928  Biso   1.000  O
  O6       1.0000 0.65760  0.26000  0.04072  Biso   1.000  O
  O7       1.0000 0.15760  0.24000  0.54072  Biso   1.000  O
  O8       1.0000 0.34240  0.74000  0.95928  Biso   1.000  O
  O9       1.0000 0.37090  0.38690  0.35498  Biso   1.000  O
  O10      1.0000 0.12910  0.88690  0.14502  Biso   1.000  O
  O11      1.0000 0.62910  0.61310  0.64502  Biso   1.000  O
  O12      1.0000 0.87090  0.11310  0.85498  Biso   1.000  O
  N1       1.0000 0.07970  0.86500  0.42990  Biso   1.000  N
  N2       1.0000 0.42030  0.36500  0.07010  Biso   1.000  N
  N3       1.0000 0.92030  0.13500  0.57010  Biso   1.000  N
  N4       1.0000 0.57970  0.63500  0.92990  Biso   1.000  N
  N5       1.0000 0.25560  0.39800  0.42905  Biso   1.000  N
  N6       1.0000 0.24440  0.89800  0.07095  Biso   1.000  N
  N7       1.0000 0.74440  0.60200  0.57095  Biso   1.000  N
  N8       1.0000 0.75560  0.10200  0.92905  Biso   1.000  N
  H1       1.0000 0.23690  0.33050  0.46520  Biso   1.000  H
  H2       1.0000 0.26310  0.83050  0.03480  Biso   1.000  H
  H3       1.0000 0.76310  0.66950  0.53480  Biso   1.000  H
  H4       1.0000 0.73690  0.16950  0.96520  Biso   1.000  H
  C1       1.0000 0.82800  0.92190  0.41680  Biso   1.000  C
  C2       1.0000 0.67200  0.42190  0.08320  Biso   1.000  C
  C3       1.0000 0.17200  0.07810  0.58320  Biso   1.000  C
  C4       1.0000 0.32800  0.57810  0.91680  Biso   1.000  C
  C5       1.0000 0.73240  0.93580  0.36250  Biso   1.000  C
  C6       1.0000 0.76760  0.43580  0.13750  Biso   1.000  C
  C7       1.0000 0.26760  0.06420  0.63750  Biso   1.000  C
  C8       1.0000 0.23240  0.56420  0.86250  Biso   1.000  C
  C9       1.0000 0.71290  0.12200  0.31720  Biso   1.000  C
  C10      1.0000 0.78710  0.62200  0.18280  Biso   1.000  C
  C11      1.0000 0.28710  0.87800  0.68280  Biso   1.000  C
  C12      1.0000 0.21290  0.37800  0.81720  Biso   1.000  C
  H5       1.0000 0.76000  0.23900  0.31960  Biso   1.000  H
  H6       1.0000 0.74000  0.73900  0.18040  Biso   1.000  H
  H7       1.0000 0.24000  0.76100  0.68040  Biso   1.000  H
  H8       1.0000 0.26000  0.26100  0.81960  Biso   1.000  H
  C13      1.0000 0.62260  0.13330  0.26820  Biso   1.000  C
  C14      1.0000 0.87740  0.63330  0.23180  Biso   1.000  C
  C15      1.0000 0.37740  0.86670  0.73180  Biso   1.000  C
  C16      1.0000 0.12260  0.36670  0.76820  Biso   1.000  C
  H9       1.0000 0.60900  0.25810  0.23760  Biso   1.000  H
  H10      1.0000 0.89100  0.75810  0.26240  Biso   1.000  H
  H11      1.0000 0.39100  0.74190  0.76240  Biso   1.000  H
  H12      1.0000 0.10900  0.24190  0.73760  Biso   1.000  H
  C17      1.0000 0.55290  0.95800  0.26490  Biso   1.000  C
  C18      1.0000 0.94710  0.45800  0.23510  Biso   1.000  C
  C19      1.0000 0.44710  0.04200  0.73510  Biso   1.000  C
  C20      1.0000 0.05290  0.54200  0.76490  Biso   1.000  C
  H13      1.0000 0.49270  0.96490  0.23160  Biso   1.000  H
  H14      1.0000 0.00730  0.46490  0.26840  Biso   1.000  H
  H15      1.0000 0.50730  0.03510  0.76840  Biso   1.000  H
  H16      1.0000 0.99270  0.53510  0.73160  Biso   1.000  H
  C21      1.0000 0.57160  0.77560  0.31000  Biso   1.000  C
  C22      1.0000 0.92840  0.27560  0.19000  Biso   1.000  C
  C23      1.0000 0.42840  0.22440  0.69000  Biso   1.000  C
  C24      1.0000 0.07160  0.72440  0.81000  Biso   1.000  C
  H17      1.0000 0.52380  0.66020  0.30830  Biso   1.000  H
  H18      1.0000 0.97620  0.16020  0.19170  Biso   1.000  H
  H19      1.0000 0.47620  0.33980  0.69170  Biso   1.000  H
  H20      1.0000 0.02380  0.83980  0.80830  Biso   1.000  H
  C25      1.0000 0.66220  0.76320  0.35840  Biso   1.000  C
  C26      1.0000 0.83780  0.26320  0.14160  Biso   1.000  C
  C27      1.0000 0.33780  0.23680  0.64160  Biso   1.000  C
  C28      1.0000 0.16220  0.73680  0.85840  Biso   1.000  C
  H21      1.0000 0.67580  0.63710  0.38830  Biso   1.000  H
  H22      1.0000 0.82420  0.13710  0.11170  Biso   1.000  H
  H23      1.0000 0.32420  0.36290  0.61170  Biso   1.000  H
  H24      1.0000 0.17580  0.86290  0.88830  Biso   1.000  H
  C29      1.0000 0.13800  0.68300  0.44790  Biso   1.000  C
  C30      1.0000 0.36200  0.18300  0.05210  Biso   1.000  C
  C31      1.0000 0.86200  0.31700  0.55210  Biso   1.000  C
  C32      1.0000 0.63800  0.81700  0.94790  Biso   1.000  C
  H25      1.0000 0.13730  0.61490  0.49250  Biso   1.000  H
  H26      1.0000 0.36270  0.11490  0.00750  Biso   1.000  H
  H27      1.0000 0.86270  0.38510  0.50750  Biso   1.000  H
  H28      1.0000 0.63730  0.88510  0.99250  Biso   1.000  H
  C33      1.0000 0.19990  0.59030  0.40300  Biso   1.000  C
  C34      1.0000 0.30010  0.09030  0.09700  Biso   1.000  C
  C35      1.0000 0.80010  0.40970  0.59700  Biso   1.000  C
  C36      1.0000 0.69990  0.90970  0.90300  Biso   1.000  C
  C37      1.0000 0.19950  0.69250  0.33660  Biso   1.000  C
  C38      1.0000 0.30050  0.19250  0.16340  Biso   1.000  C
  C39      1.0000 0.80050  0.30750  0.66340  Biso   1.000  C
  C40      1.0000 0.69950  0.80750  0.83660  Biso   1.000  C
  H29      1.0000 0.24000  0.63610  0.30520  Biso   1.000  H
  H30      1.0000 0.26000  0.13610  0.19480  Biso   1.000  H
  H31      1.0000 0.76000  0.36390  0.69480  Biso   1.000  H
  H32      1.0000 0.74000  0.86390  0.80520  Biso   1.000  H
  C41      1.0000 0.13840  0.87870  0.31780  Biso   1.000  C
  C42      1.0000 0.36160  0.37870  0.18220  Biso   1.000  C
  C43      1.0000 0.86160  0.12130  0.68220  Biso   1.000  C
  C44      1.0000 0.63840  0.62130  0.81780  Biso   1.000  C
  H33      1.0000 0.13680  0.94840  0.27310  Biso   1.000  H
  H34      1.0000 0.36320  0.44840  0.22690  Biso   1.000  H
  H35      1.0000 0.86320  0.05160  0.72690  Biso   1.000  H
  H36      1.0000 0.63680  0.55160  0.77310  Biso   1.000  H
  C45      1.0000 0.08040  0.96010  0.36510  Biso   1.000  C
  C46      1.0000 0.41960  0.46010  0.13490  Biso   1.000  C
  C47      1.0000 0.91960  0.03990  0.63490  Biso   1.000  C
  C48      1.0000 0.58040  0.53990  0.86510  Biso   1.000  C
  H37      1.0000 0.03970  0.08660  0.35190  Biso   1.000  H
  H38      1.0000 0.46030  0.58660  0.14810  Biso   1.000  H
  H39      1.0000 0.96030  0.91340  0.64810  Biso   1.000  H
  H40      1.0000 0.53970  0.41340  0.85190  Biso   1.000  H
  C49      1.0000 0.33570  0.30490  0.40440  Biso   1.000  C
  C50      1.0000 0.16430  0.80490  0.09560  Biso   1.000  C
  C51      1.0000 0.66430  0.69510  0.59560  Biso   1.000  C
  C52      1.0000 0.83570  0.19510  0.90440  Biso   1.000  C
  C53      1.0000 0.37550  0.08910  0.44240  Biso   1.000  C
  C54      1.0000 0.12450  0.58910  0.05760  Biso   1.000  C
  C55      1.0000 0.62450  0.91090  0.55760  Biso   1.000  C
  C56      1.0000 0.87550  0.41090  0.94240  Biso   1.000  C
  H41      1.0000 0.33170  0.04600  0.47620  Biso   1.000  H
  H42      1.0000 0.16830  0.54600  0.02380  Biso   1.000  H
  H43      1.0000 0.66830  0.95400  0.52380  Biso   1.000  H
  H44      1.0000 0.83170  0.45400  0.97620  Biso   1.000  H
  H45      1.0000 0.37320  0.96830  0.40700  Biso   1.000  H
  H46      1.0000 0.12680  0.46830  0.09300  Biso   1.000  H
  H47      1.0000 0.62680  0.03170  0.59300  Biso   1.000  H
  H48      1.0000 0.87320  0.53170  0.90700  Biso   1.000  H
  C57      1.0000 0.48030  0.11290  0.48180  Biso   1.000  C
  C58      1.0000 0.01970  0.61290  0.01820  Biso   1.000  C
  C59      1.0000 0.51970  0.88710  0.51820  Biso   1.000  C
  C60      1.0000 0.98030  0.38710  0.98180  Biso   1.000  C
  H49      1.0000 0.48250  0.22990  0.51840  Biso   1.000  H
  H50      1.0000 0.01750  0.72990  0.98160  Biso   1.000  H
  H51      1.0000 0.51750  0.77010  0.48160  Biso   1.000  H
  H52      1.0000 0.98250  0.27010  0.01840  Biso   1.000  H
  H53      1.0000 0.52410  0.15970  0.44840  Biso   1.000  H
  H54      1.0000 0.97590  0.65970  0.05160  Biso   1.000  H
  H55      1.0000 0.47590  0.84030  0.55160  Biso   1.000  H
  H56      1.0000 0.02410  0.34030  0.94840  Biso   1.000  H
