data_image0
_cell_length_a       10.768
_cell_length_b       10.866
_cell_length_c       13.553
_cell_angle_alpha    103.388
_cell_angle_beta     108.101
_cell_angle_gamma    102.33

_symmetry_space_group_name_H-M    "P 1"
_symmetry_int_tables_number       1

loop_
  _symmetry_equiv_pos_as_xyz
  'x, y, z'

loop_
  _atom_site_label
  _atom_site_occupancy
  _atom_site_fract_x
  _atom_site_fract_y
  _atom_site_fract_z
  _atom_site_thermal_displace_type
  _atom_site_B_iso_or_equiv
  _atom_site_type_symbol
  Cu1      1.0000 0.50000  0.00000  0.50000  Biso   1.000  Cu
  Cu2      1.0000 0.87038  0.86257  0.49013  Biso   1.000  Cu
  Cu3      1.0000 0.12962  0.13743  0.50987  Biso   1.000  Cu
  O1       1.0000 0.93660  0.94200  0.65040  Biso   1.000  O
  O2       1.0000 0.06340  0.05800  0.34960  Biso   1.000  O
  S1       1.0000 0.75859  0.23710  0.71499  Biso   1.000  S
  S2       1.0000 0.24141  0.76290  0.28501  Biso   1.000  S
  O3       1.0000 0.68110  0.99580  0.48750  Biso   1.000  O
  O4       1.0000 0.31890  0.00420  0.51250  Biso   1.000  O
  O5       1.0000 0.88920  0.04710  0.48560  Biso   1.000  O
  O6       1.0000 0.11080  0.95290  0.51440  Biso   1.000  O
  O7       1.0000 0.84680  0.68360  0.49780  Biso   1.000  O
  O8       1.0000 0.15320  0.31640  0.50220  Biso   1.000  O
  O9       1.0000 0.91780  0.71660  0.67750  Biso   1.000  O
  O10      1.0000 0.08220  0.28340  0.32250  Biso   1.000  O
  O11      1.0000 0.60860  0.17840  0.66530  Biso   1.000  O
  O12      1.0000 0.39140  0.82160  0.33470  Biso   1.000  O
  O13      1.0000 0.82980  0.13940  0.72630  Biso   1.000  O
  O14      1.0000 0.17020  0.86060  0.27370  Biso   1.000  O
  O15      1.0000 0.80320  0.34580  0.81450  Biso   1.000  O
  O16      1.0000 0.19680  0.65420  0.18550  Biso   1.000  O
  C1       1.0000 0.78700  0.08030  0.49800  Biso   1.000  C
  C2       1.0000 0.21300  0.91970  0.50200  Biso   1.000  C
  C3       1.0000 0.80420  0.22510  0.52210  Biso   1.000  C
  C4       1.0000 0.19580  0.77490  0.47790  Biso   1.000  C
  C5       1.0000 0.79850  0.30600  0.61740  Biso   1.000  C
  C6       1.0000 0.20150  0.69400  0.38260  Biso   1.000  C
  C7       1.0000 0.82100  0.44040  0.63510  Biso   1.000  C
  C8       1.0000 0.17900  0.55960  0.36490  Biso   1.000  C
  H1       1.0000 0.82290  0.49410  0.70020  Biso   1.000  H
  H2       1.0000 0.17710  0.50590  0.29980  Biso   1.000  H
  C9       1.0000 0.84080  0.49650  0.55700  Biso   1.000  C
  C10      1.0000 0.15920  0.50350  0.44300  Biso   1.000  C
  C11      1.0000 0.84020  0.41650  0.46080  Biso   1.000  C
  C12      1.0000 0.15980  0.58350  0.53920  Biso   1.000  C
  H3       1.0000 0.84900  0.45240  0.40640  Biso   1.000  H
  H4       1.0000 0.15100  0.54760  0.59360  Biso   1.000  H
  C13      1.0000 0.82660  0.28320  0.44560  Biso   1.000  C
  C14      1.0000 0.17340  0.71680  0.55440  Biso   1.000  C
  H5       1.0000 0.83250  0.23160  0.38310  Biso   1.000  H
  H6       1.0000 0.16750  0.76840  0.61690  Biso   1.000  H
  C15      1.0000 0.87040  0.64450  0.57980  Biso   1.000  C
  C16      1.0000 0.12960  0.35550  0.42020  Biso   1.000  C
  N1       1.0000 0.52590  0.88220  0.59380  Biso   1.000  N
  N2       1.0000 0.47410  0.11780  0.40620  Biso   1.000  N
  N3       1.0000 0.55920  0.81120  0.73650  Biso   1.000  N
  N4       1.0000 0.44080  0.18880  0.26350  Biso   1.000  N
  C17      1.0000 0.54590  0.91370  0.69900  Biso   1.000  C
  C18      1.0000 0.45410  0.08630  0.30100  Biso   1.000  C
  H7       1.0000 0.55020  0.99630  0.74150  Biso   1.000  H
  H8       1.0000 0.44980  0.00370  0.25850  Biso   1.000  H
  C19      1.0000 0.52630  0.75290  0.56200  Biso   1.000  C
  C20      1.0000 0.47370  0.24710  0.43800  Biso   1.000  C
  H9       1.0000 0.51450  0.70390  0.49180  Biso   1.000  H
  H10      1.0000 0.48550  0.29610  0.50820  Biso   1.000  H
  C21      1.0000 0.54650  0.70900  0.64850  Biso   1.000  C
  C22      1.0000 0.45350  0.29100  0.35150  Biso   1.000  C
  H11      1.0000 0.55120  0.62460  0.64910  Biso   1.000  H
  H12      1.0000 0.44880  0.37540  0.35090  Biso   1.000  H
  C23      1.0000 0.59140  0.80830  0.84740  Biso   1.000  C
  C24      1.0000 0.40860  0.19170  0.15260  Biso   1.000  C
  C25      1.0000 0.70650  0.77770  0.89920  Biso   1.000  C
  C26      1.0000 0.29350  0.22230  0.10080  Biso   1.000  C
  C27      1.0000 0.80410  0.75930  0.85230  Biso   1.000  C
  C28      1.0000 0.19590  0.24070  0.14770  Biso   1.000  C
  H13      1.0000 0.79270  0.77270  0.78510  Biso   1.000  H
  H14      1.0000 0.20730  0.22730  0.21490  Biso   1.000  H
  C29      1.0000 0.91330  0.72300  0.90190  Biso   1.000  C
  C30      1.0000 0.08670  0.27700  0.09810  Biso   1.000  C
  H15      1.0000 0.97510  0.71160  0.86820  Biso   1.000  H
  H16      1.0000 0.02490  0.28840  0.13180  Biso   1.000  H
  C31      1.0000 0.93540  0.70200  0.00490  Biso   1.000  C
  C32      1.0000 0.06460  0.29800  0.99510  Biso   1.000  C
  H17      1.0000 0.00980  0.67470  0.03730  Biso   1.000  H
  H18      1.0000 0.99020  0.32530  0.96270  Biso   1.000  H
  C33      1.0000 0.84870  0.72120  0.05520  Biso   1.000  C
  C34      1.0000 0.15130  0.27880  0.94480  Biso   1.000  C
  H19      1.0000 0.86690  0.71110  0.12400  Biso   1.000  H
  H20      1.0000 0.13310  0.28890  0.87600  Biso   1.000  H
  C35      1.0000 0.72930  0.75680  0.00670  Biso   1.000  C
  C36      1.0000 0.27070  0.24320  0.99330  Biso   1.000  C
  C37      1.0000 0.65490  0.77990  0.05240  Biso   1.000  C
  C38      1.0000 0.34510  0.22010  0.94760  Biso   1.000  C
  C39      1.0000 0.52720  0.78410  0.99950  Biso   1.000  C
  C40      1.0000 0.47280  0.21590  0.00050  Biso   1.000  C
  C41      1.0000 0.41460  0.81040  0.05030  Biso   1.000  C
  C42      1.0000 0.58540  0.18960  0.94970  Biso   1.000  C
  H21      1.0000 0.42980  0.80580  0.12050  Biso   1.000  H
  H22      1.0000 0.57020  0.19420  0.87950  Biso   1.000  H
  C43      1.0000 0.30270  0.83800  0.00030  Biso   1.000  C
  C44      1.0000 0.69730  0.16200  0.99970  Biso   1.000  C
  H23      1.0000 0.24070  0.84630  0.03430  Biso   1.000  H
  H24      1.0000 0.75930  0.15370  0.96570  Biso   1.000  H
  C45      1.0000 0.27540  0.85500  0.89750  Biso   1.000  C
  C46      1.0000 0.72460  0.14500  0.10250  Biso   1.000  C
  H25      1.0000 0.19480  0.87150  0.86210  Biso   1.000  H
  H26      1.0000 0.80520  0.12850  0.13790  Biso   1.000  H
  C47      1.0000 0.37170  0.84660  0.84870  Biso   1.000  C
  C48      1.0000 0.62830  0.15340  0.15130  Biso   1.000  C
  H27      1.0000 0.36020  0.87150  0.78600  Biso   1.000  H
  H28      1.0000 0.63980  0.12850  0.21400  Biso   1.000  H
  C49      1.0000 0.49420  0.79880  0.89290  Biso   1.000  C
  C50      1.0000 0.50580  0.20120  0.10710  Biso   1.000  C
  N5       1.0000 0.78030  0.78180  0.33050  Biso   1.000  N
  N6       1.0000 0.21970  0.21820  0.66950  Biso   1.000  N
  N7       1.0000 0.68970  0.75450  0.15670  Biso   1.000  N
  N8       1.0000 0.31030  0.24550  0.84330  Biso   1.000  N
  C51      1.0000 0.75630  0.83730  0.25460  Biso   1.000  C
  C52      1.0000 0.24370  0.16270  0.74540  Biso   1.000  C
  H29      1.0000 0.78450  0.92900  0.26940  Biso   1.000  H
  H30      1.0000 0.21550  0.07100  0.73060  Biso   1.000  H
  C53      1.0000 0.67600  0.65170  0.28070  Biso   1.000  C
  C54      1.0000 0.32400  0.34830  0.71930  Biso   1.000  C
  H31      1.0000 0.65530  0.59280  0.31750  Biso   1.000  H
  H32      1.0000 0.34470  0.40720  0.68250  Biso   1.000  H
  C55      1.0000 0.61470  0.63090  0.17300  Biso   1.000  C
  C56      1.0000 0.38530  0.36910  0.82700  Biso   1.000  C
  H33      1.0000 0.54310  0.55790  0.12080  Biso   1.000  H
  H34      1.0000 0.45690  0.44210  0.87920  Biso   1.000  H
  H35      1.0000 0.91000  0.00200  0.67300  Biso   1.000  H
  H36      1.0000 0.09000  0.99800  0.32700  Biso   1.000  H
  H37      1.0000 0.91900  0.87500  0.66600  Biso   1.000  H
  H38      1.0000 0.08100  0.12500  0.33400  Biso   1.000  H
  C57      1.0000 0.74070  0.85050  0.90890  Biso   1.000  C
  C58      1.0000 0.25930  0.14950  0.09110  Biso   1.000  C
  C59      1.0000 0.84220  0.89810  0.86960  Biso   1.000  C
  C60      1.0000 0.15780  0.10190  0.13040  Biso   1.000  C
  H39      1.0000 0.81610  0.91080  0.80140  Biso   1.000  H
  H40      1.0000 0.18390  0.08920  0.19860  Biso   1.000  H
  C61      1.0000 0.98010  0.92590  0.93110  Biso   1.000  C
  C62      1.0000 0.01990  0.07410  0.06890  Biso   1.000  C
  H41      1.0000 0.04740  0.96040  0.90670  Biso   1.000  H
  H42      1.0000 0.95260  0.03960  0.09330  Biso   1.000  H
  C63      1.0000 0.01570  0.90050  0.03230  Biso   1.000  C
  C64      1.0000 0.98430  0.09950  0.96770  Biso   1.000  C
  H43      1.0000 0.10800  0.91610  0.07310  Biso   1.000  H
  H44      1.0000 0.89200  0.08390  0.92690  Biso   1.000  H
  C65      1.0000 0.92390  0.85570  0.07130  Biso   1.000  C
  C66      1.0000 0.07610  0.14430  0.92870  Biso   1.000  C
  H45      1.0000 0.95300  0.83980  0.13800  Biso   1.000  H
  H46      1.0000 0.04700  0.16020  0.86200  Biso   1.000  H
  C67      1.0000 0.77900  0.83050  0.01270  Biso   1.000  C
  C68      1.0000 0.22100  0.16950  0.98730  Biso   1.000  C
  C69      1.0000 0.43510  0.73100  0.03740  Biso   1.000  C
  C70      1.0000 0.56490  0.26900  0.96260  Biso   1.000  C
  H47      1.0000 0.46260  0.71110  0.10240  Biso   1.000  H
  H48      1.0000 0.53740  0.28890  0.89760  Biso   1.000  H
  C71      1.0000 0.30100  0.70700  0.97810  Biso   1.000  C
  C72      1.0000 0.69900  0.29300  0.02190  Biso   1.000  C
  H49      1.0000 0.23550  0.68410  0.00750  Biso   1.000  H
  H50      1.0000 0.76450  0.31590  0.99250  Biso   1.000  H
  C73      1.0000 0.25960  0.71800  0.87110  Biso   1.000  C
  C74      1.0000 0.74040  0.28200  0.12890  Biso   1.000  C
  H51      1.0000 0.16700  0.70130  0.83050  Biso   1.000  H
  H52      1.0000 0.83300  0.29870  0.16950  Biso   1.000  H
  C75      1.0000 0.35500  0.75300  0.82730  Biso   1.000  C
  C76      1.0000 0.64500  0.24700  0.17270  Biso   1.000  C
  H53      1.0000 0.32680  0.74700  0.75350  Biso   1.000  H
  H54      1.0000 0.67320  0.25300  0.24650  Biso   1.000  H
  C77      1.0000 0.79610  0.66430  0.27380  Biso   1.000  C
  C78      1.0000 0.20390  0.33570  0.72620  Biso   1.000  C
  H55      1.0000 0.83470  0.60750  0.30590  Biso   1.000  H
  H56      1.0000 0.16530  0.39250  0.69410  Biso   1.000  H
  C79      1.0000 0.74590  0.64660  0.16450  Biso   1.000  C
  C80      1.0000 0.25410  0.35340  0.83550  Biso   1.000  C
  H57      1.0000 0.74760  0.58030  0.10790  Biso   1.000  H
  H58      1.0000 0.25240  0.41970  0.89210  Biso   1.000  H
