data_image0
_cell_length_a       6.0324
_cell_length_b       8.8509
_cell_length_c       29.2036
_cell_angle_alpha    90
_cell_angle_beta     94.557
_cell_angle_gamma    90

_symmetry_space_group_name_H-M    "P 1"
_symmetry_int_tables_number       1

loop_
  _symmetry_equiv_pos_as_xyz
  'x, y, z'

loop_
  _atom_site_label
  _atom_site_occupancy
  _atom_site_fract_x
  _atom_site_fract_y
  _atom_site_fract_z
  _atom_site_thermal_displace_type
  _atom_site_B_iso_or_equiv
  _atom_site_type_symbol
  Cu1      1.0000 0.14930  0.45645  0.04219  Biso   1.000  Cu
  Cu2      1.0000 0.35070  0.95645  0.45781  Biso   1.000  Cu
  Cu3      1.0000 0.85070  0.54355  0.95781  Biso   1.000  Cu
  Cu4      1.0000 0.64930  0.04355  0.54219  Biso   1.000  Cu
  Cu5      1.0000 0.51290  0.84069  0.08087  Biso   1.000  Cu
  Cu6      1.0000 0.98710  0.34069  0.41913  Biso   1.000  Cu
  Cu7      1.0000 0.48710  0.15931  0.91913  Biso   1.000  Cu
  Cu8      1.0000 0.01290  0.65931  0.58087  Biso   1.000  Cu
  P1       1.0000 0.68215  0.50078  0.06550  Biso   1.000  P
  P2       1.0000 0.81785  0.00078  0.43450  Biso   1.000  P
  P3       1.0000 0.31785  0.49922  0.93450  Biso   1.000  P
  P4       1.0000 0.18215  0.99922  0.56550  Biso   1.000  P
  P5       1.0000 0.15355  0.11186  0.07719  Biso   1.000  P
  P6       1.0000 0.34645  0.61186  0.42281  Biso   1.000  P
  P7       1.0000 0.84645  0.88814  0.92281  Biso   1.000  P
  P8       1.0000 0.65355  0.38814  0.57719  Biso   1.000  P
  O1       1.0000 0.83280  0.49410  0.02492  Biso   1.000  O
  O2       1.0000 0.66720  0.99410  0.47508  Biso   1.000  O
  O3       1.0000 0.16720  0.50590  0.97508  Biso   1.000  O
  O4       1.0000 0.33280  0.00590  0.52492  Biso   1.000  O
  O5       1.0000 0.45960  0.42760  0.05366  Biso   1.000  O
  O6       1.0000 0.04040  0.92760  0.44634  Biso   1.000  O
  O7       1.0000 0.54040  0.57240  0.94634  Biso   1.000  O
  O8       1.0000 0.95960  0.07240  0.55366  Biso   1.000  O
  O9       1.0000 0.67860  0.65640  0.08654  Biso   1.000  O
  O10      1.0000 0.82140  0.15640  0.41346  Biso   1.000  O
  O11      1.0000 0.32140  0.34360  0.91346  Biso   1.000  O
  O12      1.0000 0.17860  0.84360  0.58654  Biso   1.000  O
  O13      1.0000 0.08290  0.19310  0.03284  Biso   1.000  O
  O14      1.0000 0.41710  0.69310  0.46716  Biso   1.000  O
  O15      1.0000 0.91710  0.80690  0.96716  Biso   1.000  O
  O16      1.0000 0.58290  0.30690  0.53284  Biso   1.000  O
  O17      1.0000 0.37710  0.03590  0.07675  Biso   1.000  O
  O18      1.0000 0.12290  0.53590  0.42325  Biso   1.000  O
  O19      1.0000 0.62290  0.96410  0.92325  Biso   1.000  O
  O20      1.0000 0.87710  0.46410  0.57675  Biso   1.000  O
  O21      1.0000 0.97320  0.99660  0.08995  Biso   1.000  O
  O22      1.0000 0.52680  0.49660  0.41005  Biso   1.000  O
  O23      1.0000 0.02680  0.00340  0.91005  Biso   1.000  O
  O24      1.0000 0.47320  0.50340  0.58995  Biso   1.000  O
  H1       1.0000 0.85140  0.04320  0.09220  Biso   1.000  H
  H2       1.0000 0.64860  0.54320  0.40780  Biso   1.000  H
  H3       1.0000 0.14860  0.95680  0.90780  Biso   1.000  H
  H4       1.0000 0.35140  0.45680  0.59220  Biso   1.000  H
  O25      1.0000 0.72130  0.51750  0.33904  Biso   1.000  O
  O26      1.0000 0.77870  0.01750  0.16096  Biso   1.000  O
  O27      1.0000 0.27870  0.48250  0.66096  Biso   1.000  O
  O28      1.0000 0.22130  0.98250  0.83904  Biso   1.000  O
  O29      1.0000 0.99520  0.34850  0.35272  Biso   1.000  O
  O30      1.0000 0.50480  0.84850  0.14728  Biso   1.000  O
  O31      1.0000 0.00480  0.65150  0.64728  Biso   1.000  O
  O32      1.0000 0.49520  0.15150  0.85272  Biso   1.000  O
  O33      1.0000 0.16360  0.73360  0.05178  Biso   1.000  O
  O34      1.0000 0.33640  0.23360  0.44822  Biso   1.000  O
  O35      1.0000 0.83640  0.26640  0.94822  Biso   1.000  O
  O36      1.0000 0.66360  0.76640  0.55178  Biso   1.000  O
  H5       1.0000 0.09300  0.79740  0.03440  Biso   1.000  H
  H6       1.0000 0.40700  0.29740  0.46560  Biso   1.000  H
  H7       1.0000 0.90700  0.20260  0.96560  Biso   1.000  H
  H8       1.0000 0.59300  0.70260  0.53440  Biso   1.000  H
  H9       1.0000 0.18790  0.65440  0.03650  Biso   1.000  H
  H10      1.0000 0.31210  0.15440  0.46350  Biso   1.000  H
  H11      1.0000 0.81210  0.34560  0.96350  Biso   1.000  H
  H12      1.0000 0.68790  0.84560  0.53650  Biso   1.000  H
  O37      1.0000 0.55460  0.85090  0.01476  Biso   1.000  O
  O38      1.0000 0.94540  0.35090  0.48524  Biso   1.000  O
  O39      1.0000 0.44540  0.14910  0.98524  Biso   1.000  O
  O40      1.0000 0.05460  0.64910  0.51476  Biso   1.000  O
  H13      1.0000 0.68110  0.88900  0.01080  Biso   1.000  H
  H14      1.0000 0.81890  0.38900  0.48920  Biso   1.000  H
  H15      1.0000 0.31890  0.11100  0.98920  Biso   1.000  H
  H16      1.0000 0.18110  0.61100  0.51080  Biso   1.000  H
  H17      1.0000 0.54740  0.76220  0.00360  Biso   1.000  H
  H18      1.0000 0.95260  0.26220  0.49640  Biso   1.000  H
  H19      1.0000 0.45260  0.23780  0.99640  Biso   1.000  H
  H20      1.0000 0.04740  0.73780  0.50360  Biso   1.000  H
  N1       1.0000 0.07270  0.39870  0.10911  Biso   1.000  N
  N2       1.0000 0.42730  0.89870  0.39089  Biso   1.000  N
  N3       1.0000 0.92730  0.60130  0.89089  Biso   1.000  N
  N4       1.0000 0.57270  0.10130  0.60911  Biso   1.000  N
  C1       1.0000 0.82660  0.37520  0.10650  Biso   1.000  C
  C2       1.0000 0.67340  0.87520  0.39350  Biso   1.000  C
  C3       1.0000 0.17340  0.62480  0.89350  Biso   1.000  C
  C4       1.0000 0.32660  0.12480  0.60650  Biso   1.000  C
  H21      1.0000 0.77360  0.39200  0.13660  Biso   1.000  H
  H22      1.0000 0.72640  0.89200  0.36340  Biso   1.000  H
  H23      1.0000 0.22640  0.60800  0.86340  Biso   1.000  H
  H24      1.0000 0.27360  0.10800  0.63660  Biso   1.000  H
  H25      1.0000 0.79340  0.27140  0.09780  Biso   1.000  H
  H26      1.0000 0.70660  0.77140  0.40220  Biso   1.000  H
  H27      1.0000 0.20660  0.72860  0.90220  Biso   1.000  H
  H28      1.0000 0.29340  0.22860  0.59780  Biso   1.000  H
  C5       1.0000 0.18640  0.25420  0.12268  Biso   1.000  C
  C6       1.0000 0.31360  0.75420  0.37732  Biso   1.000  C
  C7       1.0000 0.81360  0.74580  0.87732  Biso   1.000  C
  C8       1.0000 0.68640  0.24580  0.62268  Biso   1.000  C
  H29      1.0000 0.12570  0.21520  0.15010  Biso   1.000  H
  H30      1.0000 0.37430  0.71520  0.34990  Biso   1.000  H
  H31      1.0000 0.87430  0.78480  0.84990  Biso   1.000  H
  H32      1.0000 0.62570  0.28480  0.65010  Biso   1.000  H
  H33      1.0000 0.34350  0.27350  0.13000  Biso   1.000  H
  H34      1.0000 0.15650  0.77350  0.37000  Biso   1.000  H
  H35      1.0000 0.65650  0.72650  0.87000  Biso   1.000  H
  H36      1.0000 0.84350  0.22650  0.63000  Biso   1.000  H
  C9       1.0000 0.14490  0.52480  0.14170  Biso   1.000  C
  C10      1.0000 0.35510  0.02480  0.35830  Biso   1.000  C
  C11      1.0000 0.85510  0.47520  0.85830  Biso   1.000  C
  C12      1.0000 0.64490  0.97520  0.64170  Biso   1.000  C
  H37      1.0000 0.07960  0.61840  0.12970  Biso   1.000  H
  H38      1.0000 0.42040  0.11840  0.37030  Biso   1.000  H
  H39      1.0000 0.92040  0.38160  0.87030  Biso   1.000  H
  H40      1.0000 0.57960  0.88160  0.62970  Biso   1.000  H
  H41      1.0000 0.30520  0.53520  0.14210  Biso   1.000  H
  H42      1.0000 0.19480  0.03520  0.35790  Biso   1.000  H
  H43      1.0000 0.69480  0.46480  0.85790  Biso   1.000  H
  H44      1.0000 0.80520  0.96480  0.64210  Biso   1.000  H
  C13      1.0000 0.08360  0.50510  0.19064  Biso   1.000  C
  C14      1.0000 0.41640  0.00510  0.30936  Biso   1.000  C
  C15      1.0000 0.91640  0.49490  0.80936  Biso   1.000  C
  C16      1.0000 0.58360  0.99490  0.69064  Biso   1.000  C
  C17      1.0000 0.21550  0.42220  0.22267  Biso   1.000  C
  C18      1.0000 0.28450  0.92220  0.27733  Biso   1.000  C
  C19      1.0000 0.78450  0.57780  0.77733  Biso   1.000  C
  C20      1.0000 0.71550  0.07780  0.72267  Biso   1.000  C
  H45      1.0000 0.34770  0.38000  0.21440  Biso   1.000  H
  H46      1.0000 0.15230  0.88000  0.28560  Biso   1.000  H
  H47      1.0000 0.65230  0.62000  0.78560  Biso   1.000  H
  H48      1.0000 0.84770  0.12000  0.71440  Biso   1.000  H
  C21      1.0000 0.15270  0.40170  0.26706  Biso   1.000  C
  C22      1.0000 0.34730  0.90170  0.23294  Biso   1.000  C
  C23      1.0000 0.84730  0.59830  0.73294  Biso   1.000  C
  C24      1.0000 0.65270  0.09830  0.76706  Biso   1.000  C
  H49      1.0000 0.24160  0.34490  0.28810  Biso   1.000  H
  H50      1.0000 0.25840  0.84490  0.21190  Biso   1.000  H
  H51      1.0000 0.75840  0.65510  0.71190  Biso   1.000  H
  H52      1.0000 0.74160  0.15510  0.78810  Biso   1.000  H
  C25      1.0000 0.95620  0.46620  0.28002  Biso   1.000  C
  C26      1.0000 0.54380  0.96620  0.21998  Biso   1.000  C
  C27      1.0000 0.04380  0.53380  0.71998  Biso   1.000  C
  C28      1.0000 0.45620  0.03380  0.78002  Biso   1.000  C
  C29      1.0000 0.82660  0.55320  0.24848  Biso   1.000  C
  C30      1.0000 0.67340  0.05320  0.25152  Biso   1.000  C
  C31      1.0000 0.17340  0.44680  0.75152  Biso   1.000  C
  C32      1.0000 0.32660  0.94680  0.74848  Biso   1.000  C
  H53      1.0000 0.69740  0.59870  0.25710  Biso   1.000  H
  H54      1.0000 0.80260  0.09870  0.24290  Biso   1.000  H
  H55      1.0000 0.30260  0.40130  0.74290  Biso   1.000  H
  H56      1.0000 0.19740  0.90130  0.75710  Biso   1.000  H
  C33      1.0000 0.88990  0.57220  0.20413  Biso   1.000  C
  C34      1.0000 0.61010  0.07220  0.29587  Biso   1.000  C
  C35      1.0000 0.11010  0.42780  0.79587  Biso   1.000  C
  C36      1.0000 0.38990  0.92780  0.70413  Biso   1.000  C
  H57      1.0000 0.80200  0.63000  0.18320  Biso   1.000  H
  H58      1.0000 0.69800  0.13000  0.31680  Biso   1.000  H
  H59      1.0000 0.19800  0.37000  0.81680  Biso   1.000  H
  H60      1.0000 0.30200  0.87000  0.68320  Biso   1.000  H
  C37      1.0000 0.88550  0.44240  0.32771  Biso   1.000  C
  C38      1.0000 0.61450  0.94240  0.17229  Biso   1.000  C
  C39      1.0000 0.11450  0.55760  0.67229  Biso   1.000  C
  C40      1.0000 0.38550  0.05760  0.82771  Biso   1.000  C
