data_image0
_cell_length_a       12.885
_cell_length_b       5.604
_cell_length_c       18.544
_cell_angle_alpha    90
_cell_angle_beta     93.17
_cell_angle_gamma    90

_symmetry_space_group_name_H-M    "P 1"
_symmetry_int_tables_number       1

loop_
  _symmetry_equiv_pos_as_xyz
  'x, y, z'

loop_
  _atom_site_label
  _atom_site_occupancy
  _atom_site_fract_x
  _atom_site_fract_y
  _atom_site_fract_z
  _atom_site_thermal_displace_type
  _atom_site_B_iso_or_equiv
  _atom_site_type_symbol
  Cu1      1.0000 0.50000  0.00000  0.50000  Biso   1.000  Cu
  Cu2      1.0000 0.50000  0.00000  0.00000  Biso   1.000  Cu
  Cu3      1.0000 0.00000  0.81950  0.25000  Biso   1.000  Cu
  Cu4      1.0000 0.00000  0.18050  0.75000  Biso   1.000  Cu
  N1       1.0000 0.37110  0.51430  0.35340  Biso   1.000  N
  N2       1.0000 0.62890  0.51430  0.14660  Biso   1.000  N
  N3       1.0000 0.62890  0.48570  0.64660  Biso   1.000  N
  N4       1.0000 0.37110  0.48570  0.85340  Biso   1.000  N
  C1       1.0000 0.38510  0.31100  0.30500  Biso   1.000  C
  C2       1.0000 0.61490  0.31100  0.19500  Biso   1.000  C
  C3       1.0000 0.61490  0.68900  0.69500  Biso   1.000  C
  C4       1.0000 0.38510  0.68900  0.80500  Biso   1.000  C
  H1       1.0000 0.45150  0.23870  0.31630  Biso   1.000  H
  H2       1.0000 0.54850  0.23870  0.18370  Biso   1.000  H
  H3       1.0000 0.54850  0.76130  0.68370  Biso   1.000  H
  H4       1.0000 0.45150  0.76130  0.81630  Biso   1.000  H
  H5       1.0000 0.38200  0.36620  0.25580  Biso   1.000  H
  H6       1.0000 0.61800  0.36620  0.24420  Biso   1.000  H
  H7       1.0000 0.61800  0.63380  0.74420  Biso   1.000  H
  H8       1.0000 0.38200  0.63380  0.75580  Biso   1.000  H
  H9       1.0000 0.33100  0.19660  0.31110  Biso   1.000  H
  H10      1.0000 0.66900  0.19660  0.18890  Biso   1.000  H
  H11      1.0000 0.66900  0.80340  0.68890  Biso   1.000  H
  H12      1.0000 0.33100  0.80340  0.81110  Biso   1.000  H
  C5       1.0000 0.44550  0.60200  0.39810  Biso   1.000  C
  C6       1.0000 0.55450  0.60200  0.10190  Biso   1.000  C
  C7       1.0000 0.55450  0.39800  0.60190  Biso   1.000  C
  C8       1.0000 0.44550  0.39800  0.89810  Biso   1.000  C
  H13      1.0000 0.51120  0.53370  0.40440  Biso   1.000  H
  H14      1.0000 0.48880  0.53370  0.09560  Biso   1.000  H
  H15      1.0000 0.48880  0.46630  0.59560  Biso   1.000  H
  H16      1.0000 0.51120  0.46630  0.90440  Biso   1.000  H
  N5       1.0000 0.41720  0.79470  0.43290  Biso   1.000  N
  N6       1.0000 0.58280  0.79470  0.06710  Biso   1.000  N
  N7       1.0000 0.58280  0.20530  0.56710  Biso   1.000  N
  N8       1.0000 0.41720  0.20530  0.93290  Biso   1.000  N
  C9       1.0000 0.31540  0.83400  0.40780  Biso   1.000  C
  C10      1.0000 0.68460  0.83400  0.09220  Biso   1.000  C
  C11      1.0000 0.68460  0.16600  0.59220  Biso   1.000  C
  C12      1.0000 0.31540  0.16600  0.90780  Biso   1.000  C
  H17      1.0000 0.27380  0.95900  0.42230  Biso   1.000  H
  H18      1.0000 0.72620  0.95900  0.07770  Biso   1.000  H
  H19      1.0000 0.72620  0.04100  0.57770  Biso   1.000  H
  H20      1.0000 0.27380  0.04100  0.92230  Biso   1.000  H
  C13      1.0000 0.28520  0.66300  0.35880  Biso   1.000  C
  C14      1.0000 0.71480  0.66300  0.14120  Biso   1.000  C
  C15      1.0000 0.71480  0.33700  0.64120  Biso   1.000  C
  C16      1.0000 0.28520  0.33700  0.85880  Biso   1.000  C
  C17      1.0000 0.18450  0.62100  0.31900  Biso   1.000  C
  C18      1.0000 0.81550  0.62100  0.18100  Biso   1.000  C
  C19      1.0000 0.81550  0.37900  0.68100  Biso   1.000  C
  C20      1.0000 0.18450  0.37900  0.81900  Biso   1.000  C
  O1       1.0000 0.11790  0.78610  0.32410  Biso   1.000  O
  O2       1.0000 0.88210  0.78610  0.17590  Biso   1.000  O
  O3       1.0000 0.88210  0.21390  0.67590  Biso   1.000  O
  O4       1.0000 0.11790  0.21390  0.82410  Biso   1.000  O
  O5       1.0000 0.17310  0.43300  0.28320  Biso   1.000  O
  O6       1.0000 0.82690  0.43300  0.21680  Biso   1.000  O
  O7       1.0000 0.82690  0.56700  0.71680  Biso   1.000  O
  O8       1.0000 0.17310  0.56700  0.78320  Biso   1.000  O
  N9       1.0000 0.18520  0.34090  0.58430  Biso   1.000  N
  N10      1.0000 0.81480  0.34090  0.91570  Biso   1.000  N
  N11      1.0000 0.81480  0.65910  0.41570  Biso   1.000  N
  N12      1.0000 0.18520  0.65910  0.08430  Biso   1.000  N
  C21      1.0000 0.20710  0.50000  0.52320  Biso   1.000  C
  C22      1.0000 0.79290  0.50000  0.97680  Biso   1.000  C
  C23      1.0000 0.79290  0.50000  0.47680  Biso   1.000  C
  C24      1.0000 0.20710  0.50000  0.02320  Biso   1.000  C
  H21      1.0000 0.15960  0.63180  0.52210  Biso   1.000  H
  H22      1.0000 0.84040  0.63180  0.97790  Biso   1.000  H
  H23      1.0000 0.84040  0.36820  0.47790  Biso   1.000  H
  H24      1.0000 0.15960  0.36820  0.02210  Biso   1.000  H
  H25      1.0000 0.19870  0.41210  0.47880  Biso   1.000  H
  H26      1.0000 0.80130  0.41210  0.02120  Biso   1.000  H
  H27      1.0000 0.80130  0.58790  0.52120  Biso   1.000  H
  H28      1.0000 0.19870  0.58790  0.97880  Biso   1.000  H
  H29      1.0000 0.27710  0.55800  0.52920  Biso   1.000  H
  H30      1.0000 0.72290  0.55800  0.97080  Biso   1.000  H
  H31      1.0000 0.72290  0.44200  0.47080  Biso   1.000  H
  H32      1.0000 0.27710  0.44200  0.02920  Biso   1.000  H
  C25      1.0000 0.10150  0.35800  0.62340  Biso   1.000  C
  C26      1.0000 0.89850  0.35800  0.87660  Biso   1.000  C
  C27      1.0000 0.89850  0.64200  0.37660  Biso   1.000  C
  C28      1.0000 0.10150  0.64200  0.12340  Biso   1.000  C
  H33      1.0000 0.05000  0.47280  0.61510  Biso   1.000  H
  H34      1.0000 0.95000  0.47280  0.88490  Biso   1.000  H
  H35      1.0000 0.95000  0.52720  0.38490  Biso   1.000  H
  H36      1.0000 0.05000  0.52720  0.11510  Biso   1.000  H
  N13      1.0000 0.09950  0.19860  0.67390  Biso   1.000  N
  N14      1.0000 0.90050  0.19860  0.82610  Biso   1.000  N
  N15      1.0000 0.90050  0.80140  0.32610  Biso   1.000  N
  N16      1.0000 0.09950  0.80140  0.17390  Biso   1.000  N
  C29      1.0000 0.18640  0.06600  0.66660  Biso   1.000  C
  C30      1.0000 0.81360  0.06600  0.83340  Biso   1.000  C
  C31      1.0000 0.81360  0.93400  0.33340  Biso   1.000  C
  C32      1.0000 0.18640  0.93400  0.16660  Biso   1.000  C
  H37      1.0000 0.20570  0.93640  0.69580  Biso   1.000  H
  H38      1.0000 0.79430  0.93640  0.80420  Biso   1.000  H
  H39      1.0000 0.79430  0.06360  0.30420  Biso   1.000  H
  H40      1.0000 0.20570  0.06360  0.19580  Biso   1.000  H
  C33      1.0000 0.24150  0.14600  0.61080  Biso   1.000  C
  C34      1.0000 0.75850  0.14600  0.88920  Biso   1.000  C
  C35      1.0000 0.75850  0.85400  0.38920  Biso   1.000  C
  C36      1.0000 0.24150  0.85400  0.11080  Biso   1.000  C
  C37      1.0000 0.33900  0.05600  0.58410  Biso   1.000  C
  C38      1.0000 0.66100  0.05600  0.91590  Biso   1.000  C
  C39      1.0000 0.66100  0.94400  0.41590  Biso   1.000  C
  C40      1.0000 0.33900  0.94400  0.08410  Biso   1.000  C
  O9       1.0000 0.37380  0.15710  0.52860  Biso   1.000  O
  O10      1.0000 0.62620  0.15710  0.97140  Biso   1.000  O
  O11      1.0000 0.62620  0.84290  0.47140  Biso   1.000  O
  O12      1.0000 0.37380  0.84290  0.02860  Biso   1.000  O
  O13      1.0000 0.38110  0.88180  0.61420  Biso   1.000  O
  O14      1.0000 0.61890  0.88180  0.88580  Biso   1.000  O
  O15      1.0000 0.61890  0.11820  0.38580  Biso   1.000  O
  O16      1.0000 0.38110  0.11820  0.11420  Biso   1.000  O
  O17      1.0000 0.00000  0.20400  0.25000  Biso   1.000  O
  O18      1.0000 0.00000  0.79600  0.75000  Biso   1.000  O
  H41      1.0000 0.05420  0.28000  0.26640  Biso   1.000  H
  H42      1.0000 0.94580  0.28000  0.23360  Biso   1.000  H
  H43      1.0000 0.94580  0.72000  0.73360  Biso   1.000  H
  H44      1.0000 0.05420  0.72000  0.76640  Biso   1.000  H
  O19      1.0000 0.05390  0.11200  0.43880  Biso   1.000  O
  O20      1.0000 0.94610  0.11200  0.06120  Biso   1.000  O
  O21      1.0000 0.94610  0.88800  0.56120  Biso   1.000  O
  O22      1.0000 0.05390  0.88800  0.93880  Biso   1.000  O
