data_image0
_cell_length_a       24.39
_cell_length_b       11.871
_cell_length_c       16.048
_cell_angle_alpha    90
_cell_angle_beta     96.325
_cell_angle_gamma    90

_symmetry_space_group_name_H-M    "P 1"
_symmetry_int_tables_number       1

loop_
  _symmetry_equiv_pos_as_xyz
  'x, y, z'

loop_
  _atom_site_label
  _atom_site_occupancy
  _atom_site_fract_x
  _atom_site_fract_y
  _atom_site_fract_z
  _atom_site_thermal_displace_type
  _atom_site_B_iso_or_equiv
  _atom_site_type_symbol
  C1       1.0000 0.34857  0.66190  0.36310  Biso   1.000  C
  C2       1.0000 0.65143  0.16190  0.13690  Biso   1.000  C
  C3       1.0000 0.65143  0.33810  0.63690  Biso   1.000  C
  C4       1.0000 0.34857  0.83810  0.86310  Biso   1.000  C
  H1       1.0000 0.33520  0.59130  0.34600  Biso   1.000  H
  H2       1.0000 0.66480  0.09130  0.15400  Biso   1.000  H
  H3       1.0000 0.66480  0.40870  0.65400  Biso   1.000  H
  H4       1.0000 0.33520  0.90870  0.84600  Biso   1.000  H
  C5       1.0000 0.35832  0.83540  0.38190  Biso   1.000  C
  C6       1.0000 0.64168  0.33540  0.11810  Biso   1.000  C
  C7       1.0000 0.64168  0.16460  0.61810  Biso   1.000  C
  C8       1.0000 0.35832  0.66460  0.88190  Biso   1.000  C
  H5       1.0000 0.35150  0.91250  0.37920  Biso   1.000  H
  H6       1.0000 0.64850  0.41250  0.12080  Biso   1.000  H
  H7       1.0000 0.64850  0.08750  0.62080  Biso   1.000  H
  H8       1.0000 0.35150  0.58750  0.87920  Biso   1.000  H
  C9       1.0000 0.43330  0.59820  0.45340  Biso   1.000  C
  C10      1.0000 0.56670  0.09820  0.04660  Biso   1.000  C
  C11      1.0000 0.56670  0.40180  0.54660  Biso   1.000  C
  C12      1.0000 0.43330  0.90180  0.95340  Biso   1.000  C
  H9       1.0000 0.42060  0.52260  0.43860  Biso   1.000  H
  H10      1.0000 0.57940  0.02260  0.06140  Biso   1.000  H
  H11      1.0000 0.57940  0.47740  0.56140  Biso   1.000  H
  H12      1.0000 0.42060  0.97740  0.93860  Biso   1.000  H
  H13      1.0000 0.43410  0.60630  0.51370  Biso   1.000  H
  H14      1.0000 0.56590  0.10630  0.98630  Biso   1.000  H
  H15      1.0000 0.56590  0.39370  0.48630  Biso   1.000  H
  H16      1.0000 0.43410  0.89370  0.01370  Biso   1.000  H
  C13      1.0000 0.49110  0.61350  0.42900  Biso   1.000  C
  C14      1.0000 0.50890  0.11350  0.07100  Biso   1.000  C
  C15      1.0000 0.50890  0.38650  0.57100  Biso   1.000  C
  C16      1.0000 0.49110  0.88650  0.92900  Biso   1.000  C
  C17      1.0000 0.52683  0.69020  0.47160  Biso   1.000  C
  C18      1.0000 0.47317  0.19020  0.02840  Biso   1.000  C
  C19      1.0000 0.47317  0.30980  0.52840  Biso   1.000  C
  C20      1.0000 0.52683  0.80980  0.97160  Biso   1.000  C
  H17      1.0000 0.51460  0.73470  0.51350  Biso   1.000  H
  H18      1.0000 0.48540  0.23470  0.98650  Biso   1.000  H
  H19      1.0000 0.48540  0.26530  0.48650  Biso   1.000  H
  H20      1.0000 0.51460  0.76530  0.01350  Biso   1.000  H
  C21      1.0000 0.58009  0.70110  0.45230  Biso   1.000  C
  C22      1.0000 0.41991  0.20110  0.04770  Biso   1.000  C
  C23      1.0000 0.41991  0.29890  0.54770  Biso   1.000  C
  C24      1.0000 0.58009  0.79890  0.95230  Biso   1.000  C
  H21      1.0000 0.60380  0.75200  0.48200  Biso   1.000  H
  H22      1.0000 0.39620  0.25200  0.01800  Biso   1.000  H
  H23      1.0000 0.39620  0.24800  0.51800  Biso   1.000  H
  H24      1.0000 0.60380  0.74800  0.98200  Biso   1.000  H
  C25      1.0000 0.59882  0.63700  0.38920  Biso   1.000  C
  C26      1.0000 0.40118  0.13700  0.11080  Biso   1.000  C
  C27      1.0000 0.40118  0.36300  0.61080  Biso   1.000  C
  C28      1.0000 0.59882  0.86300  0.88920  Biso   1.000  C
  C29      1.0000 0.56289  0.56120  0.34640  Biso   1.000  C
  C30      1.0000 0.43711  0.06120  0.15360  Biso   1.000  C
  C31      1.0000 0.43711  0.43880  0.65360  Biso   1.000  C
  C32      1.0000 0.56289  0.93880  0.84640  Biso   1.000  C
  H25      1.0000 0.57490  0.51720  0.30400  Biso   1.000  H
  H26      1.0000 0.42510  0.01720  0.19600  Biso   1.000  H
  H27      1.0000 0.42510  0.48280  0.69600  Biso   1.000  H
  H28      1.0000 0.57490  0.98280  0.80400  Biso   1.000  H
  C33      1.0000 0.50973  0.55000  0.36580  Biso   1.000  C
  C34      1.0000 0.49027  0.05000  0.13420  Biso   1.000  C
  C35      1.0000 0.49027  0.45000  0.63420  Biso   1.000  C
  C36      1.0000 0.50973  0.95000  0.86580  Biso   1.000  C
  H29      1.0000 0.48600  0.49910  0.33610  Biso   1.000  H
  H30      1.0000 0.51400  0.99910  0.16390  Biso   1.000  H
  H31      1.0000 0.51400  0.50090  0.66390  Biso   1.000  H
  H32      1.0000 0.48600  0.00090  0.83610  Biso   1.000  H
  C37      1.0000 0.65647  0.65140  0.36680  Biso   1.000  C
  C38      1.0000 0.34353  0.15140  0.13320  Biso   1.000  C
  C39      1.0000 0.34353  0.34860  0.63320  Biso   1.000  C
  C40      1.0000 0.65647  0.84860  0.86680  Biso   1.000  C
  H33      1.0000 0.65550  0.69380  0.31500  Biso   1.000  H
  H34      1.0000 0.34450  0.19380  0.18500  Biso   1.000  H
  H35      1.0000 0.34450  0.30620  0.68500  Biso   1.000  H
  H36      1.0000 0.65550  0.80620  0.81500  Biso   1.000  H
  H37      1.0000 0.67780  0.69420  0.41040  Biso   1.000  H
  H38      1.0000 0.32220  0.19420  0.08960  Biso   1.000  H
  H39      1.0000 0.32220  0.30580  0.58960  Biso   1.000  H
  H40      1.0000 0.67780  0.80580  0.91040  Biso   1.000  H
  C41      1.0000 0.71422  0.38390  0.38800  Biso   1.000  C
  C42      1.0000 0.28578  0.88390  0.11200  Biso   1.000  C
  C43      1.0000 0.28578  0.61610  0.61200  Biso   1.000  C
  C44      1.0000 0.71422  0.11610  0.88800  Biso   1.000  C
  H41      1.0000 0.72540  0.31940  0.41820  Biso   1.000  H
  H42      1.0000 0.27460  0.81940  0.08180  Biso   1.000  H
  H43      1.0000 0.27460  0.68060  0.58180  Biso   1.000  H
  H44      1.0000 0.72540  0.18060  0.91820  Biso   1.000  H
  C45      1.0000 0.69903  0.49700  0.28760  Biso   1.000  C
  C46      1.0000 0.30097  0.99700  0.21240  Biso   1.000  C
  C47      1.0000 0.30097  0.50300  0.71240  Biso   1.000  C
  C48      1.0000 0.69903  0.00300  0.78760  Biso   1.000  C
  H45      1.0000 0.69660  0.53140  0.23530  Biso   1.000  H
  H46      1.0000 0.30340  0.03140  0.26470  Biso   1.000  H
  H47      1.0000 0.30340  0.46860  0.76470  Biso   1.000  H
  H48      1.0000 0.69660  0.96860  0.73530  Biso   1.000  H
  C49      1.0000 0.15422  0.69350  0.15110  Biso   1.000  C
  C50      1.0000 0.84578  0.19350  0.34890  Biso   1.000  C
  C51      1.0000 0.84578  0.30650  0.84890  Biso   1.000  C
  C52      1.0000 0.15422  0.80650  0.65110  Biso   1.000  C
  H49      1.0000 0.16500  0.61860  0.15810  Biso   1.000  H
  H50      1.0000 0.83500  0.11860  0.34190  Biso   1.000  H
  H51      1.0000 0.83500  0.38140  0.84190  Biso   1.000  H
  H52      1.0000 0.16500  0.88140  0.65810  Biso   1.000  H
  C53      1.0000 0.15340  0.86910  0.16360  Biso   1.000  C
  C54      1.0000 0.84660  0.36910  0.33640  Biso   1.000  C
  C55      1.0000 0.84660  0.13090  0.83640  Biso   1.000  C
  C56      1.0000 0.15340  0.63090  0.66360  Biso   1.000  C
  H53      1.0000 0.16200  0.94300  0.17930  Biso   1.000  H
  H54      1.0000 0.83800  0.44300  0.32070  Biso   1.000  H
  H55      1.0000 0.83800  0.05700  0.82070  Biso   1.000  H
  H56      1.0000 0.16200  0.55700  0.67930  Biso   1.000  H
  C57      1.0000 0.07186  0.91090  0.05950  Biso   1.000  C
  C58      1.0000 0.92814  0.41090  0.44050  Biso   1.000  C
  C59      1.0000 0.92814  0.08910  0.94050  Biso   1.000  C
  C60      1.0000 0.07186  0.58910  0.55950  Biso   1.000  C
  H57      1.0000 0.07380  0.89400  0.00080  Biso   1.000  H
  H58      1.0000 0.92620  0.39400  0.49920  Biso   1.000  H
  H59      1.0000 0.92620  0.10600  0.99920  Biso   1.000  H
  H60      1.0000 0.07380  0.60600  0.50080  Biso   1.000  H
  H61      1.0000 0.08290  0.98880  0.06870  Biso   1.000  H
  H62      1.0000 0.91710  0.48880  0.43130  Biso   1.000  H
  H63      1.0000 0.91710  0.01120  0.93130  Biso   1.000  H
  H64      1.0000 0.08290  0.51120  0.56870  Biso   1.000  H
  C61      1.0000 0.01304  0.89820  0.07810  Biso   1.000  C
  C62      1.0000 0.98696  0.39820  0.42190  Biso   1.000  C
  C63      1.0000 0.98696  0.10180  0.92190  Biso   1.000  C
  C64      1.0000 0.01304  0.60180  0.57810  Biso   1.000  C
  C65      1.0000 0.97852  0.81960  0.03580  Biso   1.000  C
  C66      1.0000 0.02148  0.31960  0.46420  Biso   1.000  C
  C67      1.0000 0.02148  0.18040  0.96420  Biso   1.000  C
  C68      1.0000 0.97852  0.68040  0.53580  Biso   1.000  C
  H65      1.0000 0.99290  0.76750  0.00080  Biso   1.000  H
  H66      1.0000 0.00710  0.26750  0.49920  Biso   1.000  H
  H67      1.0000 0.00710  0.23250  0.99920  Biso   1.000  H
  H68      1.0000 0.99290  0.73250  0.50080  Biso   1.000  H
  C69      1.0000 0.92304  0.81810  0.04520  Biso   1.000  C
  C70      1.0000 0.07696  0.31810  0.45480  Biso   1.000  C
  C71      1.0000 0.07696  0.18190  0.95480  Biso   1.000  C
  C72      1.0000 0.92304  0.68190  0.54520  Biso   1.000  C
  H69      1.0000 0.90030  0.76510  0.01600  Biso   1.000  H
  H70      1.0000 0.09970  0.26510  0.48400  Biso   1.000  H
  H71      1.0000 0.09970  0.23490  0.98400  Biso   1.000  H
  H72      1.0000 0.90030  0.73490  0.51600  Biso   1.000  H
  C73      1.0000 0.90075  0.89420  0.09745  Biso   1.000  C
  C74      1.0000 0.09925  0.39420  0.40255  Biso   1.000  C
  C75      1.0000 0.09925  0.10580  0.90255  Biso   1.000  C
  C76      1.0000 0.90075  0.60580  0.59745  Biso   1.000  C
  C77      1.0000 0.93569  0.96910  0.14242  Biso   1.000  C
  C78      1.0000 0.06431  0.46910  0.35758  Biso   1.000  C
  C79      1.0000 0.06431  0.03090  0.85758  Biso   1.000  C
  C80      1.0000 0.93569  0.53090  0.64242  Biso   1.000  C
  H73      1.0000 0.92190  0.01840  0.18000  Biso   1.000  H
  H74      1.0000 0.07810  0.51840  0.32000  Biso   1.000  H
  H75      1.0000 0.07810  0.98160  0.82000  Biso   1.000  H
  H76      1.0000 0.92190  0.48160  0.68000  Biso   1.000  H
  C81      1.0000 0.99105  0.97110  0.13200  Biso   1.000  C
  C82      1.0000 0.00895  0.47110  0.36800  Biso   1.000  C
  C83      1.0000 0.00895  0.02890  0.86800  Biso   1.000  C
  C84      1.0000 0.99105  0.52890  0.63200  Biso   1.000  C
  H77      1.0000 0.01400  0.02290  0.16220  Biso   1.000  H
  H78      1.0000 0.98600  0.52290  0.33780  Biso   1.000  H
  H79      1.0000 0.98600  0.97710  0.83780  Biso   1.000  H
  H80      1.0000 0.01400  0.47710  0.66220  Biso   1.000  H
  C85      1.0000 0.83935  0.89470  0.10100  Biso   1.000  C
  C86      1.0000 0.16065  0.39470  0.39900  Biso   1.000  C
  C87      1.0000 0.16065  0.10530  0.89900  Biso   1.000  C
  C88      1.0000 0.83935  0.60530  0.60100  Biso   1.000  C
  H81      1.0000 0.82120  0.86290  0.04950  Biso   1.000  H
  H82      1.0000 0.17880  0.36290  0.45050  Biso   1.000  H
  H83      1.0000 0.17880  0.13710  0.95050  Biso   1.000  H
  H84      1.0000 0.82120  0.63710  0.54950  Biso   1.000  H
  H85      1.0000 0.83060  0.84760  0.14710  Biso   1.000  H
  H86      1.0000 0.16940  0.34760  0.35290  Biso   1.000  H
  H87      1.0000 0.16940  0.15240  0.85290  Biso   1.000  H
  H88      1.0000 0.83060  0.65240  0.64710  Biso   1.000  H
  C89      1.0000 0.80302  0.17780  0.08680  Biso   1.000  C
  C90      1.0000 0.19698  0.67780  0.41320  Biso   1.000  C
  C91      1.0000 0.19698  0.82220  0.91320  Biso   1.000  C
  C92      1.0000 0.80302  0.32220  0.58680  Biso   1.000  C
  H89      1.0000 0.80180  0.24820  0.06120  Biso   1.000  H
  H90      1.0000 0.19820  0.74820  0.43880  Biso   1.000  H
  H91      1.0000 0.19820  0.75180  0.93880  Biso   1.000  H
  H92      1.0000 0.80180  0.25180  0.56120  Biso   1.000  H
  C93      1.0000 0.79218  0.04940  0.17344  Biso   1.000  C
  C94      1.0000 0.20782  0.54940  0.32656  Biso   1.000  C
  C95      1.0000 0.20782  0.95060  0.82656  Biso   1.000  C
  C96      1.0000 0.79218  0.45060  0.67344  Biso   1.000  C
  H93      1.0000 0.78260  0.00840  0.21900  Biso   1.000  H
  H94      1.0000 0.21740  0.50840  0.28100  Biso   1.000  H
  H95      1.0000 0.21740  0.99160  0.78100  Biso   1.000  H
  H96      1.0000 0.78260  0.49160  0.71900  Biso   1.000  H
  C97      1.0000 0.49394  0.66200  0.16220  Biso   1.000  C
  C98      1.0000 0.50606  0.16200  0.33780  Biso   1.000  C
  C99      1.0000 0.50606  0.33800  0.83780  Biso   1.000  C
  C100     1.0000 0.49394  0.83800  0.66220  Biso   1.000  C
  C101     1.0000 0.47801  0.55480  0.13240  Biso   1.000  C
  C102     1.0000 0.52199  0.05480  0.36760  Biso   1.000  C
  C103     1.0000 0.52199  0.44520  0.86760  Biso   1.000  C
  C104     1.0000 0.47801  0.94520  0.63240  Biso   1.000  C
  C105     1.0000 0.42152  0.52830  0.12060  Biso   1.000  C
  C106     1.0000 0.57848  0.02830  0.37940  Biso   1.000  C
  C107     1.0000 0.57848  0.47170  0.87940  Biso   1.000  C
  C108     1.0000 0.42152  0.97170  0.62060  Biso   1.000  C
  H97      1.0000 0.41040  0.45760  0.10030  Biso   1.000  H
  H98      1.0000 0.58960  0.95760  0.39970  Biso   1.000  H
  H99      1.0000 0.58960  0.54240  0.89970  Biso   1.000  H
  H100     1.0000 0.41040  0.04240  0.60030  Biso   1.000  H
  C109     1.0000 0.38300  0.60400  0.13850  Biso   1.000  C
  C110     1.0000 0.61700  0.10400  0.36150  Biso   1.000  C
  C111     1.0000 0.61700  0.39600  0.86150  Biso   1.000  C
  C112     1.0000 0.38300  0.89600  0.63850  Biso   1.000  C
  C113     1.0000 0.39863  0.70900  0.17100  Biso   1.000  C
  C114     1.0000 0.60137  0.20900  0.32900  Biso   1.000  C
  C115     1.0000 0.60137  0.29100  0.82900  Biso   1.000  C
  C116     1.0000 0.39863  0.79100  0.67100  Biso   1.000  C
  H101     1.0000 0.37220  0.76010  0.18500  Biso   1.000  H
  H102     1.0000 0.62780  0.26010  0.31500  Biso   1.000  H
  H103     1.0000 0.62780  0.23990  0.81500  Biso   1.000  H
  H104     1.0000 0.37220  0.73990  0.68500  Biso   1.000  H
  C117     1.0000 0.45377  0.73630  0.18230  Biso   1.000  C
  C118     1.0000 0.54623  0.23630  0.31770  Biso   1.000  C
  C119     1.0000 0.54623  0.26370  0.81770  Biso   1.000  C
  C120     1.0000 0.45377  0.76370  0.68230  Biso   1.000  C
  H105     1.0000 0.46430  0.80660  0.20410  Biso   1.000  H
  H106     1.0000 0.53570  0.30660  0.29590  Biso   1.000  H
  H107     1.0000 0.53570  0.19340  0.79590  Biso   1.000  H
  H108     1.0000 0.46430  0.69340  0.70410  Biso   1.000  H
  C121     1.0000 0.55241  0.69740  0.17290  Biso   1.000  C
  C122     1.0000 0.44759  0.19740  0.32710  Biso   1.000  C
  C123     1.0000 0.44759  0.30260  0.82710  Biso   1.000  C
  C124     1.0000 0.55241  0.80260  0.67290  Biso   1.000  C
  Cu1      1.0000 0.25170  0.77552  0.26930  Biso   1.000  Cu
  Cu2      1.0000 0.74830  0.27552  0.23070  Biso   1.000  Cu
  Cu3      1.0000 0.74830  0.22448  0.73070  Biso   1.000  Cu
  Cu4      1.0000 0.25170  0.72448  0.76930  Biso   1.000  Cu
  N1       1.0000 0.32409  0.75870  0.34165  Biso   1.000  N
  N2       1.0000 0.67591  0.25870  0.15835  Biso   1.000  N
  N3       1.0000 0.67591  0.24130  0.65835  Biso   1.000  N
  N4       1.0000 0.32409  0.74130  0.84165  Biso   1.000  N
  N5       1.0000 0.40194  0.79170  0.42520  Biso   1.000  N
  N6       1.0000 0.59806  0.29170  0.07480  Biso   1.000  N
  N7       1.0000 0.59806  0.20830  0.57480  Biso   1.000  N
  N8       1.0000 0.40194  0.70830  0.92520  Biso   1.000  N
  N9       1.0000 0.39436  0.68000  0.41192  Biso   1.000  N
  N10      1.0000 0.60564  0.18000  0.08808  Biso   1.000  N
  N11      1.0000 0.60564  0.32000  0.58808  Biso   1.000  N
  N12      1.0000 0.39436  0.82000  0.91192  Biso   1.000  N
  N13      1.0000 0.68346  0.54310  0.35660  Biso   1.000  N
  N14      1.0000 0.31654  0.04310  0.14340  Biso   1.000  N
  N15      1.0000 0.31654  0.45690  0.64340  Biso   1.000  N
  N16      1.0000 0.68346  0.95690  0.85660  Biso   1.000  N
  N17      1.0000 0.69305  0.47160  0.42249  Biso   1.000  N
  N18      1.0000 0.30695  0.97160  0.07751  Biso   1.000  N
  N19      1.0000 0.30695  0.52840  0.57751  Biso   1.000  N
  N20      1.0000 0.69305  0.02840  0.92249  Biso   1.000  N
  N21      1.0000 0.71853  0.39490  0.30457  Biso   1.000  N
  N22      1.0000 0.28147  0.89490  0.19543  Biso   1.000  N
  N23      1.0000 0.28147  0.60510  0.69543  Biso   1.000  N
  N24      1.0000 0.71853  0.10510  0.80457  Biso   1.000  N
  N25      1.0000 0.18188  0.77920  0.19167  Biso   1.000  N
  N26      1.0000 0.81812  0.27920  0.30833  Biso   1.000  N
  N27      1.0000 0.81812  0.22080  0.80833  Biso   1.000  N
  N28      1.0000 0.18188  0.72080  0.69167  Biso   1.000  N
  N29      1.0000 0.11028  0.72530  0.10010  Biso   1.000  N
  N30      1.0000 0.88972  0.22530  0.39990  Biso   1.000  N
  N31      1.0000 0.88972  0.27470  0.89990  Biso   1.000  N
  N32      1.0000 0.11028  0.77470  0.60010  Biso   1.000  N
  N33      1.0000 0.11122  0.83840  0.11038  Biso   1.000  N
  N34      1.0000 0.88878  0.33840  0.38962  Biso   1.000  N
  N35      1.0000 0.88878  0.16160  0.88962  Biso   1.000  N
  N36      1.0000 0.11122  0.66160  0.61038  Biso   1.000  N
  N37      1.0000 0.81824  0.00860  0.11208  Biso   1.000  N
  N38      1.0000 0.18176  0.50860  0.38792  Biso   1.000  N
  N39      1.0000 0.18176  0.99140  0.88792  Biso   1.000  N
  N40      1.0000 0.81824  0.49140  0.61208  Biso   1.000  N
  N41      1.0000 0.82514  0.09000  0.05538  Biso   1.000  N
  N42      1.0000 0.17486  0.59000  0.44462  Biso   1.000  N
  N43      1.0000 0.17486  0.91000  0.94462  Biso   1.000  N
  N44      1.0000 0.82514  0.41000  0.55538  Biso   1.000  N
  N45      1.0000 0.78183  0.15810  0.15996  Biso   1.000  N
  N46      1.0000 0.21817  0.65810  0.34004  Biso   1.000  N
  N47      1.0000 0.21817  0.84190  0.84004  Biso   1.000  N
  N48      1.0000 0.78183  0.34190  0.65996  Biso   1.000  N
  N49      1.0000 0.51517  0.47440  0.11740  Biso   1.000  N
  N50      1.0000 0.48483  0.97440  0.38260  Biso   1.000  N
  N51      1.0000 0.48483  0.52560  0.88260  Biso   1.000  N
  N52      1.0000 0.51517  0.02560  0.61740  Biso   1.000  N
  H109     1.0000 0.54990  0.48840  0.12630  Biso   1.000  H
  H110     1.0000 0.45010  0.98840  0.37370  Biso   1.000  H
  H111     1.0000 0.45010  0.51160  0.87370  Biso   1.000  H
  H112     1.0000 0.54990  0.01160  0.62630  Biso   1.000  H
  H113     1.0000 0.50400  0.40940  0.09900  Biso   1.000  H
  H114     1.0000 0.49600  0.90940  0.40100  Biso   1.000  H
  H115     1.0000 0.49600  0.59060  0.90100  Biso   1.000  H
  H116     1.0000 0.50400  0.09060  0.59900  Biso   1.000  H
  O1       1.0000 0.28558  0.61890  0.18663  Biso   1.000  O
  O2       1.0000 0.71442  0.11890  0.31337  Biso   1.000  O
  O3       1.0000 0.71442  0.38110  0.81337  Biso   1.000  O
  O4       1.0000 0.28558  0.88110  0.68663  Biso   1.000  O
  O5       1.0000 0.29177  0.61530  0.03850  Biso   1.000  O
  O6       1.0000 0.70823  0.11530  0.46150  Biso   1.000  O
  O7       1.0000 0.70823  0.38470  0.96150  Biso   1.000  O
  O8       1.0000 0.29177  0.88470  0.53850  Biso   1.000  O
  O9       1.0000 0.31011  0.44670  0.12160  Biso   1.000  O
  O10      1.0000 0.68989  0.94670  0.37840  Biso   1.000  O
  O11      1.0000 0.68989  0.55330  0.87840  Biso   1.000  O
  O12      1.0000 0.31011  0.05330  0.62160  Biso   1.000  O
  O13      1.0000 0.59042  0.63770  0.15550  Biso   1.000  O
  O14      1.0000 0.40958  0.13770  0.34450  Biso   1.000  O
  O15      1.0000 0.40958  0.36230  0.84450  Biso   1.000  O
  O16      1.0000 0.59042  0.86230  0.65550  Biso   1.000  O
  O17      1.0000 0.56029  0.80000  0.20130  Biso   1.000  O
  O18      1.0000 0.43971  0.30000  0.29870  Biso   1.000  O
  O19      1.0000 0.43971  0.20000  0.79870  Biso   1.000  O
  O20      1.0000 0.56029  0.70000  0.70130  Biso   1.000  O
  H117     1.0000 0.59320  0.81570  0.20360  Biso   1.000  H
  H118     1.0000 0.40680  0.31570  0.29640  Biso   1.000  H
  H119     1.0000 0.40680  0.18430  0.79640  Biso   1.000  H
  H120     1.0000 0.59320  0.68430  0.70360  Biso   1.000  H
  O21      1.0000 0.23603  0.91870  0.36916  Biso   1.000  O
  O22      1.0000 0.76397  0.41870  0.13084  Biso   1.000  O
  O23      1.0000 0.76397  0.08130  0.63084  Biso   1.000  O
  O24      1.0000 0.23603  0.58130  0.86916  Biso   1.000  O
  H121     1.0000 0.20870  0.93380  0.33240  Biso   1.000  H
  H122     1.0000 0.79130  0.43380  0.16760  Biso   1.000  H
  H123     1.0000 0.79130  0.06620  0.66760  Biso   1.000  H
  H124     1.0000 0.20870  0.56620  0.83240  Biso   1.000  H
  H125     1.0000 0.23980  0.97150  0.40530  Biso   1.000  H
  H126     1.0000 0.76020  0.47150  0.09470  Biso   1.000  H
  H127     1.0000 0.76020  0.02850  0.59470  Biso   1.000  H
  H128     1.0000 0.23980  0.52850  0.90530  Biso   1.000  H
  S1       1.0000 0.31177  0.56856  0.11941  Biso   1.000  S
  S2       1.0000 0.68823  0.06856  0.38059  Biso   1.000  S
  S3       1.0000 0.68823  0.43144  0.88059  Biso   1.000  S
  S4       1.0000 0.31177  0.93144  0.61941  Biso   1.000  S
  C125     1.0000 0.00525  0.36560  0.15940  Biso   1.000  C
  C126     1.0000 0.99475  0.86560  0.34060  Biso   1.000  C
  C127     1.0000 0.99475  0.63440  0.84060  Biso   1.000  C
  C128     1.0000 0.00525  0.13440  0.65940  Biso   1.000  C
  C129     1.0000 0.01658  0.27040  0.21030  Biso   1.000  C
  C130     1.0000 0.98342  0.77040  0.28970  Biso   1.000  C
  C131     1.0000 0.98342  0.72960  0.78970  Biso   1.000  C
  C132     1.0000 0.01658  0.22960  0.71030  Biso   1.000  C
  C133     1.0000 0.07017  0.22720  0.21950  Biso   1.000  C
  C134     1.0000 0.92983  0.72720  0.28050  Biso   1.000  C
  C135     1.0000 0.92983  0.77280  0.78050  Biso   1.000  C
  C136     1.0000 0.07017  0.27280  0.71950  Biso   1.000  C
  H129     1.0000 0.07810  0.16370  0.25260  Biso   1.000  H
  H130     1.0000 0.92190  0.66370  0.24740  Biso   1.000  H
  H131     1.0000 0.92190  0.83630  0.74740  Biso   1.000  H
  H132     1.0000 0.07810  0.33630  0.75260  Biso   1.000  H
  C137     1.0000 0.11132  0.27660  0.18060  Biso   1.000  C
  C138     1.0000 0.88868  0.77660  0.31940  Biso   1.000  C
  C139     1.0000 0.88868  0.72340  0.81940  Biso   1.000  C
  C140     1.0000 0.11132  0.22340  0.68060  Biso   1.000  C
  C141     1.0000 0.10076  0.37290  0.13190  Biso   1.000  C
  C142     1.0000 0.89924  0.87290  0.36810  Biso   1.000  C
  C143     1.0000 0.89924  0.62710  0.86810  Biso   1.000  C
  C144     1.0000 0.10076  0.12710  0.63190  Biso   1.000  C
  H133     1.0000 0.12890  0.40770  0.10680  Biso   1.000  H
  H134     1.0000 0.87110  0.90770  0.39320  Biso   1.000  H
  H135     1.0000 0.87110  0.59230  0.89320  Biso   1.000  H
  H136     1.0000 0.12890  0.09230  0.60680  Biso   1.000  H
  C145     1.0000 0.04799  0.41580  0.12160  Biso   1.000  C
  C146     1.0000 0.95201  0.91580  0.37840  Biso   1.000  C
  C147     1.0000 0.95201  0.58420  0.87840  Biso   1.000  C
  C148     1.0000 0.04799  0.08420  0.62160  Biso   1.000  C
  H137     1.0000 0.04060  0.47960  0.08870  Biso   1.000  H
  H138     1.0000 0.95940  0.97960  0.41130  Biso   1.000  H
  H139     1.0000 0.95940  0.52040  0.91130  Biso   1.000  H
  H140     1.0000 0.04060  0.02040  0.58870  Biso   1.000  H
  C149     1.0000 0.94960  0.41450  0.14730  Biso   1.000  C
  C150     1.0000 0.05040  0.91450  0.35270  Biso   1.000  C
  C151     1.0000 0.05040  0.58550  0.85270  Biso   1.000  C
  C152     1.0000 0.94960  0.08550  0.64730  Biso   1.000  C
  N53      1.0000 0.97796  0.21680  0.25090  Biso   1.000  N
  N54      1.0000 0.02204  0.71680  0.24910  Biso   1.000  N
  N55      1.0000 0.02204  0.78320  0.74910  Biso   1.000  N
  N56      1.0000 0.97796  0.28320  0.75090  Biso   1.000  N
  H141     1.0000 0.98670  0.15820  0.28100  Biso   1.000  H
  H142     1.0000 0.01330  0.65820  0.21900  Biso   1.000  H
  H143     1.0000 0.01330  0.84180  0.71900  Biso   1.000  H
  H144     1.0000 0.98670  0.34180  0.78100  Biso   1.000  H
  H145     1.0000 0.94470  0.24180  0.24630  Biso   1.000  H
  H146     1.0000 0.05530  0.74180  0.25370  Biso   1.000  H
  H147     1.0000 0.05530  0.75820  0.75370  Biso   1.000  H
  H148     1.0000 0.94470  0.25820  0.74630  Biso   1.000  H
  O25      1.0000 0.18660  0.17380  0.11000  Biso   1.000  O
  O26      1.0000 0.81340  0.67380  0.39000  Biso   1.000  O
  O27      1.0000 0.81340  0.82620  0.89000  Biso   1.000  O
  O28      1.0000 0.18660  0.32620  0.61000  Biso   1.000  O
  O29      1.0000 0.17867  0.12750  0.25190  Biso   1.000  O
  O30      1.0000 0.82133  0.62750  0.24810  Biso   1.000  O
  O31      1.0000 0.82133  0.87250  0.74810  Biso   1.000  O
  O32      1.0000 0.17867  0.37250  0.75190  Biso   1.000  O
  O33      1.0000 0.21559  0.30670  0.21960  Biso   1.000  O
  O34      1.0000 0.78441  0.80670  0.28040  Biso   1.000  O
  O35      1.0000 0.78441  0.69330  0.78040  Biso   1.000  O
  O36      1.0000 0.21559  0.19330  0.71960  Biso   1.000  O
  O37      1.0000 0.94637  0.50770  0.10200  Biso   1.000  O
  O38      1.0000 0.05363  0.00770  0.39800  Biso   1.000  O
  O39      1.0000 0.05363  0.49230  0.89800  Biso   1.000  O
  O40      1.0000 0.94637  0.99230  0.60200  Biso   1.000  O
  H149     1.0000 0.91420  0.52870  0.09440  Biso   1.000  H
  H150     1.0000 0.08580  0.02870  0.40560  Biso   1.000  H
  H151     1.0000 0.08580  0.47130  0.90560  Biso   1.000  H
  H152     1.0000 0.91420  0.97130  0.59440  Biso   1.000  H
  O41      1.0000 0.90995  0.37580  0.17690  Biso   1.000  O
  O42      1.0000 0.09005  0.87580  0.32310  Biso   1.000  O
  O43      1.0000 0.09005  0.62420  0.82310  Biso   1.000  O
  O44      1.0000 0.90995  0.12420  0.67690  Biso   1.000  O
  S5       1.0000 0.17879  0.21726  0.19081  Biso   1.000  S
  S6       1.0000 0.82121  0.71726  0.30919  Biso   1.000  S
  S7       1.0000 0.82121  0.78274  0.80919  Biso   1.000  S
  S8       1.0000 0.17879  0.28274  0.69081  Biso   1.000  S
  O45      1.0000 0.34015  0.38260  0.29580  Biso   1.000  O
  O46      1.0000 0.65985  0.88260  0.20420  Biso   1.000  O
  O47      1.0000 0.65985  0.61740  0.70420  Biso   1.000  O
  O48      1.0000 0.34015  0.11740  0.79580  Biso   1.000  O
  H153     1.0000 0.31990  0.35170  0.32880  Biso   1.000  H
  H154     1.0000 0.68010  0.85170  0.17120  Biso   1.000  H
  H155     1.0000 0.68010  0.64830  0.67120  Biso   1.000  H
  H156     1.0000 0.31990  0.14830  0.82880  Biso   1.000  H
  H157     1.0000 0.32280  0.38920  0.24710  Biso   1.000  H
  H158     1.0000 0.67720  0.88920  0.25290  Biso   1.000  H
  H159     1.0000 0.67720  0.61080  0.75290  Biso   1.000  H
  H160     1.0000 0.32280  0.11080  0.74710  Biso   1.000  H
  O49      1.0000 0.23775  0.32410  0.01380  Biso   1.000  O
  O50      1.0000 0.76225  0.82410  0.48620  Biso   1.000  O
  O51      1.0000 0.76225  0.67590  0.98620  Biso   1.000  O
  O52      1.0000 0.23775  0.17590  0.51380  Biso   1.000  O
  H161     1.0000 0.26050  0.37160  0.03840  Biso   1.000  H
  H162     1.0000 0.73950  0.87160  0.46160  Biso   1.000  H
  H163     1.0000 0.73950  0.62840  0.96160  Biso   1.000  H
  H164     1.0000 0.26050  0.12840  0.53840  Biso   1.000  H
  H165     1.0000 0.22370  0.28520  0.05100  Biso   1.000  H
  H166     1.0000 0.77630  0.78520  0.44900  Biso   1.000  H
  H167     1.0000 0.77630  0.71480  0.94900  Biso   1.000  H
  H168     1.0000 0.22370  0.21480  0.55100  Biso   1.000  H
  O53      1.0000 0.15563  0.08460  0.40870  Biso   1.000  O
  O54      1.0000 0.84437  0.58460  0.09130  Biso   1.000  O
  O55      1.0000 0.84437  0.91540  0.59130  Biso   1.000  O
  O56      1.0000 0.15563  0.41540  0.90870  Biso   1.000  O
  H169     1.0000 0.15930  0.11030  0.35960  Biso   1.000  H
  H170     1.0000 0.84070  0.61030  0.14040  Biso   1.000  H
  H171     1.0000 0.84070  0.88970  0.64040  Biso   1.000  H
  H172     1.0000 0.15930  0.38970  0.85960  Biso   1.000  H
  H173     1.0000 0.18260  0.10900  0.44300  Biso   1.000  H
  H174     1.0000 0.81740  0.60900  0.05700  Biso   1.000  H
  H175     1.0000 0.81740  0.89100  0.55700  Biso   1.000  H
  H176     1.0000 0.18260  0.39100  0.94300  Biso   1.000  H
  O57      1.0000 0.28720  0.20900  0.36850  Biso   1.000  O
  O58      1.0000 0.71280  0.70900  0.13150  Biso   1.000  O
  O59      1.0000 0.71280  0.79100  0.63150  Biso   1.000  O
  O60      1.0000 0.28720  0.29100  0.86850  Biso   1.000  O
  H177     1.0000 0.25690  0.22670  0.34010  Biso   1.000  H
  H178     1.0000 0.74310  0.72670  0.15990  Biso   1.000  H
  H179     1.0000 0.74310  0.77330  0.65990  Biso   1.000  H
  H180     1.0000 0.25690  0.27330  0.84010  Biso   1.000  H
  H181     1.0000 0.27220  0.15880  0.39620  Biso   1.000  H
  H182     1.0000 0.72780  0.65880  0.10380  Biso   1.000  H
  H183     1.0000 0.72780  0.84120  0.60380  Biso   1.000  H
  H184     1.0000 0.27220  0.34120  0.89620  Biso   1.000  H
