data_image0
_cell_length_a       13.4947
_cell_length_b       10.1948
_cell_length_c       18.8909
_cell_angle_alpha    90
_cell_angle_beta     134.327
_cell_angle_gamma    90

_symmetry_space_group_name_H-M    "P 1"
_symmetry_int_tables_number       1

loop_
  _symmetry_equiv_pos_as_xyz
  'x, y, z'

loop_
  _atom_site_label
  _atom_site_occupancy
  _atom_site_fract_x
  _atom_site_fract_y
  _atom_site_fract_z
  _atom_site_thermal_displace_type
  _atom_site_B_iso_or_equiv
  _atom_site_type_symbol
  C1       1.0000 0.19850  0.57040  0.42966  Biso   1.000  C
  C2       1.0000 0.80150  0.07040  0.07034  Biso   1.000  C
  C3       1.0000 0.80150  0.42960  0.57034  Biso   1.000  C
  C4       1.0000 0.19850  0.92960  0.92966  Biso   1.000  C
  C5       1.0000 0.17680  0.43420  0.41821  Biso   1.000  C
  C6       1.0000 0.82320  0.93420  0.08179  Biso   1.000  C
  C7       1.0000 0.82320  0.56580  0.58179  Biso   1.000  C
  C8       1.0000 0.17680  0.06580  0.91821  Biso   1.000  C
  C9       1.0000 0.28350  0.35110  0.49050  Biso   1.000  C
  C10      1.0000 0.71650  0.85110  0.00950  Biso   1.000  C
  C11      1.0000 0.71650  0.64890  0.50950  Biso   1.000  C
  C12      1.0000 0.28350  0.14890  0.99050  Biso   1.000  C
  H1       1.0000 0.27010  0.26090  0.48250  Biso   1.000  H
  H2       1.0000 0.72990  0.76090  0.01750  Biso   1.000  H
  H3       1.0000 0.72990  0.73910  0.51750  Biso   1.000  H
  H4       1.0000 0.27010  0.23910  0.98250  Biso   1.000  H
  C13      1.0000 0.41060  0.40130  0.57510  Biso   1.000  C
  C14      1.0000 0.58940  0.90130  0.92490  Biso   1.000  C
  C15      1.0000 0.58940  0.59870  0.42490  Biso   1.000  C
  C16      1.0000 0.41060  0.09870  0.07510  Biso   1.000  C
  C17      1.0000 0.42830  0.53460  0.58980  Biso   1.000  C
  C18      1.0000 0.57170  0.03460  0.91020  Biso   1.000  C
  C19      1.0000 0.57170  0.46540  0.41020  Biso   1.000  C
  C20      1.0000 0.42830  0.96540  0.08980  Biso   1.000  C
  H5       1.0000 0.51130  0.56850  0.64830  Biso   1.000  H
  H6       1.0000 0.48870  0.06850  0.85170  Biso   1.000  H
  H7       1.0000 0.48870  0.43150  0.35170  Biso   1.000  H
  H8       1.0000 0.51130  0.93150  0.14830  Biso   1.000  H
  C21      1.0000 0.32280  0.61760  0.51780  Biso   1.000  C
  C22      1.0000 0.67720  0.11760  0.98220  Biso   1.000  C
  C23      1.0000 0.67720  0.38240  0.48220  Biso   1.000  C
  C24      1.0000 0.32280  0.88240  0.01780  Biso   1.000  C
  H9       1.0000 0.33530  0.70770  0.52860  Biso   1.000  H
  H10      1.0000 0.66470  0.20770  0.97140  Biso   1.000  H
  H11      1.0000 0.66470  0.29230  0.47140  Biso   1.000  H
  H12      1.0000 0.33530  0.79230  0.02860  Biso   1.000  H
  C25      1.0000 0.09700  0.66570  0.34810  Biso   1.000  C
  C26      1.0000 0.90300  0.16570  0.15190  Biso   1.000  C
  C27      1.0000 0.90300  0.33430  0.65190  Biso   1.000  C
  C28      1.0000 0.09700  0.83430  0.84810  Biso   1.000  C
  C29      1.0000 0.99900  0.60570  0.08590  Biso   1.000  C
  C30      1.0000 0.00100  0.10570  0.41410  Biso   1.000  C
  C31      1.0000 0.00100  0.39430  0.91410  Biso   1.000  C
  C32      1.0000 0.99900  0.89430  0.58590  Biso   1.000  C
  H13      1.0000 0.09030  0.62700  0.14220  Biso   1.000  H
  H14      1.0000 0.90970  0.12700  0.35780  Biso   1.000  H
  H15      1.0000 0.90970  0.37300  0.85780  Biso   1.000  H
  H16      1.0000 0.09030  0.87300  0.64220  Biso   1.000  H
  C33      1.0000 0.80180  0.59380  0.93230  Biso   1.000  C
  C34      1.0000 0.19820  0.09380  0.56770  Biso   1.000  C
  C35      1.0000 0.19820  0.40620  0.06770  Biso   1.000  C
  C36      1.0000 0.80180  0.90620  0.43230  Biso   1.000  C
  H17      1.0000 0.73210  0.60430  0.86400  Biso   1.000  H
  H18      1.0000 0.26790  0.10430  0.63600  Biso   1.000  H
  H19      1.0000 0.26790  0.39570  0.13600  Biso   1.000  H
  H20      1.0000 0.73210  0.89570  0.36400  Biso   1.000  H
  C37      1.0000 0.79360  0.52630  0.98960  Biso   1.000  C
  C38      1.0000 0.20640  0.02630  0.51040  Biso   1.000  C
  C39      1.0000 0.20640  0.47370  0.01040  Biso   1.000  C
  C40      1.0000 0.79360  0.97370  0.48960  Biso   1.000  C
  H21      1.0000 0.71570  0.48180  0.96690  Biso   1.000  H
  H22      1.0000 0.28430  0.98180  0.53310  Biso   1.000  H
  H23      1.0000 0.28430  0.51820  0.03310  Biso   1.000  H
  H24      1.0000 0.71570  0.01820  0.46690  Biso   1.000  H
  C41      1.0000 0.99310  0.72100  0.96690  Biso   1.000  C
  C42      1.0000 0.00690  0.22100  0.53310  Biso   1.000  C
  C43      1.0000 0.00690  0.27900  0.03310  Biso   1.000  C
  C44      1.0000 0.99310  0.77900  0.46690  Biso   1.000  C
  H25      1.0000 0.93950  0.70650  0.89750  Biso   1.000  H
  H26      1.0000 0.06050  0.20650  0.60250  Biso   1.000  H
  H27      1.0000 0.06050  0.29350  0.10250  Biso   1.000  H
  H28      1.0000 0.93950  0.79350  0.39750  Biso   1.000  H
  H29      1.0000 0.08680  0.69080  0.00490  Biso   1.000  H
  H30      1.0000 0.91320  0.19080  0.49510  Biso   1.000  H
  H31      1.0000 0.91320  0.30920  0.99510  Biso   1.000  H
  H32      1.0000 0.08680  0.80920  0.50490  Biso   1.000  H
  C45      1.0000 0.99650  0.86640  0.98450  Biso   1.000  C
  C46      1.0000 0.00350  0.36640  0.51550  Biso   1.000  C
  C47      1.0000 0.00350  0.13360  0.01550  Biso   1.000  C
  C48      1.0000 0.99650  0.63360  0.48450  Biso   1.000  C
  C49      1.0000 0.88500  0.94460  0.91120  Biso   1.000  C
  C50      1.0000 0.11500  0.44460  0.58880  Biso   1.000  C
  C51      1.0000 0.11500  0.05540  0.08880  Biso   1.000  C
  C52      1.0000 0.88500  0.55540  0.41120  Biso   1.000  C
  H33      1.0000 0.80730  0.90780  0.85120  Biso   1.000  H
  H34      1.0000 0.19270  0.40780  0.64880  Biso   1.000  H
  H35      1.0000 0.19270  0.09220  0.14880  Biso   1.000  H
  H36      1.0000 0.80730  0.59220  0.35120  Biso   1.000  H
  C53      1.0000 0.11140  0.92260  0.07300  Biso   1.000  C
  C54      1.0000 0.88860  0.42260  0.42700  Biso   1.000  C
  C55      1.0000 0.88860  0.07740  0.92700  Biso   1.000  C
  C56      1.0000 0.11140  0.57740  0.57300  Biso   1.000  C
  H37      1.0000 0.18710  0.87040  0.12250  Biso   1.000  H
  H38      1.0000 0.81290  0.37040  0.37750  Biso   1.000  H
  H39      1.0000 0.81290  0.12960  0.87750  Biso   1.000  H
  H40      1.0000 0.18710  0.62960  0.62250  Biso   1.000  H
  Cu1      1.0000 0.97375  0.44961  0.20296  Biso   1.000  Cu
  Cu2      1.0000 0.02625  0.94961  0.29704  Biso   1.000  Cu
  Cu3      1.0000 0.02625  0.55039  0.79704  Biso   1.000  Cu
  Cu4      1.0000 0.97375  0.05039  0.70296  Biso   1.000  Cu
  N1       1.0000 0.04680  0.38140  0.33106  Biso   1.000  N
  N2       1.0000 0.95320  0.88140  0.16894  Biso   1.000  N
  N3       1.0000 0.95320  0.61860  0.66894  Biso   1.000  N
  N4       1.0000 0.04680  0.11860  0.83106  Biso   1.000  N
  H41      1.0000 0.04500  0.29810  0.32600  Biso   1.000  H
  H42      1.0000 0.95500  0.79810  0.17400  Biso   1.000  H
  H43      1.0000 0.95500  0.70190  0.67400  Biso   1.000  H
  H44      1.0000 0.04500  0.20190  0.82600  Biso   1.000  H
  H45      1.0000 0.98000  0.39900  0.32500  Biso   1.000  H
  H46      1.0000 0.02000  0.89900  0.17500  Biso   1.000  H
  H47      1.0000 0.02000  0.60100  0.67500  Biso   1.000  H
  H48      1.0000 0.98000  0.10100  0.82500  Biso   1.000  H
  N5       1.0000 0.91700  0.53360  0.08566  Biso   1.000  N
  N6       1.0000 0.08300  0.03360  0.41434  Biso   1.000  N
  N7       1.0000 0.08300  0.46640  0.91434  Biso   1.000  N
  N8       1.0000 0.91700  0.96640  0.58566  Biso   1.000  N
  N9       1.0000 0.93280  0.64330  0.99468  Biso   1.000  N
  N10      1.0000 0.06720  0.14330  0.50532  Biso   1.000  N
  N11      1.0000 0.06720  0.35670  0.00532  Biso   1.000  N
  N12      1.0000 0.93280  0.85670  0.49468  Biso   1.000  N
  O1       1.0000 0.01100  0.62843  0.25905  Biso   1.000  O
  O2       1.0000 0.98900  0.12843  0.24095  Biso   1.000  O
  O3       1.0000 0.98900  0.37157  0.74095  Biso   1.000  O
  O4       1.0000 0.01100  0.87157  0.75905  Biso   1.000  O
  O5       1.0000 0.10700  0.78215  0.37282  Biso   1.000  O
  O6       1.0000 0.89300  0.28215  0.12718  Biso   1.000  O
  O7       1.0000 0.89300  0.21785  0.62718  Biso   1.000  O
  O8       1.0000 0.10700  0.71785  0.87282  Biso   1.000  O
  O9       1.0000 0.54390  0.19800  0.60180  Biso   1.000  O
  O10      1.0000 0.45610  0.69800  0.89820  Biso   1.000  O
  O11      1.0000 0.45610  0.80200  0.39820  Biso   1.000  O
  O12      1.0000 0.54390  0.30200  0.10180  Biso   1.000  O
  O13      1.0000 0.51920  0.22850  0.71260  Biso   1.000  O
  O14      1.0000 0.48080  0.72850  0.78740  Biso   1.000  O
  O15      1.0000 0.48080  0.77150  0.28740  Biso   1.000  O
  O16      1.0000 0.51920  0.27150  0.21260  Biso   1.000  O
  O17      1.0000 0.67160  0.36740  0.72400  Biso   1.000  O
  O18      1.0000 0.32840  0.86740  0.77600  Biso   1.000  O
  O19      1.0000 0.32840  0.63260  0.27600  Biso   1.000  O
  O20      1.0000 0.67160  0.13260  0.22400  Biso   1.000  O
  O21      1.0000 0.76240  0.46300  0.16410  Biso   1.000  O
  O22      1.0000 0.23760  0.96300  0.33590  Biso   1.000  O
  O23      1.0000 0.23760  0.53700  0.83590  Biso   1.000  O
  O24      1.0000 0.76240  0.03700  0.66410  Biso   1.000  O
  H49      1.0000 0.69880  0.40900  0.14240  Biso   1.000  H
  H50      1.0000 0.30120  0.90900  0.35760  Biso   1.000  H
  H51      1.0000 0.30120  0.59100  0.85760  Biso   1.000  H
  H52      1.0000 0.69880  0.09100  0.64240  Biso   1.000  H
  H53      1.0000 0.74110  0.53910  0.16670  Biso   1.000  H
  H54      1.0000 0.25890  0.03910  0.33330  Biso   1.000  H
  H55      1.0000 0.25890  0.46090  0.83330  Biso   1.000  H
  H56      1.0000 0.74110  0.96090  0.66670  Biso   1.000  H
  O25      1.0000 0.20220  0.40860  0.26747  Biso   1.000  O
  O26      1.0000 0.79780  0.90860  0.23253  Biso   1.000  O
  O27      1.0000 0.79780  0.59140  0.73253  Biso   1.000  O
  O28      1.0000 0.20220  0.09140  0.76747  Biso   1.000  O
  H57      1.0000 0.25140  0.47650  0.28830  Biso   1.000  H
  H58      1.0000 0.74860  0.97650  0.21170  Biso   1.000  H
  H59      1.0000 0.74860  0.52350  0.71170  Biso   1.000  H
  H60      1.0000 0.25140  0.02350  0.78830  Biso   1.000  H
  H61      1.0000 0.22150  0.33770  0.25560  Biso   1.000  H
  H62      1.0000 0.77850  0.83770  0.24440  Biso   1.000  H
  H63      1.0000 0.77850  0.66230  0.74440  Biso   1.000  H
  H64      1.0000 0.22150  0.16230  0.75560  Biso   1.000  H
  S1       1.0000 0.54915  0.29130  0.66184  Biso   1.000  S
  S2       1.0000 0.45085  0.79130  0.83816  Biso   1.000  S
  S3       1.0000 0.45085  0.70870  0.33816  Biso   1.000  S
  S4       1.0000 0.54915  0.20870  0.16184  Biso   1.000  S
  O29      1.0000 0.64750  0.31300  0.65380  Biso   1.000  O
  O30      1.0000 0.35250  0.81300  0.84620  Biso   1.000  O
  O31      1.0000 0.35250  0.68700  0.34620  Biso   1.000  O
  O32      1.0000 0.64750  0.18700  0.15380  Biso   1.000  O
  O33      1.0000 0.50600  0.15790  0.64470  Biso   1.000  O
  O34      1.0000 0.49400  0.65790  0.85530  Biso   1.000  O
  O35      1.0000 0.49400  0.84210  0.35530  Biso   1.000  O
  O36      1.0000 0.50600  0.34210  0.14470  Biso   1.000  O
  O37      1.0000 0.61100  0.33580  0.75960  Biso   1.000  O
  O38      1.0000 0.38900  0.83580  0.74040  Biso   1.000  O
  O39      1.0000 0.38900  0.66420  0.24040  Biso   1.000  O
  O40      1.0000 0.61100  0.16420  0.25960  Biso   1.000  O
  O41      1.0000 0.38160  0.29880  0.89294  Biso   1.000  O
  O42      1.0000 0.61840  0.79880  0.60706  Biso   1.000  O
  O43      1.0000 0.61840  0.70120  0.10706  Biso   1.000  O
  O44      1.0000 0.38160  0.20120  0.39294  Biso   1.000  O
  H65      1.0000 0.44230  0.29290  0.95560  Biso   1.000  H
  H66      1.0000 0.55770  0.79290  0.54440  Biso   1.000  H
  H67      1.0000 0.55770  0.70710  0.04440  Biso   1.000  H
  H68      1.0000 0.44230  0.20710  0.45560  Biso   1.000  H
  H69      1.0000 0.41840  0.32940  0.87390  Biso   1.000  H
  H70      1.0000 0.58160  0.82940  0.62610  Biso   1.000  H
  H71      1.0000 0.58160  0.67060  0.12610  Biso   1.000  H
  H72      1.0000 0.41840  0.17060  0.37390  Biso   1.000  H
  O45      1.0000 0.47320  0.40250  0.81340  Biso   1.000  O
  O46      1.0000 0.52680  0.90250  0.68660  Biso   1.000  O
  O47      1.0000 0.52680  0.59750  0.18660  Biso   1.000  O
  O48      1.0000 0.47320  0.09750  0.31340  Biso   1.000  O
  H73      1.0000 0.48570  0.35110  0.78480  Biso   1.000  H
  H74      1.0000 0.51430  0.85110  0.71520  Biso   1.000  H
  H75      1.0000 0.51430  0.64890  0.21520  Biso   1.000  H
  H76      1.0000 0.48570  0.14890  0.28480  Biso   1.000  H
  H77      1.0000 0.49100  0.48050  0.81020  Biso   1.000  H
  H78      1.0000 0.50900  0.98050  0.68980  Biso   1.000  H
  H79      1.0000 0.50900  0.51950  0.18980  Biso   1.000  H
  H80      1.0000 0.49100  0.01950  0.31020  Biso   1.000  H
