data_image0
_cell_length_a       9.551
_cell_length_b       12.592
_cell_length_c       13.737
_cell_angle_alpha    90
_cell_angle_beta     95.13
_cell_angle_gamma    90

_symmetry_space_group_name_H-M    "P 1"
_symmetry_int_tables_number       1

loop_
  _symmetry_equiv_pos_as_xyz
  'x, y, z'

loop_
  _atom_site_label
  _atom_site_occupancy
  _atom_site_fract_x
  _atom_site_fract_y
  _atom_site_fract_z
  _atom_site_thermal_displace_type
  _atom_site_B_iso_or_equiv
  _atom_site_type_symbol
  Cu1      1.0000 0.36074  0.00667  0.06078  Biso   1.000  Cu
  Cu2      1.0000 0.63926  0.50667  0.43922  Biso   1.000  Cu
  Cu3      1.0000 0.63926  0.99333  0.93922  Biso   1.000  Cu
  Cu4      1.0000 0.36074  0.49333  0.56078  Biso   1.000  Cu
  O1       1.0000 0.45748  0.00646  0.18911  Biso   1.000  O
  O2       1.0000 0.54252  0.50646  0.31089  Biso   1.000  O
  O3       1.0000 0.54252  0.99354  0.81089  Biso   1.000  O
  O4       1.0000 0.45748  0.49354  0.68911  Biso   1.000  O
  O5       1.0000 0.30185  0.13040  0.22048  Biso   1.000  O
  O6       1.0000 0.69815  0.63040  0.27952  Biso   1.000  O
  O7       1.0000 0.69815  0.86960  0.77952  Biso   1.000  O
  O8       1.0000 0.30185  0.36960  0.72048  Biso   1.000  O
  O9       1.0000 0.45921  0.37502  0.50564  Biso   1.000  O
  O10      1.0000 0.54079  0.87502  0.99436  Biso   1.000  O
  O11      1.0000 0.54079  0.62498  0.49436  Biso   1.000  O
  O12      1.0000 0.45921  0.12498  0.00564  Biso   1.000  O
  O13      1.0000 0.58660  0.29794  0.63138  Biso   1.000  O
  O14      1.0000 0.41340  0.79794  0.86862  Biso   1.000  O
  O15      1.0000 0.41340  0.70206  0.36862  Biso   1.000  O
  O16      1.0000 0.58660  0.20206  0.13138  Biso   1.000  O
  O17      1.0000 0.85930  0.98927  0.56751  Biso   1.000  O
  O18      1.0000 0.14070  0.48927  0.93249  Biso   1.000  O
  O19      1.0000 0.14070  0.01073  0.43249  Biso   1.000  O
  O20      1.0000 0.85930  0.51073  0.06751  Biso   1.000  O
  O21      1.0000 0.79510  0.88405  0.44936  Biso   1.000  O
  O22      1.0000 0.20490  0.38405  0.05064  Biso   1.000  O
  O23      1.0000 0.20490  0.11595  0.55064  Biso   1.000  O
  O24      1.0000 0.79510  0.61595  0.94936  Biso   1.000  O
  N1       1.0000 0.78290  0.96621  0.49483  Biso   1.000  N
  N2       1.0000 0.21710  0.46621  0.00517  Biso   1.000  N
  N3       1.0000 0.21710  0.03379  0.50517  Biso   1.000  N
  N4       1.0000 0.78290  0.53379  0.99483  Biso   1.000  N
  N5       1.0000 0.24107  0.88386  0.09477  Biso   1.000  N
  N6       1.0000 0.75893  0.38386  0.40523  Biso   1.000  N
  N7       1.0000 0.75893  0.11614  0.90523  Biso   1.000  N
  N8       1.0000 0.24107  0.61614  0.59477  Biso   1.000  N
  N9       1.0000 0.22659  0.00069  0.93883  Biso   1.000  N
  N10      1.0000 0.77341  0.50069  0.56117  Biso   1.000  N
  N11      1.0000 0.77341  0.99931  0.06117  Biso   1.000  N
  N12      1.0000 0.22659  0.49931  0.43883  Biso   1.000  N
  C1       1.0000 0.49195  0.09445  0.34033  Biso   1.000  C
  C2       1.0000 0.50805  0.59445  0.15967  Biso   1.000  C
  C3       1.0000 0.50805  0.90555  0.65967  Biso   1.000  C
  C4       1.0000 0.49195  0.40555  0.84033  Biso   1.000  C
  C5       1.0000 0.46890  0.18282  0.39704  Biso   1.000  C
  C6       1.0000 0.53110  0.68282  0.10296  Biso   1.000  C
  C7       1.0000 0.53110  0.81718  0.60296  Biso   1.000  C
  C8       1.0000 0.46890  0.31718  0.89704  Biso   1.000  C
  C9       1.0000 0.54720  0.20136  0.48558  Biso   1.000  C
  C10      1.0000 0.45280  0.70136  0.01442  Biso   1.000  C
  C11      1.0000 0.45280  0.79864  0.51442  Biso   1.000  C
  C12      1.0000 0.54720  0.29864  0.98558  Biso   1.000  C
  C13      1.0000 0.65090  0.12882  0.51768  Biso   1.000  C
  C14      1.0000 0.34910  0.62882  0.98232  Biso   1.000  C
  C15      1.0000 0.34910  0.87118  0.48232  Biso   1.000  C
  C16      1.0000 0.65090  0.37118  0.01768  Biso   1.000  C
  C17      1.0000 0.67260  0.04144  0.46065  Biso   1.000  C
  C18      1.0000 0.32740  0.54144  0.03935  Biso   1.000  C
  C19      1.0000 0.32740  0.95856  0.53935  Biso   1.000  C
  C20      1.0000 0.67260  0.45856  0.96065  Biso   1.000  C
  C21      1.0000 0.59500  0.02194  0.37244  Biso   1.000  C
  C22      1.0000 0.40500  0.52194  0.12756  Biso   1.000  C
  C23      1.0000 0.40500  0.97806  0.62756  Biso   1.000  C
  C24      1.0000 0.59500  0.47806  0.87244  Biso   1.000  C
  C25      1.0000 0.40830  0.07766  0.24286  Biso   1.000  C
  C26      1.0000 0.59170  0.57766  0.25714  Biso   1.000  C
  C27      1.0000 0.59170  0.92234  0.75714  Biso   1.000  C
  C28      1.0000 0.40830  0.42234  0.74286  Biso   1.000  C
  C29      1.0000 0.52990  0.29787  0.54837  Biso   1.000  C
  C30      1.0000 0.47010  0.79787  0.95163  Biso   1.000  C
  C31      1.0000 0.47010  0.70213  0.45163  Biso   1.000  C
  C32      1.0000 0.52990  0.20213  0.04837  Biso   1.000  C
  C33      1.0000 0.26310  0.82390  0.17535  Biso   1.000  C
  C34      1.0000 0.73690  0.32390  0.32465  Biso   1.000  C
  C35      1.0000 0.73690  0.17610  0.82465  Biso   1.000  C
  C36      1.0000 0.26310  0.67610  0.67535  Biso   1.000  C
  C37      1.0000 0.17670  0.74059  0.19356  Biso   1.000  C
  C38      1.0000 0.82330  0.24059  0.30644  Biso   1.000  C
  C39      1.0000 0.82330  0.25941  0.80644  Biso   1.000  C
  C40      1.0000 0.17670  0.75941  0.69356  Biso   1.000  C
  C41      1.0000 0.06420  0.71840  0.12730  Biso   1.000  C
  C42      1.0000 0.93580  0.21840  0.37270  Biso   1.000  C
  C43      1.0000 0.93580  0.28160  0.87270  Biso   1.000  C
  C44      1.0000 0.06420  0.78160  0.62730  Biso   1.000  C
  C45      1.0000 0.04130  0.77846  0.04381  Biso   1.000  C
  C46      1.0000 0.95870  0.27846  0.45619  Biso   1.000  C
  C47      1.0000 0.95870  0.22154  0.95619  Biso   1.000  C
  C48      1.0000 0.04130  0.72154  0.54381  Biso   1.000  C
  C49      1.0000 0.13200  0.86150  0.02909  Biso   1.000  C
  C50      1.0000 0.86800  0.36150  0.47091  Biso   1.000  C
  C51      1.0000 0.86800  0.13850  0.97091  Biso   1.000  C
  C52      1.0000 0.13200  0.63850  0.52909  Biso   1.000  C
  C53      1.0000 0.12078  0.93038  0.94218  Biso   1.000  C
  C54      1.0000 0.87922  0.43038  0.55782  Biso   1.000  C
  C55      1.0000 0.87922  0.06962  0.05782  Biso   1.000  C
  C56      1.0000 0.12078  0.56962  0.44218  Biso   1.000  C
  C57      1.0000 0.01210  0.92538  0.86816  Biso   1.000  C
  C58      1.0000 0.98790  0.42538  0.63184  Biso   1.000  C
  C59      1.0000 0.98790  0.07462  0.13184  Biso   1.000  C
  C60      1.0000 0.01210  0.57462  0.36816  Biso   1.000  C
  C61      1.0000 0.01300  0.99310  0.79007  Biso   1.000  C
  C62      1.0000 0.98700  0.49310  0.70993  Biso   1.000  C
  C63      1.0000 0.98700  0.00690  0.20993  Biso   1.000  C
  C64      1.0000 0.01300  0.50690  0.29007  Biso   1.000  C
  C65      1.0000 0.12330  0.06200  0.78476  Biso   1.000  C
  C66      1.0000 0.87670  0.56200  0.71524  Biso   1.000  C
  C67      1.0000 0.87670  0.93800  0.21524  Biso   1.000  C
  C68      1.0000 0.12330  0.43800  0.28476  Biso   1.000  C
  C69      1.0000 0.22960  0.06280  0.86063  Biso   1.000  C
  C70      1.0000 0.77040  0.56280  0.63937  Biso   1.000  C
  C71      1.0000 0.77040  0.93720  0.13937  Biso   1.000  C
  C72      1.0000 0.22960  0.43720  0.36063  Biso   1.000  C
  H1       1.0000 0.40200  0.23750  0.37540  Biso   1.000  H
  H2       1.0000 0.59800  0.73750  0.12460  Biso   1.000  H
  H3       1.0000 0.59800  0.76250  0.62460  Biso   1.000  H
  H4       1.0000 0.40200  0.26250  0.87540  Biso   1.000  H
  H5       1.0000 0.71000  0.13830  0.57500  Biso   1.000  H
  H6       1.0000 0.29000  0.63830  0.92500  Biso   1.000  H
  H7       1.0000 0.29000  0.86170  0.42500  Biso   1.000  H
  H8       1.0000 0.71000  0.36170  0.07500  Biso   1.000  H
  H9       1.0000 0.61500  0.96370  0.33740  Biso   1.000  H
  H10      1.0000 0.38500  0.46370  0.16260  Biso   1.000  H
  H11      1.0000 0.38500  0.03630  0.66260  Biso   1.000  H
  H12      1.0000 0.61500  0.53630  0.83740  Biso   1.000  H
  H13      1.0000 0.34200  0.84180  0.21680  Biso   1.000  H
  H14      1.0000 0.65800  0.34180  0.28320  Biso   1.000  H
  H15      1.0000 0.65800  0.15820  0.78320  Biso   1.000  H
  H16      1.0000 0.34200  0.65820  0.71680  Biso   1.000  H
  H17      1.0000 0.19300  0.70000  0.24880  Biso   1.000  H
  H18      1.0000 0.80700  0.20000  0.25120  Biso   1.000  H
  H19      1.0000 0.80700  0.30000  0.75120  Biso   1.000  H
  H20      1.0000 0.19300  0.80000  0.74880  Biso   1.000  H
  H21      1.0000 0.00200  0.66400  0.13960  Biso   1.000  H
  H22      1.0000 0.99800  0.16400  0.36040  Biso   1.000  H
  H23      1.0000 0.99800  0.33600  0.86040  Biso   1.000  H
  H24      1.0000 0.00200  0.83600  0.63960  Biso   1.000  H
  H25      1.0000 0.97000  0.76160  0.99950  Biso   1.000  H
  H26      1.0000 0.03000  0.26160  0.50050  Biso   1.000  H
  H27      1.0000 0.03000  0.23840  0.00050  Biso   1.000  H
  H28      1.0000 0.97000  0.73840  0.49950  Biso   1.000  H
  H29      1.0000 0.94200  0.87670  0.87190  Biso   1.000  H
  H30      1.0000 0.05800  0.37670  0.62810  Biso   1.000  H
  H31      1.0000 0.05800  0.12330  0.12810  Biso   1.000  H
  H32      1.0000 0.94200  0.62330  0.37190  Biso   1.000  H
  H33      1.0000 0.94500  0.99020  0.74530  Biso   1.000  H
  H34      1.0000 0.05500  0.49020  0.75470  Biso   1.000  H
  H35      1.0000 0.05500  0.00980  0.25470  Biso   1.000  H
  H36      1.0000 0.94500  0.50980  0.24530  Biso   1.000  H
  H37      1.0000 0.13300  0.10600  0.73070  Biso   1.000  H
  H38      1.0000 0.86700  0.60600  0.76930  Biso   1.000  H
  H39      1.0000 0.86700  0.89400  0.26930  Biso   1.000  H
  H40      1.0000 0.13300  0.39400  0.23070  Biso   1.000  H
  H41      1.0000 0.30900  0.11000  0.85890  Biso   1.000  H
  H42      1.0000 0.69100  0.61000  0.64110  Biso   1.000  H
  H43      1.0000 0.69100  0.89000  0.14110  Biso   1.000  H
  H44      1.0000 0.30900  0.39000  0.35890  Biso   1.000  H
