data_image0
_cell_length_a       9.5529
_cell_length_b       12.6089
_cell_length_c       13.7463
_cell_angle_alpha    90
_cell_angle_beta     95.238
_cell_angle_gamma    90

_symmetry_space_group_name_H-M    "P 1"
_symmetry_int_tables_number       1

loop_
  _symmetry_equiv_pos_as_xyz
  'x, y, z'

loop_
  _atom_site_label
  _atom_site_occupancy
  _atom_site_fract_x
  _atom_site_fract_y
  _atom_site_fract_z
  _atom_site_thermal_displace_type
  _atom_site_B_iso_or_equiv
  _atom_site_type_symbol
  Cu1      1.0000 0.63928  0.49329  0.43922  Biso   1.000  Cu
  Cu2      1.0000 0.36072  0.99329  0.06078  Biso   1.000  Cu
  Cu3      1.0000 0.36072  0.50671  0.56078  Biso   1.000  Cu
  Cu4      1.0000 0.63928  0.00671  0.93922  Biso   1.000  Cu
  O1       1.0000 0.69814  0.36958  0.27940  Biso   1.000  O
  O2       1.0000 0.30186  0.86958  0.22060  Biso   1.000  O
  O3       1.0000 0.30186  0.63042  0.72060  Biso   1.000  O
  O4       1.0000 0.69814  0.13042  0.77940  Biso   1.000  O
  O5       1.0000 0.54298  0.49364  0.31078  Biso   1.000  O
  O6       1.0000 0.45702  0.99364  0.18922  Biso   1.000  O
  O7       1.0000 0.45702  0.50636  0.68922  Biso   1.000  O
  O8       1.0000 0.54298  0.00636  0.81078  Biso   1.000  O
  O9       1.0000 0.54050  0.12488  0.99443  Biso   1.000  O
  O10      1.0000 0.45950  0.62488  0.50557  Biso   1.000  O
  O11      1.0000 0.45950  0.87512  0.00557  Biso   1.000  O
  O12      1.0000 0.54050  0.37512  0.49443  Biso   1.000  O
  O13      1.0000 0.41320  0.20218  0.86871  Biso   1.000  O
  O14      1.0000 0.58680  0.70218  0.63129  Biso   1.000  O
  O15      1.0000 0.58680  0.79782  0.13129  Biso   1.000  O
  O16      1.0000 0.41320  0.29782  0.36871  Biso   1.000  O
  O17      1.0000 0.20530  0.61591  0.05076  Biso   1.000  O
  O18      1.0000 0.79470  0.11591  0.44924  Biso   1.000  O
  O19      1.0000 0.79470  0.38409  0.94924  Biso   1.000  O
  O20      1.0000 0.20530  0.88409  0.55076  Biso   1.000  O
  O21      1.0000 0.14100  0.51080  0.93238  Biso   1.000  O
  O22      1.0000 0.85900  0.01080  0.56762  Biso   1.000  O
  O23      1.0000 0.85900  0.48920  0.06762  Biso   1.000  O
  O24      1.0000 0.14100  0.98920  0.43238  Biso   1.000  O
  N1       1.0000 0.75910  0.61592  0.40514  Biso   1.000  N
  N2       1.0000 0.24090  0.11592  0.09486  Biso   1.000  N
  N3       1.0000 0.24090  0.38408  0.59486  Biso   1.000  N
  N4       1.0000 0.75910  0.88408  0.90514  Biso   1.000  N
  N5       1.0000 0.77370  0.49919  0.56109  Biso   1.000  N
  N6       1.0000 0.22630  0.99919  0.93891  Biso   1.000  N
  N7       1.0000 0.22630  0.50081  0.43891  Biso   1.000  N
  N8       1.0000 0.77370  0.00081  0.06109  Biso   1.000  N
  N9       1.0000 0.21680  0.53400  0.00489  Biso   1.000  N
  N10      1.0000 0.78320  0.03400  0.49511  Biso   1.000  N
  N11      1.0000 0.78320  0.46600  0.99511  Biso   1.000  N
  N12      1.0000 0.21680  0.96600  0.50489  Biso   1.000  N
  C1       1.0000 0.73670  0.67571  0.32486  Biso   1.000  C
  C2       1.0000 0.26330  0.17571  0.17514  Biso   1.000  C
  C3       1.0000 0.26330  0.32429  0.67514  Biso   1.000  C
  C4       1.0000 0.73670  0.82429  0.82486  Biso   1.000  C
  H1       1.0000 0.66050  0.66030  0.28010  Biso   1.000  H
  H2       1.0000 0.33950  0.16030  0.21990  Biso   1.000  H
  H3       1.0000 0.33950  0.33970  0.71990  Biso   1.000  H
  H4       1.0000 0.66050  0.83970  0.78010  Biso   1.000  H
  C5       1.0000 0.82300  0.75930  0.30640  Biso   1.000  C
  C6       1.0000 0.17700  0.25930  0.19360  Biso   1.000  C
  C7       1.0000 0.17700  0.24070  0.69360  Biso   1.000  C
  C8       1.0000 0.82300  0.74070  0.80640  Biso   1.000  C
  H5       1.0000 0.80530  0.80010  0.25020  Biso   1.000  H
  H6       1.0000 0.19470  0.30010  0.24980  Biso   1.000  H
  H7       1.0000 0.19470  0.19990  0.74980  Biso   1.000  H
  H8       1.0000 0.80530  0.69990  0.75020  Biso   1.000  H
  C9       1.0000 0.93600  0.78130  0.37280  Biso   1.000  C
  C10      1.0000 0.06400  0.28130  0.12720  Biso   1.000  C
  C11      1.0000 0.06400  0.21870  0.62720  Biso   1.000  C
  C12      1.0000 0.93600  0.71870  0.87280  Biso   1.000  C
  H9       1.0000 0.99700  0.83650  0.36120  Biso   1.000  H
  H10      1.0000 0.00300  0.33650  0.13880  Biso   1.000  H
  H11      1.0000 0.00300  0.16350  0.63880  Biso   1.000  H
  H12      1.0000 0.99700  0.66350  0.86120  Biso   1.000  H
  C13      1.0000 0.95840  0.72140  0.45620  Biso   1.000  C
  C14      1.0000 0.04160  0.22140  0.04380  Biso   1.000  C
  C15      1.0000 0.04160  0.27860  0.54380  Biso   1.000  C
  C16      1.0000 0.95840  0.77860  0.95620  Biso   1.000  C
  H13      1.0000 0.03340  0.73630  0.50220  Biso   1.000  H
  H14      1.0000 0.96660  0.23630  0.99780  Biso   1.000  H
  H15      1.0000 0.96660  0.26370  0.49780  Biso   1.000  H
  H16      1.0000 0.03340  0.76370  0.00220  Biso   1.000  H
  C17      1.0000 0.86780  0.63852  0.47103  Biso   1.000  C
  C18      1.0000 0.13220  0.13852  0.02897  Biso   1.000  C
  C19      1.0000 0.13220  0.36148  0.52897  Biso   1.000  C
  C20      1.0000 0.86780  0.86148  0.97103  Biso   1.000  C
  C21      1.0000 0.87900  0.56972  0.55786  Biso   1.000  C
  C22      1.0000 0.12100  0.06972  0.94214  Biso   1.000  C
  C23      1.0000 0.12100  0.43028  0.44214  Biso   1.000  C
  C24      1.0000 0.87900  0.93028  0.05786  Biso   1.000  C
  C25      1.0000 0.98810  0.57480  0.63163  Biso   1.000  C
  C26      1.0000 0.01190  0.07480  0.86837  Biso   1.000  C
  C27      1.0000 0.01190  0.42520  0.36837  Biso   1.000  C
  C28      1.0000 0.98810  0.92520  0.13163  Biso   1.000  C
  H17      1.0000 0.06070  0.62340  0.62820  Biso   1.000  H
  H18      1.0000 0.93930  0.12340  0.87180  Biso   1.000  H
  H19      1.0000 0.93930  0.37660  0.37180  Biso   1.000  H
  H20      1.0000 0.06070  0.87660  0.12820  Biso   1.000  H
  C29      1.0000 0.98760  0.50670  0.70998  Biso   1.000  C
  C30      1.0000 0.01240  0.00670  0.79002  Biso   1.000  C
  C31      1.0000 0.01240  0.49330  0.29002  Biso   1.000  C
  C32      1.0000 0.98760  0.99330  0.20998  Biso   1.000  C
  H21      1.0000 0.06150  0.50710  0.75900  Biso   1.000  H
  H22      1.0000 0.93850  0.00710  0.74100  Biso   1.000  H
  H23      1.0000 0.93850  0.49290  0.24100  Biso   1.000  H
  H24      1.0000 0.06150  0.99290  0.25900  Biso   1.000  H
  C33      1.0000 0.87620  0.43790  0.71497  Biso   1.000  C
  C34      1.0000 0.12380  0.93790  0.78503  Biso   1.000  C
  C35      1.0000 0.12380  0.56210  0.28503  Biso   1.000  C
  C36      1.0000 0.87620  0.06210  0.21497  Biso   1.000  C
  H25      1.0000 0.87230  0.39300  0.76830  Biso   1.000  H
  H26      1.0000 0.12770  0.89300  0.73170  Biso   1.000  H
  H27      1.0000 0.12770  0.60700  0.23170  Biso   1.000  H
  H28      1.0000 0.87230  0.10700  0.26830  Biso   1.000  H
  C37      1.0000 0.77070  0.43710  0.63936  Biso   1.000  C
  C38      1.0000 0.22930  0.93710  0.86064  Biso   1.000  C
  C39      1.0000 0.22930  0.56290  0.36064  Biso   1.000  C
  C40      1.0000 0.77070  0.06290  0.13936  Biso   1.000  C
  H29      1.0000 0.69480  0.39150  0.64320  Biso   1.000  H
  H30      1.0000 0.30520  0.89150  0.85680  Biso   1.000  H
  H31      1.0000 0.30520  0.60850  0.35680  Biso   1.000  H
  H32      1.0000 0.69480  0.10850  0.14320  Biso   1.000  H
  C41      1.0000 0.59210  0.42224  0.25698  Biso   1.000  C
  C42      1.0000 0.40790  0.92224  0.24302  Biso   1.000  C
  C43      1.0000 0.40790  0.57776  0.74302  Biso   1.000  C
  C44      1.0000 0.59210  0.07776  0.75698  Biso   1.000  C
  C45      1.0000 0.50830  0.40583  0.15967  Biso   1.000  C
  C46      1.0000 0.49170  0.90583  0.34033  Biso   1.000  C
  C47      1.0000 0.49170  0.59417  0.84033  Biso   1.000  C
  C48      1.0000 0.50830  0.09417  0.65967  Biso   1.000  C
  C49      1.0000 0.40490  0.47762  0.12727  Biso   1.000  C
  C50      1.0000 0.59510  0.97762  0.37273  Biso   1.000  C
  C51      1.0000 0.59510  0.52238  0.87273  Biso   1.000  C
  C52      1.0000 0.40490  0.02238  0.62727  Biso   1.000  C
  H33      1.0000 0.38790  0.53730  0.16410  Biso   1.000  H
  H34      1.0000 0.61210  0.03730  0.33590  Biso   1.000  H
  H35      1.0000 0.61210  0.46270  0.83590  Biso   1.000  H
  H36      1.0000 0.38790  0.96270  0.66410  Biso   1.000  H
  C53      1.0000 0.32770  0.45890  0.03931  Biso   1.000  C
  C54      1.0000 0.67230  0.95890  0.46069  Biso   1.000  C
  C55      1.0000 0.67230  0.54110  0.96069  Biso   1.000  C
  C56      1.0000 0.32770  0.04110  0.53931  Biso   1.000  C
  C57      1.0000 0.34910  0.37116  0.98225  Biso   1.000  C
  C58      1.0000 0.65090  0.87116  0.51775  Biso   1.000  C
  C59      1.0000 0.65090  0.62884  0.01775  Biso   1.000  C
  C60      1.0000 0.34910  0.12884  0.48225  Biso   1.000  C
  H37      1.0000 0.29520  0.36090  0.92320  Biso   1.000  H
  H38      1.0000 0.70480  0.86090  0.57680  Biso   1.000  H
  H39      1.0000 0.70480  0.63910  0.07680  Biso   1.000  H
  H40      1.0000 0.29520  0.13910  0.42320  Biso   1.000  H
  C61      1.0000 0.45210  0.29879  0.01453  Biso   1.000  C
  C62      1.0000 0.54790  0.79879  0.48547  Biso   1.000  C
  C63      1.0000 0.54790  0.70121  0.98547  Biso   1.000  C
  C64      1.0000 0.45210  0.20121  0.51453  Biso   1.000  C
  C65      1.0000 0.53110  0.31728  0.10303  Biso   1.000  C
  C66      1.0000 0.46890  0.81728  0.39697  Biso   1.000  C
  C67      1.0000 0.46890  0.68272  0.89697  Biso   1.000  C
  C68      1.0000 0.53110  0.18272  0.60303  Biso   1.000  C
  H41      1.0000 0.60090  0.26920  0.12480  Biso   1.000  H
  H42      1.0000 0.39910  0.76920  0.37520  Biso   1.000  H
  H43      1.0000 0.39910  0.73080  0.87520  Biso   1.000  H
  H44      1.0000 0.60090  0.23080  0.62480  Biso   1.000  H
  C69      1.0000 0.46990  0.20208  0.95144  Biso   1.000  C
  C70      1.0000 0.53010  0.70208  0.54856  Biso   1.000  C
  C71      1.0000 0.53010  0.79792  0.04856  Biso   1.000  C
  C72      1.0000 0.46990  0.29792  0.45144  Biso   1.000  C
