data_image0
_cell_length_a       5.9958
_cell_length_b       15.891
_cell_length_c       13.085
_cell_angle_alpha    90
_cell_angle_beta     97.49
_cell_angle_gamma    90

_symmetry_space_group_name_H-M    "P 1"
_symmetry_int_tables_number       1

loop_
  _symmetry_equiv_pos_as_xyz
  'x, y, z'

loop_
  _atom_site_label
  _atom_site_occupancy
  _atom_site_fract_x
  _atom_site_fract_y
  _atom_site_fract_z
  _atom_site_thermal_displace_type
  _atom_site_B_iso_or_equiv
  _atom_site_type_symbol
  Cu1      1.0000 0.76217  0.04440  0.03053  Biso   1.000  Cu
  Cu2      1.0000 0.23783  0.54440  0.46947  Biso   1.000  Cu
  Cu3      1.0000 0.23783  0.95560  0.96947  Biso   1.000  Cu
  Cu4      1.0000 0.76217  0.45560  0.53053  Biso   1.000  Cu
  Cl1      1.0000 0.44828  0.09494  0.93753  Biso   1.000  Cl
  Cl2      1.0000 0.55172  0.59494  0.56247  Biso   1.000  Cl
  Cl3      1.0000 0.55172  0.90506  0.06247  Biso   1.000  Cl
  Cl4      1.0000 0.44828  0.40506  0.43753  Biso   1.000  Cl
  Cl5      1.0000 0.09158  0.99509  0.11722  Biso   1.000  Cl
  Cl6      1.0000 0.90842  0.49509  0.38278  Biso   1.000  Cl
  Cl7      1.0000 0.90842  0.00491  0.88278  Biso   1.000  Cl
  Cl8      1.0000 0.09158  0.50491  0.61722  Biso   1.000  Cl
  N1       1.0000 0.58380  0.19677  0.26540  Biso   1.000  N
  N2       1.0000 0.41620  0.69677  0.23460  Biso   1.000  N
  N3       1.0000 0.41620  0.80323  0.73460  Biso   1.000  N
  N4       1.0000 0.58380  0.30323  0.76540  Biso   1.000  N
  N5       1.0000 0.79800  0.21071  0.26275  Biso   1.000  N
  N6       1.0000 0.20200  0.71071  0.23725  Biso   1.000  N
  N7       1.0000 0.20200  0.78929  0.73725  Biso   1.000  N
  N8       1.0000 0.79800  0.28929  0.76275  Biso   1.000  N
  N9       1.0000 0.88790  0.16618  0.19521  Biso   1.000  N
  N10      1.0000 0.11210  0.66618  0.30479  Biso   1.000  N
  N11      1.0000 0.11210  0.83382  0.80479  Biso   1.000  N
  N12      1.0000 0.88790  0.33382  0.69521  Biso   1.000  N
  N13      1.0000 0.72060  0.12066  0.14882  Biso   1.000  N
  N14      1.0000 0.27940  0.62066  0.35118  Biso   1.000  N
  N15      1.0000 0.27940  0.87934  0.85118  Biso   1.000  N
  N16      1.0000 0.72060  0.37934  0.64882  Biso   1.000  N
  C1       1.0000 0.53970  0.14017  0.19160  Biso   1.000  C
  C2       1.0000 0.46030  0.64017  0.30840  Biso   1.000  C
  C3       1.0000 0.46030  0.85983  0.80840  Biso   1.000  C
  C4       1.0000 0.53970  0.35983  0.69160  Biso   1.000  C
  H1       1.0000 0.39830  0.11690  0.17210  Biso   1.000  H
  H2       1.0000 0.60170  0.61690  0.32790  Biso   1.000  H
  H3       1.0000 0.60170  0.88310  0.82790  Biso   1.000  H
  H4       1.0000 0.39830  0.38310  0.67210  Biso   1.000  H
  C5       1.0000 0.92820  0.27235  0.33070  Biso   1.000  C
  C6       1.0000 0.07180  0.77235  0.16930  Biso   1.000  C
  C7       1.0000 0.07180  0.72765  0.66930  Biso   1.000  C
  C8       1.0000 0.92820  0.22765  0.83070  Biso   1.000  C
  H5       1.0000 0.07400  0.28030  0.30760  Biso   1.000  H
  H6       1.0000 0.92600  0.78030  0.19240  Biso   1.000  H
  H7       1.0000 0.92600  0.71970  0.69240  Biso   1.000  H
  H8       1.0000 0.07400  0.21970  0.80760  Biso   1.000  H
  H9       1.0000 0.85030  0.32600  0.32520  Biso   1.000  H
  H10      1.0000 0.14970  0.82600  0.17480  Biso   1.000  H
  H11      1.0000 0.14970  0.67400  0.67480  Biso   1.000  H
  H12      1.0000 0.85030  0.17400  0.82520  Biso   1.000  H
  C9       1.0000 0.96070  0.24560  0.43930  Biso   1.000  C
  C10      1.0000 0.03930  0.74560  0.06070  Biso   1.000  C
  C11      1.0000 0.03930  0.75440  0.56070  Biso   1.000  C
  C12      1.0000 0.96070  0.25440  0.93930  Biso   1.000  C
  H13      1.0000 0.81450  0.23380  0.46030  Biso   1.000  H
  H14      1.0000 0.18550  0.73380  0.03970  Biso   1.000  H
  H15      1.0000 0.18550  0.76620  0.53970  Biso   1.000  H
  H16      1.0000 0.81450  0.26620  0.96030  Biso   1.000  H
  H17      1.0000 0.02620  0.29200  0.48110  Biso   1.000  H
  H18      1.0000 0.97380  0.79200  0.01890  Biso   1.000  H
  H19      1.0000 0.97380  0.70800  0.51890  Biso   1.000  H
  H20      1.0000 0.02620  0.20800  0.98110  Biso   1.000  H
  C13      1.0000 0.10630  0.17020  0.46140  Biso   1.000  C
  C14      1.0000 0.89370  0.67020  0.03860  Biso   1.000  C
  C15      1.0000 0.89370  0.82980  0.53860  Biso   1.000  C
  C16      1.0000 0.10630  0.32980  0.96140  Biso   1.000  C
  H21      1.0000 0.03690  0.12310  0.42220  Biso   1.000  H
  H22      1.0000 0.96310  0.62310  0.07780  Biso   1.000  H
  H23      1.0000 0.96310  0.87690  0.57780  Biso   1.000  H
  H24      1.0000 0.03690  0.37690  0.92220  Biso   1.000  H
  H25      1.0000 0.24990  0.18090  0.43720  Biso   1.000  H
  H26      1.0000 0.75010  0.68090  0.06280  Biso   1.000  H
  H27      1.0000 0.75010  0.81910  0.56280  Biso   1.000  H
  H28      1.0000 0.24990  0.31910  0.93720  Biso   1.000  H
  C17      1.0000 0.14750  0.14610  0.57000  Biso   1.000  C
  C18      1.0000 0.85250  0.64610  0.93000  Biso   1.000  C
  C19      1.0000 0.85250  0.85390  0.43000  Biso   1.000  C
  C20      1.0000 0.14750  0.35390  0.07000  Biso   1.000  C
  H29      1.0000 0.00140  0.14860  0.59410  Biso   1.000  H
  H30      1.0000 0.99860  0.64860  0.90590  Biso   1.000  H
  H31      1.0000 0.99860  0.85140  0.40590  Biso   1.000  H
  H32      1.0000 0.00140  0.35140  0.09410  Biso   1.000  H
  H33      1.0000 0.23420  0.19210  0.60390  Biso   1.000  H
  H34      1.0000 0.76580  0.69210  0.89610  Biso   1.000  H
  H35      1.0000 0.76580  0.80790  0.39610  Biso   1.000  H
  H36      1.0000 0.23420  0.30790  0.10390  Biso   1.000  H
  H37      1.0000 0.01920  0.11800  0.59290  Biso   1.000  H
  H38      1.0000 0.98080  0.61800  0.90710  Biso   1.000  H
  H39      1.0000 0.98080  0.88200  0.40710  Biso   1.000  H
  H40      1.0000 0.01920  0.38200  0.09290  Biso   1.000  H
  H41      1.0000 0.19220  0.19360  0.61460  Biso   1.000  H
  H42      1.0000 0.80780  0.69360  0.88540  Biso   1.000  H
  H43      1.0000 0.80780  0.80640  0.38540  Biso   1.000  H
  H44      1.0000 0.19220  0.30640  0.11460  Biso   1.000  H
  C21      1.0000 0.26000  0.06450  0.61910  Biso   1.000  C
  C22      1.0000 0.74000  0.56450  0.88090  Biso   1.000  C
  C23      1.0000 0.74000  0.93550  0.38090  Biso   1.000  C
  C24      1.0000 0.26000  0.43550  0.11910  Biso   1.000  C
  H45      1.0000 0.21740  0.05500  0.68710  Biso   1.000  H
  H46      1.0000 0.78260  0.55500  0.81290  Biso   1.000  H
  H47      1.0000 0.78260  0.94500  0.31290  Biso   1.000  H
  H48      1.0000 0.21740  0.44500  0.18710  Biso   1.000  H
  H49      1.0000 0.21700  0.01590  0.57620  Biso   1.000  H
  H50      1.0000 0.78300  0.51590  0.92380  Biso   1.000  H
  H51      1.0000 0.78300  0.98410  0.42380  Biso   1.000  H
  H52      1.0000 0.21700  0.48410  0.07620  Biso   1.000  H
  C25      1.0000 0.50600  0.08100  0.62500  Biso   1.000  C
  C26      1.0000 0.49400  0.58100  0.87500  Biso   1.000  C
  C27      1.0000 0.49400  0.91900  0.37500  Biso   1.000  C
  C28      1.0000 0.50600  0.41900  0.12500  Biso   1.000  C
  H53      1.0000 0.54720  0.08400  0.55660  Biso   1.000  H
  H54      1.0000 0.45280  0.58400  0.94340  Biso   1.000  H
  H55      1.0000 0.45280  0.91600  0.44340  Biso   1.000  H
  H56      1.0000 0.54720  0.41600  0.05660  Biso   1.000  H
  H57      1.0000 0.58790  0.03630  0.66220  Biso   1.000  H
  H58      1.0000 0.41210  0.53630  0.83780  Biso   1.000  H
  H59      1.0000 0.41210  0.96370  0.33780  Biso   1.000  H
  H60      1.0000 0.58790  0.46370  0.16220  Biso   1.000  H
  H61      1.0000 0.54140  0.13340  0.65990  Biso   1.000  H
  H62      1.0000 0.45860  0.63340  0.84010  Biso   1.000  H
  H63      1.0000 0.45860  0.86660  0.34010  Biso   1.000  H
  H64      1.0000 0.54140  0.36660  0.15990  Biso   1.000  H
  C29      1.0000 0.34900  0.08390  0.56060  Biso   1.000  C
  C30      1.0000 0.65100  0.58390  0.93940  Biso   1.000  C
  C31      1.0000 0.65100  0.91610  0.43940  Biso   1.000  C
  C32      1.0000 0.34900  0.41610  0.06060  Biso   1.000  C
  H65      1.0000 0.30970  0.04240  0.50680  Biso   1.000  H
  H66      1.0000 0.69030  0.54240  0.99320  Biso   1.000  H
  H67      1.0000 0.69030  0.95760  0.49320  Biso   1.000  H
  H68      1.0000 0.30970  0.45760  0.00680  Biso   1.000  H
  H69      1.0000 0.48310  0.11380  0.54750  Biso   1.000  H
  H70      1.0000 0.51690  0.61380  0.95250  Biso   1.000  H
  H71      1.0000 0.51690  0.88620  0.45250  Biso   1.000  H
  H72      1.0000 0.48310  0.38620  0.04750  Biso   1.000  H
  C33      1.0000 0.37700  0.04460  0.66500  Biso   1.000  C
  C34      1.0000 0.62300  0.54460  0.83500  Biso   1.000  C
  C35      1.0000 0.62300  0.95540  0.33500  Biso   1.000  C
  C36      1.0000 0.37700  0.45540  0.16500  Biso   1.000  C
  H73      1.0000 0.41280  0.08730  0.71630  Biso   1.000  H
  H74      1.0000 0.58720  0.58730  0.78370  Biso   1.000  H
  H75      1.0000 0.58720  0.91270  0.28370  Biso   1.000  H
  H76      1.0000 0.41280  0.41270  0.21630  Biso   1.000  H
  H77      1.0000 0.49700  0.00410  0.66960  Biso   1.000  H
  H78      1.0000 0.50300  0.50410  0.83040  Biso   1.000  H
  H79      1.0000 0.50300  0.99590  0.33040  Biso   1.000  H
  H80      1.0000 0.49700  0.49590  0.16960  Biso   1.000  H
  H81      1.0000 0.24000  0.01700  0.67620  Biso   1.000  H
  H82      1.0000 0.76000  0.51700  0.82380  Biso   1.000  H
  H83      1.0000 0.76000  0.98300  0.32380  Biso   1.000  H
  H84      1.0000 0.24000  0.48300  0.17620  Biso   1.000  H
