data_image0
_cell_length_a       11.3447
_cell_length_b       13.4618
_cell_length_c       29.91
_cell_angle_alpha    90
_cell_angle_beta     98.65
_cell_angle_gamma    90

_symmetry_space_group_name_H-M    "P 1"
_symmetry_int_tables_number       1

loop_
  _symmetry_equiv_pos_as_xyz
  'x, y, z'

loop_
  _atom_site_label
  _atom_site_occupancy
  _atom_site_fract_x
  _atom_site_fract_y
  _atom_site_fract_z
  _atom_site_thermal_displace_type
  _atom_site_B_iso_or_equiv
  _atom_site_type_symbol
  Cu1      1.0000 0.00000  0.35206  0.25000  Biso   1.000  Cu
  Cu2      1.0000 0.50000  0.85206  0.25000  Biso   1.000  Cu
  Cu3      1.0000 0.00000  0.64794  0.75000  Biso   1.000  Cu
  Cu4      1.0000 0.50000  0.14794  0.75000  Biso   1.000  Cu
  Cu5      1.0000 0.16085  0.40996  0.11853  Biso   1.000  Cu
  Cu6      1.0000 0.66085  0.90996  0.11853  Biso   1.000  Cu
  Cu7      1.0000 0.83915  0.40996  0.38147  Biso   1.000  Cu
  Cu8      1.0000 0.33915  0.90996  0.38147  Biso   1.000  Cu
  Cu9      1.0000 0.83915  0.59004  0.88147  Biso   1.000  Cu
  Cu10     1.0000 0.33915  0.09004  0.88147  Biso   1.000  Cu
  Cu11     1.0000 0.16085  0.59004  0.61853  Biso   1.000  Cu
  Cu12     1.0000 0.66085  0.09004  0.61853  Biso   1.000  Cu
  S1       1.0000 0.98114  0.89749  0.12587  Biso   1.000  S
  S2       1.0000 0.48114  0.39749  0.12587  Biso   1.000  S
  S3       1.0000 0.01886  0.89749  0.37413  Biso   1.000  S
  S4       1.0000 0.51886  0.39749  0.37413  Biso   1.000  S
  S5       1.0000 0.01886  0.10251  0.87413  Biso   1.000  S
  S6       1.0000 0.51886  0.60251  0.87413  Biso   1.000  S
  S7       1.0000 0.98114  0.10251  0.62587  Biso   1.000  S
  S8       1.0000 0.48114  0.60251  0.62587  Biso   1.000  S
  N1       1.0000 0.21390  0.52019  0.16044  Biso   1.000  N
  N2       1.0000 0.71390  0.02019  0.16044  Biso   1.000  N
  N3       1.0000 0.78610  0.52019  0.33956  Biso   1.000  N
  N4       1.0000 0.28610  0.02019  0.33956  Biso   1.000  N
  N5       1.0000 0.78610  0.47981  0.83956  Biso   1.000  N
  N6       1.0000 0.28610  0.97981  0.83956  Biso   1.000  N
  N7       1.0000 0.21390  0.47981  0.66044  Biso   1.000  N
  N8       1.0000 0.71390  0.97981  0.66044  Biso   1.000  N
  N9       1.0000 0.12940  0.64202  0.10944  Biso   1.000  N
  N10      1.0000 0.62940  0.14202  0.10944  Biso   1.000  N
  N11      1.0000 0.87060  0.64202  0.39056  Biso   1.000  N
  N12      1.0000 0.37060  0.14202  0.39056  Biso   1.000  N
  N13      1.0000 0.87060  0.35798  0.89056  Biso   1.000  N
  N14      1.0000 0.37060  0.85798  0.89056  Biso   1.000  N
  N15      1.0000 0.12940  0.35798  0.60944  Biso   1.000  N
  N16      1.0000 0.62940  0.85798  0.60944  Biso   1.000  N
  N17      1.0000 0.15720  0.50165  0.06608  Biso   1.000  N
  N18      1.0000 0.65720  0.00165  0.06608  Biso   1.000  N
  N19      1.0000 0.84280  0.50165  0.43392  Biso   1.000  N
  N20      1.0000 0.34280  0.00165  0.43392  Biso   1.000  N
  N21      1.0000 0.84280  0.49835  0.93392  Biso   1.000  N
  N22      1.0000 0.34280  0.99835  0.93392  Biso   1.000  N
  N23      1.0000 0.15720  0.49835  0.56608  Biso   1.000  N
  N24      1.0000 0.65720  0.99835  0.56608  Biso   1.000  N
  N25      1.0000 0.07740  0.45240  0.29276  Biso   1.000  N
  N26      1.0000 0.57740  0.95240  0.29276  Biso   1.000  N
  N27      1.0000 0.92260  0.45240  0.20724  Biso   1.000  N
  N28      1.0000 0.42260  0.95240  0.20724  Biso   1.000  N
  N29      1.0000 0.92260  0.54760  0.70724  Biso   1.000  N
  N30      1.0000 0.42260  0.04760  0.70724  Biso   1.000  N
  N31      1.0000 0.07740  0.54760  0.79276  Biso   1.000  N
  N32      1.0000 0.57740  0.04760  0.79276  Biso   1.000  N
  N33      1.0000 0.00000  0.59100  0.25000  Biso   1.000  N
  N34      1.0000 0.50000  0.09100  0.25000  Biso   1.000  N
  N35      1.0000 0.00000  0.40900  0.75000  Biso   1.000  N
  N36      1.0000 0.50000  0.90900  0.75000  Biso   1.000  N
  O1       1.0000 0.11900  0.34033  0.17079  Biso   1.000  O
  O2       1.0000 0.61900  0.84033  0.17079  Biso   1.000  O
  O3       1.0000 0.88100  0.34033  0.32921  Biso   1.000  O
  O4       1.0000 0.38100  0.84033  0.32921  Biso   1.000  O
  O5       1.0000 0.88100  0.65967  0.82921  Biso   1.000  O
  O6       1.0000 0.38100  0.15967  0.82921  Biso   1.000  O
  O7       1.0000 0.11900  0.65967  0.67079  Biso   1.000  O
  O8       1.0000 0.61900  0.15967  0.67079  Biso   1.000  O
  O9       1.0000 0.00318  0.24699  0.20558  Biso   1.000  O
  O10      1.0000 0.50318  0.74699  0.20558  Biso   1.000  O
  O11      1.0000 0.99682  0.24699  0.29442  Biso   1.000  O
  O12      1.0000 0.49682  0.74699  0.29442  Biso   1.000  O
  O13      1.0000 0.99682  0.75301  0.79442  Biso   1.000  O
  O14      1.0000 0.49682  0.25301  0.79442  Biso   1.000  O
  O15      1.0000 0.00318  0.75301  0.70558  Biso   1.000  O
  O16      1.0000 0.50318  0.25301  0.70558  Biso   1.000  O
  O17      1.0000 0.09950  0.30461  0.07958  Biso   1.000  O
  O18      1.0000 0.59950  0.80461  0.07958  Biso   1.000  O
  O19      1.0000 0.90050  0.30461  0.42042  Biso   1.000  O
  O20      1.0000 0.40050  0.80461  0.42042  Biso   1.000  O
  O21      1.0000 0.90050  0.69539  0.92042  Biso   1.000  O
  O22      1.0000 0.40050  0.19539  0.92042  Biso   1.000  O
  O23      1.0000 0.09950  0.69539  0.57958  Biso   1.000  O
  O24      1.0000 0.59950  0.19539  0.57958  Biso   1.000  O
  O25      1.0000 0.85790  0.86810  0.11576  Biso   1.000  O
  O26      1.0000 0.35790  0.36810  0.11576  Biso   1.000  O
  O27      1.0000 0.14210  0.86810  0.38424  Biso   1.000  O
  O28      1.0000 0.64210  0.36810  0.38424  Biso   1.000  O
  O29      1.0000 0.14210  0.13190  0.88424  Biso   1.000  O
  O30      1.0000 0.64210  0.63190  0.88424  Biso   1.000  O
  O31      1.0000 0.85790  0.13190  0.61576  Biso   1.000  O
  O32      1.0000 0.35790  0.63190  0.61576  Biso   1.000  O
  O33      1.0000 0.05350  0.84221  0.09863  Biso   1.000  O
  O34      1.0000 0.55350  0.34221  0.09863  Biso   1.000  O
  O35      1.0000 0.94650  0.84221  0.40137  Biso   1.000  O
  O36      1.0000 0.44650  0.34221  0.40137  Biso   1.000  O
  O37      1.0000 0.94650  0.15779  0.90137  Biso   1.000  O
  O38      1.0000 0.44650  0.65779  0.90137  Biso   1.000  O
  O39      1.0000 0.05350  0.15779  0.59863  Biso   1.000  O
  O40      1.0000 0.55350  0.65779  0.59863  Biso   1.000  O
  O41      1.0000 0.02600  0.89212  0.17344  Biso   1.000  O
  O42      1.0000 0.52600  0.39212  0.17344  Biso   1.000  O
  O43      1.0000 0.97400  0.89212  0.32656  Biso   1.000  O
  O44      1.0000 0.47400  0.39212  0.32656  Biso   1.000  O
  O45      1.0000 0.97400  0.10788  0.82656  Biso   1.000  O
  O46      1.0000 0.47400  0.60788  0.82656  Biso   1.000  O
  O47      1.0000 0.02600  0.10788  0.67344  Biso   1.000  O
  O48      1.0000 0.52600  0.60788  0.67344  Biso   1.000  O
  O49      1.0000 0.00000  0.79600  0.25000  Biso   1.000  O
  O50      1.0000 0.50000  0.29600  0.25000  Biso   1.000  O
  O51      1.0000 0.00000  0.20400  0.75000  Biso   1.000  O
  O52      1.0000 0.50000  0.70400  0.75000  Biso   1.000  O
  O53      1.0000 0.83220  0.72550  0.04190  Biso   1.000  O
  O54      1.0000 0.33220  0.22550  0.04190  Biso   1.000  O
  O55      1.0000 0.16780  0.72550  0.45810  Biso   1.000  O
  O56      1.0000 0.66780  0.22550  0.45810  Biso   1.000  O
  O57      1.0000 0.16780  0.27450  0.95810  Biso   1.000  O
  O58      1.0000 0.66780  0.77450  0.95810  Biso   1.000  O
  O59      1.0000 0.83220  0.27450  0.54190  Biso   1.000  O
  O60      1.0000 0.33220  0.77450  0.54190  Biso   1.000  O
  C1       1.0000 0.05540  0.26370  0.17188  Biso   1.000  C
  C2       1.0000 0.55540  0.76370  0.17188  Biso   1.000  C
  C3       1.0000 0.94460  0.26370  0.32812  Biso   1.000  C
  C4       1.0000 0.44460  0.76370  0.32812  Biso   1.000  C
  C5       1.0000 0.94460  0.73630  0.82812  Biso   1.000  C
  C6       1.0000 0.44460  0.23630  0.82812  Biso   1.000  C
  C7       1.0000 0.05540  0.73630  0.67188  Biso   1.000  C
  C8       1.0000 0.55540  0.23630  0.67188  Biso   1.000  C
  C9       1.0000 0.03980  0.19217  0.13439  Biso   1.000  C
  C10      1.0000 0.53980  0.69217  0.13439  Biso   1.000  C
  C11      1.0000 0.96020  0.19217  0.36561  Biso   1.000  C
  C12      1.0000 0.46020  0.69217  0.36561  Biso   1.000  C
  C13      1.0000 0.96020  0.80783  0.86561  Biso   1.000  C
  C14      1.0000 0.46020  0.30783  0.86561  Biso   1.000  C
  C15      1.0000 0.03980  0.80783  0.63439  Biso   1.000  C
  C16      1.0000 0.53980  0.30783  0.63439  Biso   1.000  C
  C17      1.0000 0.06200  0.21800  0.09111  Biso   1.000  C
  C18      1.0000 0.56200  0.71800  0.09111  Biso   1.000  C
  C19      1.0000 0.93800  0.21800  0.40889  Biso   1.000  C
  C20      1.0000 0.43800  0.71800  0.40889  Biso   1.000  C
  C21      1.0000 0.93800  0.78200  0.90889  Biso   1.000  C
  C22      1.0000 0.43800  0.28200  0.90889  Biso   1.000  C
  C23      1.0000 0.06200  0.78200  0.59111  Biso   1.000  C
  C24      1.0000 0.56200  0.28200  0.59111  Biso   1.000  C
  C25      1.0000 0.04370  0.14320  0.05734  Biso   1.000  C
  C26      1.0000 0.54370  0.64320  0.05734  Biso   1.000  C
  C27      1.0000 0.95630  0.14320  0.44266  Biso   1.000  C
  C28      1.0000 0.45630  0.64320  0.44266  Biso   1.000  C
  C29      1.0000 0.95630  0.85680  0.94266  Biso   1.000  C
  C30      1.0000 0.45630  0.35680  0.94266  Biso   1.000  C
  C31      1.0000 0.04370  0.85680  0.55734  Biso   1.000  C
  C32      1.0000 0.54370  0.35680  0.55734  Biso   1.000  C
  H1       1.0000 0.05250  0.15890  0.02770  Biso   1.000  H
  H2       1.0000 0.55250  0.65890  0.02770  Biso   1.000  H
  H3       1.0000 0.94750  0.15890  0.47230  Biso   1.000  H
  H4       1.0000 0.44750  0.65890  0.47230  Biso   1.000  H
  H5       1.0000 0.94750  0.84110  0.97230  Biso   1.000  H
  H6       1.0000 0.44750  0.34110  0.97230  Biso   1.000  H
  H7       1.0000 0.05250  0.84110  0.52770  Biso   1.000  H
  H8       1.0000 0.55250  0.34110  0.52770  Biso   1.000  H
  C33      1.0000 0.01370  0.04880  0.06750  Biso   1.000  C
  C34      1.0000 0.51370  0.54880  0.06750  Biso   1.000  C
  C35      1.0000 0.98630  0.04880  0.43250  Biso   1.000  C
  C36      1.0000 0.48630  0.54880  0.43250  Biso   1.000  C
  C37      1.0000 0.98630  0.95120  0.93250  Biso   1.000  C
  C38      1.0000 0.48630  0.45120  0.93250  Biso   1.000  C
  C39      1.0000 0.01370  0.95120  0.56750  Biso   1.000  C
  C40      1.0000 0.51370  0.45120  0.56750  Biso   1.000  C
  H9       1.0000 0.00410  0.00080  0.04490  Biso   1.000  H
  H10      1.0000 0.50410  0.50080  0.04490  Biso   1.000  H
  H11      1.0000 0.99590  0.00080  0.45510  Biso   1.000  H
  H12      1.0000 0.49590  0.50080  0.45510  Biso   1.000  H
  H13      1.0000 0.99590  0.99920  0.95510  Biso   1.000  H
  H14      1.0000 0.49590  0.49920  0.95510  Biso   1.000  H
  H15      1.0000 0.00410  0.99920  0.54490  Biso   1.000  H
  H16      1.0000 0.50410  0.49920  0.54490  Biso   1.000  H
  C41      1.0000 0.99740  0.02310  0.11085  Biso   1.000  C
  C42      1.0000 0.49740  0.52310  0.11085  Biso   1.000  C
  C43      1.0000 0.00260  0.02310  0.38915  Biso   1.000  C
  C44      1.0000 0.50260  0.52310  0.38915  Biso   1.000  C
  C45      1.0000 0.00260  0.97690  0.88915  Biso   1.000  C
  C46      1.0000 0.50260  0.47690  0.88915  Biso   1.000  C
  C47      1.0000 0.99740  0.97690  0.61085  Biso   1.000  C
  C48      1.0000 0.49740  0.47690  0.61085  Biso   1.000  C
  C49      1.0000 0.00670  0.09550  0.14363  Biso   1.000  C
  C50      1.0000 0.50670  0.59550  0.14363  Biso   1.000  C
  C51      1.0000 0.99330  0.09550  0.35637  Biso   1.000  C
  C52      1.0000 0.49330  0.59550  0.35637  Biso   1.000  C
  C53      1.0000 0.99330  0.90450  0.85637  Biso   1.000  C
  C54      1.0000 0.49330  0.40450  0.85637  Biso   1.000  C
  C55      1.0000 0.00670  0.90450  0.64363  Biso   1.000  C
  C56      1.0000 0.50670  0.40450  0.64363  Biso   1.000  C
  H17      1.0000 0.99070  0.07970  0.17240  Biso   1.000  H
  H18      1.0000 0.49070  0.57970  0.17240  Biso   1.000  H
  H19      1.0000 0.00930  0.07970  0.32760  Biso   1.000  H
  H20      1.0000 0.50930  0.57970  0.32760  Biso   1.000  H
  H21      1.0000 0.00930  0.92030  0.82760  Biso   1.000  H
  H22      1.0000 0.50930  0.42030  0.82760  Biso   1.000  H
  H23      1.0000 0.99070  0.92030  0.67240  Biso   1.000  H
  H24      1.0000 0.49070  0.42030  0.67240  Biso   1.000  H
  C57      1.0000 0.27300  0.49740  0.20185  Biso   1.000  C
  C58      1.0000 0.77300  0.99740  0.20185  Biso   1.000  C
  C59      1.0000 0.72700  0.49740  0.29815  Biso   1.000  C
  C60      1.0000 0.22700  0.99740  0.29815  Biso   1.000  C
  C61      1.0000 0.72700  0.50260  0.79815  Biso   1.000  C
  C62      1.0000 0.22700  0.00260  0.79815  Biso   1.000  C
  C63      1.0000 0.27300  0.50260  0.70185  Biso   1.000  C
  C64      1.0000 0.77300  0.00260  0.70185  Biso   1.000  C
  H25      1.0000 0.29820  0.43230  0.20750  Biso   1.000  H
  H26      1.0000 0.79820  0.93230  0.20750  Biso   1.000  H
  H27      1.0000 0.70180  0.43230  0.29250  Biso   1.000  H
  H28      1.0000 0.20180  0.93230  0.29250  Biso   1.000  H
  H29      1.0000 0.70180  0.56770  0.79250  Biso   1.000  H
  H30      1.0000 0.20180  0.06770  0.79250  Biso   1.000  H
  H31      1.0000 0.29820  0.56770  0.70750  Biso   1.000  H
  H32      1.0000 0.79820  0.06770  0.70750  Biso   1.000  H
  C65      1.0000 0.29710  0.56510  0.23552  Biso   1.000  C
  C66      1.0000 0.79710  0.06510  0.23552  Biso   1.000  C
  C67      1.0000 0.70290  0.56510  0.26448  Biso   1.000  C
  C68      1.0000 0.20290  0.06510  0.26448  Biso   1.000  C
  C69      1.0000 0.70290  0.43490  0.76448  Biso   1.000  C
  C70      1.0000 0.20290  0.93490  0.76448  Biso   1.000  C
  C71      1.0000 0.29710  0.43490  0.73552  Biso   1.000  C
  C72      1.0000 0.79710  0.93490  0.73552  Biso   1.000  C
  H33      1.0000 0.34000  0.54710  0.26330  Biso   1.000  H
  H34      1.0000 0.84000  0.04710  0.26330  Biso   1.000  H
  H35      1.0000 0.66000  0.54710  0.23670  Biso   1.000  H
  H36      1.0000 0.16000  0.04710  0.23670  Biso   1.000  H
  H37      1.0000 0.66000  0.45290  0.73670  Biso   1.000  H
  H38      1.0000 0.16000  0.95290  0.73670  Biso   1.000  H
  H39      1.0000 0.34000  0.45290  0.76330  Biso   1.000  H
  H40      1.0000 0.84000  0.95290  0.76330  Biso   1.000  H
  C73      1.0000 0.25670  0.66150  0.22775  Biso   1.000  C
  C74      1.0000 0.75670  0.16150  0.22775  Biso   1.000  C
  C75      1.0000 0.74330  0.66150  0.27225  Biso   1.000  C
  C76      1.0000 0.24330  0.16150  0.27225  Biso   1.000  C
  C77      1.0000 0.74330  0.33850  0.77225  Biso   1.000  C
  C78      1.0000 0.24330  0.83850  0.77225  Biso   1.000  C
  C79      1.0000 0.25670  0.33850  0.72775  Biso   1.000  C
  C80      1.0000 0.75670  0.83850  0.72775  Biso   1.000  C
  H41      1.0000 0.26850  0.70840  0.25080  Biso   1.000  H
  H42      1.0000 0.76850  0.20840  0.25080  Biso   1.000  H
  H43      1.0000 0.73150  0.70840  0.24920  Biso   1.000  H
  H44      1.0000 0.23150  0.20840  0.24920  Biso   1.000  H
  H45      1.0000 0.73150  0.29160  0.74920  Biso   1.000  H
  H46      1.0000 0.23150  0.79160  0.74920  Biso   1.000  H
  H47      1.0000 0.26850  0.29160  0.75080  Biso   1.000  H
  H48      1.0000 0.76850  0.79160  0.75080  Biso   1.000  H
  C81      1.0000 0.19950  0.68660  0.18612  Biso   1.000  C
  C82      1.0000 0.69950  0.18660  0.18612  Biso   1.000  C
  C83      1.0000 0.80050  0.68660  0.31388  Biso   1.000  C
  C84      1.0000 0.30050  0.18660  0.31388  Biso   1.000  C
  C85      1.0000 0.80050  0.31340  0.81388  Biso   1.000  C
  C86      1.0000 0.30050  0.81340  0.81388  Biso   1.000  C
  C87      1.0000 0.19950  0.31340  0.68612  Biso   1.000  C
  C88      1.0000 0.69950  0.81340  0.68612  Biso   1.000  C
  H49      1.0000 0.17200  0.75110  0.18030  Biso   1.000  H
  H50      1.0000 0.67200  0.25110  0.18030  Biso   1.000  H
  H51      1.0000 0.82800  0.75110  0.31970  Biso   1.000  H
  H52      1.0000 0.32800  0.25110  0.31970  Biso   1.000  H
  H53      1.0000 0.82800  0.24890  0.81970  Biso   1.000  H
  H54      1.0000 0.32800  0.74890  0.81970  Biso   1.000  H
  H55      1.0000 0.17200  0.24890  0.68030  Biso   1.000  H
  H56      1.0000 0.67200  0.74890  0.68030  Biso   1.000  H
  C89      1.0000 0.18260  0.61460  0.15219  Biso   1.000  C
  C90      1.0000 0.68260  0.11460  0.15219  Biso   1.000  C
  C91      1.0000 0.81740  0.61460  0.34781  Biso   1.000  C
  C92      1.0000 0.31740  0.11460  0.34781  Biso   1.000  C
  C93      1.0000 0.81740  0.38540  0.84781  Biso   1.000  C
  C94      1.0000 0.31740  0.88540  0.84781  Biso   1.000  C
  C95      1.0000 0.18260  0.38540  0.65219  Biso   1.000  C
  C96      1.0000 0.68260  0.88540  0.65219  Biso   1.000  C
  C97      1.0000 0.13950  0.59920  0.06846  Biso   1.000  C
  C98      1.0000 0.63950  0.09920  0.06846  Biso   1.000  C
  C99      1.0000 0.86050  0.59920  0.43154  Biso   1.000  C
  C100     1.0000 0.36050  0.09920  0.43154  Biso   1.000  C
  C101     1.0000 0.86050  0.40080  0.93154  Biso   1.000  C
  C102     1.0000 0.36050  0.90080  0.93154  Biso   1.000  C
  C103     1.0000 0.13950  0.40080  0.56846  Biso   1.000  C
  C104     1.0000 0.63950  0.90080  0.56846  Biso   1.000  C
  C105     1.0000 0.12980  0.66050  0.03053  Biso   1.000  C
  C106     1.0000 0.62980  0.16050  0.03053  Biso   1.000  C
  C107     1.0000 0.87020  0.66050  0.46947  Biso   1.000  C
  C108     1.0000 0.37020  0.16050  0.46947  Biso   1.000  C
  C109     1.0000 0.87020  0.33950  0.96947  Biso   1.000  C
  C110     1.0000 0.37020  0.83950  0.96947  Biso   1.000  C
  C111     1.0000 0.12980  0.33950  0.53053  Biso   1.000  C
  C112     1.0000 0.62980  0.83950  0.53053  Biso   1.000  C
  H57      1.0000 0.11670  0.72840  0.03300  Biso   1.000  H
  H58      1.0000 0.61670  0.22840  0.03300  Biso   1.000  H
  H59      1.0000 0.88330  0.72840  0.46700  Biso   1.000  H
  H60      1.0000 0.38330  0.22840  0.46700  Biso   1.000  H
  H61      1.0000 0.88330  0.27160  0.96700  Biso   1.000  H
  H62      1.0000 0.38330  0.77160  0.96700  Biso   1.000  H
  H63      1.0000 0.11670  0.27160  0.53300  Biso   1.000  H
  H64      1.0000 0.61670  0.77160  0.53300  Biso   1.000  H
  C113     1.0000 0.13960  0.61930  0.99023  Biso   1.000  C
  C114     1.0000 0.63960  0.11930  0.99023  Biso   1.000  C
  C115     1.0000 0.86040  0.61930  0.50977  Biso   1.000  C
  C116     1.0000 0.36040  0.11930  0.50977  Biso   1.000  C
  C117     1.0000 0.86040  0.38070  0.00977  Biso   1.000  C
  C118     1.0000 0.36040  0.88070  0.00977  Biso   1.000  C
  C119     1.0000 0.13960  0.38070  0.49023  Biso   1.000  C
  C120     1.0000 0.63960  0.88070  0.49023  Biso   1.000  C
  H65      1.0000 0.13210  0.65870  0.96440  Biso   1.000  H
  H66      1.0000 0.63210  0.15870  0.96440  Biso   1.000  H
  H67      1.0000 0.86790  0.65870  0.53560  Biso   1.000  H
  H68      1.0000 0.36790  0.15870  0.53560  Biso   1.000  H
  H69      1.0000 0.86790  0.34130  0.03560  Biso   1.000  H
  H70      1.0000 0.36790  0.84130  0.03560  Biso   1.000  H
  H71      1.0000 0.13210  0.34130  0.46440  Biso   1.000  H
  H72      1.0000 0.63210  0.84130  0.46440  Biso   1.000  H
  C121     1.0000 0.16100  0.51870  0.98726  Biso   1.000  C
  C122     1.0000 0.66100  0.01870  0.98726  Biso   1.000  C
  C123     1.0000 0.83900  0.51870  0.51274  Biso   1.000  C
  C124     1.0000 0.33900  0.01870  0.51274  Biso   1.000  C
  C125     1.0000 0.83900  0.48130  0.01274  Biso   1.000  C
  C126     1.0000 0.33900  0.98130  0.01274  Biso   1.000  C
  C127     1.0000 0.16100  0.48130  0.48726  Biso   1.000  C
  C128     1.0000 0.66100  0.98130  0.48726  Biso   1.000  C
  H73      1.0000 0.17020  0.48950  0.95980  Biso   1.000  H
  H74      1.0000 0.67020  0.98950  0.95980  Biso   1.000  H
  H75      1.0000 0.82980  0.48950  0.54020  Biso   1.000  H
  H76      1.0000 0.32980  0.98950  0.54020  Biso   1.000  H
  H77      1.0000 0.82980  0.51050  0.04020  Biso   1.000  H
  H78      1.0000 0.32980  0.01050  0.04020  Biso   1.000  H
  H79      1.0000 0.17020  0.51050  0.45980  Biso   1.000  H
  H80      1.0000 0.67020  0.01050  0.45980  Biso   1.000  H
  C129     1.0000 0.16820  0.46340  0.02588  Biso   1.000  C
  C130     1.0000 0.66820  0.96340  0.02588  Biso   1.000  C
  C131     1.0000 0.83180  0.46340  0.47412  Biso   1.000  C
  C132     1.0000 0.33180  0.96340  0.47412  Biso   1.000  C
  C133     1.0000 0.83180  0.53660  0.97412  Biso   1.000  C
  C134     1.0000 0.33180  0.03660  0.97412  Biso   1.000  C
  C135     1.0000 0.16820  0.53660  0.52588  Biso   1.000  C
  C136     1.0000 0.66820  0.03660  0.52588  Biso   1.000  C
  H81      1.0000 0.18150  0.39540  0.02400  Biso   1.000  H
  H82      1.0000 0.68150  0.89540  0.02400  Biso   1.000  H
  H83      1.0000 0.81850  0.39540  0.47600  Biso   1.000  H
  H84      1.0000 0.31850  0.89540  0.47600  Biso   1.000  H
  H85      1.0000 0.81850  0.60460  0.97600  Biso   1.000  H
  H86      1.0000 0.31850  0.10460  0.97600  Biso   1.000  H
  H87      1.0000 0.18150  0.60460  0.52400  Biso   1.000  H
  H88      1.0000 0.68150  0.10460  0.52400  Biso   1.000  H
  C137     1.0000 0.14590  0.41960  0.33111  Biso   1.000  C
  C138     1.0000 0.64590  0.91960  0.33111  Biso   1.000  C
  C139     1.0000 0.85410  0.41960  0.16889  Biso   1.000  C
  C140     1.0000 0.35410  0.91960  0.16889  Biso   1.000  C
  C141     1.0000 0.85410  0.58040  0.66889  Biso   1.000  C
  C142     1.0000 0.35410  0.08040  0.66889  Biso   1.000  C
  C143     1.0000 0.14590  0.58040  0.83111  Biso   1.000  C
  C144     1.0000 0.64590  0.08040  0.83111  Biso   1.000  C
  H89      1.0000 0.15910  0.35160  0.33430  Biso   1.000  H
  H90      1.0000 0.65910  0.85160  0.33430  Biso   1.000  H
  H91      1.0000 0.84090  0.35160  0.16570  Biso   1.000  H
  H92      1.0000 0.34090  0.85160  0.16570  Biso   1.000  H
  H93      1.0000 0.84090  0.64840  0.66570  Biso   1.000  H
  H94      1.0000 0.34090  0.14840  0.66570  Biso   1.000  H
  H95      1.0000 0.15910  0.64840  0.83430  Biso   1.000  H
  H96      1.0000 0.65910  0.14840  0.83430  Biso   1.000  H
  C145     1.0000 0.19560  0.47930  0.36465  Biso   1.000  C
  C146     1.0000 0.69560  0.97930  0.36465  Biso   1.000  C
  C147     1.0000 0.80440  0.47930  0.13535  Biso   1.000  C
  C148     1.0000 0.30440  0.97930  0.13535  Biso   1.000  C
  C149     1.0000 0.80440  0.52070  0.63535  Biso   1.000  C
  C150     1.0000 0.30440  0.02070  0.63535  Biso   1.000  C
  C151     1.0000 0.19560  0.52070  0.86465  Biso   1.000  C
  C152     1.0000 0.69560  0.02070  0.86465  Biso   1.000  C
  H97      1.0000 0.24340  0.45310  0.38990  Biso   1.000  H
  H98      1.0000 0.74340  0.95310  0.38990  Biso   1.000  H
  H99      1.0000 0.75660  0.45310  0.11010  Biso   1.000  H
  H100     1.0000 0.25660  0.95310  0.11010  Biso   1.000  H
  H101     1.0000 0.75660  0.54690  0.61010  Biso   1.000  H
  H102     1.0000 0.25660  0.04690  0.61010  Biso   1.000  H
  H103     1.0000 0.24340  0.54690  0.88990  Biso   1.000  H
  H104     1.0000 0.74340  0.04690  0.88990  Biso   1.000  H
  C153     1.0000 0.17460  0.57970  0.36108  Biso   1.000  C
  C154     1.0000 0.67460  0.07970  0.36108  Biso   1.000  C
  C155     1.0000 0.82540  0.57970  0.13892  Biso   1.000  C
  C156     1.0000 0.32540  0.07970  0.13892  Biso   1.000  C
  C157     1.0000 0.82540  0.42030  0.63892  Biso   1.000  C
  C158     1.0000 0.32540  0.92030  0.63892  Biso   1.000  C
  C159     1.0000 0.17460  0.42030  0.86108  Biso   1.000  C
  C160     1.0000 0.67460  0.92030  0.86108  Biso   1.000  C
  H105     1.0000 0.20550  0.62220  0.38440  Biso   1.000  H
  H106     1.0000 0.70550  0.12220  0.38440  Biso   1.000  H
  H107     1.0000 0.79450  0.62220  0.11560  Biso   1.000  H
  H108     1.0000 0.29450  0.12220  0.11560  Biso   1.000  H
  H109     1.0000 0.79450  0.37780  0.61560  Biso   1.000  H
  H110     1.0000 0.29450  0.87780  0.61560  Biso   1.000  H
  H111     1.0000 0.20550  0.37780  0.88440  Biso   1.000  H
  H112     1.0000 0.70550  0.87780  0.88440  Biso   1.000  H
  C161     1.0000 0.10830  0.61600  0.32310  Biso   1.000  C
  C162     1.0000 0.60830  0.11600  0.32310  Biso   1.000  C
  C163     1.0000 0.89170  0.61600  0.17690  Biso   1.000  C
  C164     1.0000 0.39170  0.11600  0.17690  Biso   1.000  C
  C165     1.0000 0.89170  0.38400  0.67690  Biso   1.000  C
  C166     1.0000 0.39170  0.88400  0.67690  Biso   1.000  C
  C167     1.0000 0.10830  0.38400  0.82310  Biso   1.000  C
  C168     1.0000 0.60830  0.88400  0.82310  Biso   1.000  C
  H113     1.0000 0.09420  0.68380  0.32000  Biso   1.000  H
  H114     1.0000 0.59420  0.18380  0.32000  Biso   1.000  H
  H115     1.0000 0.90580  0.68380  0.18000  Biso   1.000  H
  H116     1.0000 0.40580  0.18380  0.18000  Biso   1.000  H
  H117     1.0000 0.90580  0.31620  0.68000  Biso   1.000  H
  H118     1.0000 0.40580  0.81620  0.68000  Biso   1.000  H
  H119     1.0000 0.09420  0.31620  0.82000  Biso   1.000  H
  H120     1.0000 0.59420  0.81620  0.82000  Biso   1.000  H
  C169     1.0000 0.06090  0.55030  0.28834  Biso   1.000  C
  C170     1.0000 0.56090  0.05030  0.28834  Biso   1.000  C
  C171     1.0000 0.93910  0.55030  0.21166  Biso   1.000  C
  C172     1.0000 0.43910  0.05030  0.21166  Biso   1.000  C
  C173     1.0000 0.93910  0.44970  0.71166  Biso   1.000  C
  C174     1.0000 0.43910  0.94970  0.71166  Biso   1.000  C
  C175     1.0000 0.06090  0.44970  0.78834  Biso   1.000  C
  C176     1.0000 0.56090  0.94970  0.78834  Biso   1.000  C
  H121     1.0000 0.12400  0.70170  0.11090  Biso   1.000  H
  H122     1.0000 0.62400  0.20170  0.11090  Biso   1.000  H
  H123     1.0000 0.87600  0.70170  0.38910  Biso   1.000  H
  H124     1.0000 0.37600  0.20170  0.38910  Biso   1.000  H
  H125     1.0000 0.87600  0.29830  0.88910  Biso   1.000  H
  H126     1.0000 0.37600  0.79830  0.88910  Biso   1.000  H
  H127     1.0000 0.12400  0.29830  0.61090  Biso   1.000  H
  H128     1.0000 0.62400  0.79830  0.61090  Biso   1.000  H
  H129     1.0000 0.00000  0.65030  0.25000  Biso   1.000  H
  H130     1.0000 0.50000  0.15030  0.25000  Biso   1.000  H
  H131     1.0000 0.00000  0.34970  0.75000  Biso   1.000  H
  H132     1.0000 0.50000  0.84970  0.75000  Biso   1.000  H
  H133     1.0000 0.99900  0.82400  0.27380  Biso   1.000  H
  H134     1.0000 0.49900  0.32400  0.27380  Biso   1.000  H
  H135     1.0000 0.00100  0.82400  0.22620  Biso   1.000  H
  H136     1.0000 0.50100  0.32400  0.22620  Biso   1.000  H
  H137     1.0000 0.00100  0.17600  0.72620  Biso   1.000  H
  H138     1.0000 0.50100  0.67600  0.72620  Biso   1.000  H
  H139     1.0000 0.99900  0.17600  0.77380  Biso   1.000  H
  H140     1.0000 0.49900  0.67600  0.77380  Biso   1.000  H
