data_image0
_cell_length_a       18.319
_cell_length_b       14.366
_cell_length_c       26.75
_cell_angle_alpha    90
_cell_angle_beta     110.29
_cell_angle_gamma    90

_symmetry_space_group_name_H-M    "P 1"
_symmetry_int_tables_number       1

loop_
  _symmetry_equiv_pos_as_xyz
  'x, y, z'

loop_
  _atom_site_label
  _atom_site_occupancy
  _atom_site_fract_x
  _atom_site_fract_y
  _atom_site_fract_z
  _atom_site_thermal_displace_type
  _atom_site_B_iso_or_equiv
  _atom_site_type_symbol
  Cu1      1.0000 0.79946  0.52504  0.31836  Biso   1.000  Cu
  Cu2      1.0000 0.20054  0.52504  0.18164  Biso   1.000  Cu
  Cu3      1.0000 0.29946  0.02504  0.31836  Biso   1.000  Cu
  Cu4      1.0000 0.70054  0.02504  0.18164  Biso   1.000  Cu
  Cu5      1.0000 0.20054  0.47496  0.68164  Biso   1.000  Cu
  Cu6      1.0000 0.79946  0.47496  0.81836  Biso   1.000  Cu
  Cu7      1.0000 0.70054  0.97496  0.68164  Biso   1.000  Cu
  Cu8      1.0000 0.29946  0.97496  0.81836  Biso   1.000  Cu
  S1       1.0000 0.78487  0.76774  0.36104  Biso   1.000  S
  S2       1.0000 0.21513  0.76774  0.13896  Biso   1.000  S
  S3       1.0000 0.28487  0.26774  0.36104  Biso   1.000  S
  S4       1.0000 0.71513  0.26774  0.13896  Biso   1.000  S
  S5       1.0000 0.21513  0.23226  0.63896  Biso   1.000  S
  S6       1.0000 0.78487  0.23226  0.86104  Biso   1.000  S
  S7       1.0000 0.71513  0.73226  0.63896  Biso   1.000  S
  S8       1.0000 0.28487  0.73226  0.86104  Biso   1.000  S
  O1       1.0000 0.80620  0.67740  0.34840  Biso   1.000  O
  O2       1.0000 0.19380  0.67740  0.15160  Biso   1.000  O
  O3       1.0000 0.30620  0.17740  0.34840  Biso   1.000  O
  O4       1.0000 0.69380  0.17740  0.15160  Biso   1.000  O
  O5       1.0000 0.19380  0.32260  0.65160  Biso   1.000  O
  O6       1.0000 0.80620  0.32260  0.84840  Biso   1.000  O
  O7       1.0000 0.69380  0.82260  0.65160  Biso   1.000  O
  O8       1.0000 0.30620  0.82260  0.84840  Biso   1.000  O
  O9       1.0000 0.76680  0.82270  0.31400  Biso   1.000  O
  O10      1.0000 0.23320  0.82270  0.18600  Biso   1.000  O
  O11      1.0000 0.26680  0.32270  0.31400  Biso   1.000  O
  O12      1.0000 0.73320  0.32270  0.18600  Biso   1.000  O
  O13      1.0000 0.23320  0.17730  0.68600  Biso   1.000  O
  O14      1.0000 0.76680  0.17730  0.81400  Biso   1.000  O
  O15      1.0000 0.73320  0.67730  0.68600  Biso   1.000  O
  O16      1.0000 0.26680  0.67730  0.81400  Biso   1.000  O
  O17      1.0000 0.72100  0.76070  0.38040  Biso   1.000  O
  O18      1.0000 0.27900  0.76070  0.11960  Biso   1.000  O
  O19      1.0000 0.22100  0.26070  0.38040  Biso   1.000  O
  O20      1.0000 0.77900  0.26070  0.11960  Biso   1.000  O
  O21      1.0000 0.27900  0.23930  0.61960  Biso   1.000  O
  O22      1.0000 0.72100  0.23930  0.88040  Biso   1.000  O
  O23      1.0000 0.77900  0.73930  0.61960  Biso   1.000  O
  O24      1.0000 0.22100  0.73930  0.88040  Biso   1.000  O
  O25      1.0000 0.85210  0.80950  0.40230  Biso   1.000  O
  O26      1.0000 0.14790  0.80950  0.09770  Biso   1.000  O
  O27      1.0000 0.35210  0.30950  0.40230  Biso   1.000  O
  O28      1.0000 0.64790  0.30950  0.09770  Biso   1.000  O
  O29      1.0000 0.14790  0.19050  0.59770  Biso   1.000  O
  O30      1.0000 0.85210  0.19050  0.90230  Biso   1.000  O
  O31      1.0000 0.64790  0.69050  0.59770  Biso   1.000  O
  O32      1.0000 0.35210  0.69050  0.90230  Biso   1.000  O
  N1       1.0000 0.71100  0.39080  0.42340  Biso   1.000  N
  N2       1.0000 0.28900  0.39080  0.07660  Biso   1.000  N
  N3       1.0000 0.21100  0.89080  0.42340  Biso   1.000  N
  N4       1.0000 0.78900  0.89080  0.07660  Biso   1.000  N
  N5       1.0000 0.28900  0.60920  0.57660  Biso   1.000  N
  N6       1.0000 0.71100  0.60920  0.92340  Biso   1.000  N
  N7       1.0000 0.78900  0.10920  0.57660  Biso   1.000  N
  N8       1.0000 0.21100  0.10920  0.92340  Biso   1.000  N
  N9       1.0000 0.76150  0.48340  0.37460  Biso   1.000  N
  N10      1.0000 0.23850  0.48340  0.12540  Biso   1.000  N
  N11      1.0000 0.26150  0.98340  0.37460  Biso   1.000  N
  N12      1.0000 0.73850  0.98340  0.12540  Biso   1.000  N
  N13      1.0000 0.23850  0.51660  0.62540  Biso   1.000  N
  N14      1.0000 0.76150  0.51660  0.87460  Biso   1.000  N
  N15      1.0000 0.73850  0.01660  0.62540  Biso   1.000  N
  N16      1.0000 0.26150  0.01660  0.87460  Biso   1.000  N
  N17      1.0000 0.51960  0.02510  0.43480  Biso   1.000  N
  N18      1.0000 0.48040  0.02510  0.06520  Biso   1.000  N
  N19      1.0000 0.01960  0.52510  0.43480  Biso   1.000  N
  N20      1.0000 0.98040  0.52510  0.06520  Biso   1.000  N
  N21      1.0000 0.48040  0.97490  0.56520  Biso   1.000  N
  N22      1.0000 0.51960  0.97490  0.93480  Biso   1.000  N
  N23      1.0000 0.98040  0.47490  0.56520  Biso   1.000  N
  N24      1.0000 0.01960  0.47490  0.93480  Biso   1.000  N
  N25      1.0000 0.41020  0.00700  0.36780  Biso   1.000  N
  N26      1.0000 0.58980  0.00700  0.13220  Biso   1.000  N
  N27      1.0000 0.91020  0.50700  0.36780  Biso   1.000  N
  N28      1.0000 0.08980  0.50700  0.13220  Biso   1.000  N
  N29      1.0000 0.58980  0.99300  0.63220  Biso   1.000  N
  N30      1.0000 0.41020  0.99300  0.86780  Biso   1.000  N
  N31      1.0000 0.08980  0.49300  0.63220  Biso   1.000  N
  N32      1.0000 0.91020  0.49300  0.86780  Biso   1.000  N
  N33      1.0000 0.88930  0.64580  0.21100  Biso   1.000  N
  N34      1.0000 0.11070  0.64580  0.28900  Biso   1.000  N
  N35      1.0000 0.38930  0.14580  0.21100  Biso   1.000  N
  N36      1.0000 0.61070  0.14580  0.28900  Biso   1.000  N
  N37      1.0000 0.11070  0.35420  0.78900  Biso   1.000  N
  N38      1.0000 0.88930  0.35420  0.71100  Biso   1.000  N
  N39      1.0000 0.61070  0.85420  0.78900  Biso   1.000  N
  N40      1.0000 0.38930  0.85420  0.71100  Biso   1.000  N
  N41      1.0000 0.83860  0.55930  0.25920  Biso   1.000  N
  N42      1.0000 0.16140  0.55930  0.24080  Biso   1.000  N
  N43      1.0000 0.33860  0.05930  0.25920  Biso   1.000  N
  N44      1.0000 0.66140  0.05930  0.24080  Biso   1.000  N
  N45      1.0000 0.16140  0.44070  0.74080  Biso   1.000  N
  N46      1.0000 0.83860  0.44070  0.75920  Biso   1.000  N
  N47      1.0000 0.66140  0.94070  0.74080  Biso   1.000  N
  N48      1.0000 0.33860  0.94070  0.75920  Biso   1.000  N
  N49      1.0000 0.08490  0.00970  0.19680  Biso   1.000  N
  N50      1.0000 0.91510  0.00970  0.30320  Biso   1.000  N
  N51      1.0000 0.58490  0.50970  0.19680  Biso   1.000  N
  N52      1.0000 0.41510  0.50970  0.30320  Biso   1.000  N
  N53      1.0000 0.91510  0.99030  0.80320  Biso   1.000  N
  N54      1.0000 0.08490  0.99030  0.69680  Biso   1.000  N
  N55      1.0000 0.41510  0.49030  0.80320  Biso   1.000  N
  N56      1.0000 0.58490  0.49030  0.69680  Biso   1.000  N
  N57      1.0000 0.19080  0.03580  0.26620  Biso   1.000  N
  N58      1.0000 0.80920  0.03580  0.23380  Biso   1.000  N
  N59      1.0000 0.69080  0.53580  0.26620  Biso   1.000  N
  N60      1.0000 0.30920  0.53580  0.23380  Biso   1.000  N
  N61      1.0000 0.80920  0.96420  0.73380  Biso   1.000  N
  N62      1.0000 0.19080  0.96420  0.76620  Biso   1.000  N
  N63      1.0000 0.30920  0.46420  0.73380  Biso   1.000  N
  N64      1.0000 0.69080  0.46420  0.76620  Biso   1.000  N
  C1       1.0000 0.68040  0.30780  0.44030  Biso   1.000  C
  C2       1.0000 0.31960  0.30780  0.05970  Biso   1.000  C
  C3       1.0000 0.18040  0.80780  0.44030  Biso   1.000  C
  C4       1.0000 0.81960  0.80780  0.05970  Biso   1.000  C
  C5       1.0000 0.31960  0.69220  0.55970  Biso   1.000  C
  C6       1.0000 0.68040  0.69220  0.94030  Biso   1.000  C
  C7       1.0000 0.81960  0.19220  0.55970  Biso   1.000  C
  C8       1.0000 0.18040  0.19220  0.94030  Biso   1.000  C
  C9       1.0000 0.70450  0.22180  0.43120  Biso   1.000  C
  C10      1.0000 0.29550  0.22180  0.06880  Biso   1.000  C
  C11      1.0000 0.20450  0.72180  0.43120  Biso   1.000  C
  C12      1.0000 0.79550  0.72180  0.06880  Biso   1.000  C
  C13      1.0000 0.29550  0.77820  0.56880  Biso   1.000  C
  C14      1.0000 0.70450  0.77820  0.93120  Biso   1.000  C
  C15      1.0000 0.79550  0.27820  0.56880  Biso   1.000  C
  C16      1.0000 0.20450  0.27820  0.93120  Biso   1.000  C
  H1       1.0000 0.74330  0.21600  0.41540  Biso   1.000  H
  H2       1.0000 0.25670  0.21600  0.08460  Biso   1.000  H
  H3       1.0000 0.24330  0.71600  0.41540  Biso   1.000  H
  H4       1.0000 0.75670  0.71600  0.08460  Biso   1.000  H
  H5       1.0000 0.25670  0.78400  0.58460  Biso   1.000  H
  H6       1.0000 0.74330  0.78400  0.91540  Biso   1.000  H
  H7       1.0000 0.75670  0.28400  0.58460  Biso   1.000  H
  H8       1.0000 0.24330  0.28400  0.91540  Biso   1.000  H
  C17      1.0000 0.67250  0.14250  0.44520  Biso   1.000  C
  C18      1.0000 0.32750  0.14250  0.05480  Biso   1.000  C
  C19      1.0000 0.17250  0.64250  0.44520  Biso   1.000  C
  C20      1.0000 0.82750  0.64250  0.05480  Biso   1.000  C
  C21      1.0000 0.32750  0.85750  0.55480  Biso   1.000  C
  C22      1.0000 0.67250  0.85750  0.94520  Biso   1.000  C
  C23      1.0000 0.82750  0.35750  0.55480  Biso   1.000  C
  C24      1.0000 0.17250  0.35750  0.94520  Biso   1.000  C
  H9       1.0000 0.68880  0.08240  0.43840  Biso   1.000  H
  H10      1.0000 0.31120  0.08240  0.06160  Biso   1.000  H
  H11      1.0000 0.18880  0.58240  0.43840  Biso   1.000  H
  H12      1.0000 0.81120  0.58240  0.06160  Biso   1.000  H
  H13      1.0000 0.31120  0.91760  0.56160  Biso   1.000  H
  H14      1.0000 0.68880  0.91760  0.93840  Biso   1.000  H
  H15      1.0000 0.81120  0.41760  0.56160  Biso   1.000  H
  H16      1.0000 0.18880  0.41760  0.93840  Biso   1.000  H
  C25      1.0000 0.61670  0.15140  0.46920  Biso   1.000  C
  C26      1.0000 0.38330  0.15140  0.03080  Biso   1.000  C
  C27      1.0000 0.11670  0.65140  0.46920  Biso   1.000  C
  C28      1.0000 0.88330  0.65140  0.03080  Biso   1.000  C
  C29      1.0000 0.38330  0.84860  0.53080  Biso   1.000  C
  C30      1.0000 0.61670  0.84860  0.96920  Biso   1.000  C
  C31      1.0000 0.88330  0.34860  0.53080  Biso   1.000  C
  C32      1.0000 0.11670  0.34860  0.96920  Biso   1.000  C
  C33      1.0000 0.59440  0.23860  0.47920  Biso   1.000  C
  C34      1.0000 0.40560  0.23860  0.02080  Biso   1.000  C
  C35      1.0000 0.09440  0.73860  0.47920  Biso   1.000  C
  C36      1.0000 0.90560  0.73860  0.02080  Biso   1.000  C
  C37      1.0000 0.40560  0.76140  0.52080  Biso   1.000  C
  C38      1.0000 0.59440  0.76140  0.97920  Biso   1.000  C
  C39      1.0000 0.90560  0.26140  0.52080  Biso   1.000  C
  C40      1.0000 0.09440  0.26140  0.97920  Biso   1.000  C
  H17      1.0000 0.55700  0.24540  0.49620  Biso   1.000  H
  H18      1.0000 0.44300  0.24540  0.00380  Biso   1.000  H
  H19      1.0000 0.05700  0.74540  0.49620  Biso   1.000  H
  H20      1.0000 0.94300  0.74540  0.00380  Biso   1.000  H
  H21      1.0000 0.44300  0.75460  0.50380  Biso   1.000  H
  H22      1.0000 0.55700  0.75460  0.99620  Biso   1.000  H
  H23      1.0000 0.94300  0.25460  0.50380  Biso   1.000  H
  H24      1.0000 0.05700  0.25460  0.99620  Biso   1.000  H
  C41      1.0000 0.62640  0.31660  0.46480  Biso   1.000  C
  C42      1.0000 0.37360  0.31660  0.03520  Biso   1.000  C
  C43      1.0000 0.12640  0.81660  0.46480  Biso   1.000  C
  C44      1.0000 0.87360  0.81660  0.03520  Biso   1.000  C
  C45      1.0000 0.37360  0.68340  0.53520  Biso   1.000  C
  C46      1.0000 0.62640  0.68340  0.96480  Biso   1.000  C
  C47      1.0000 0.87360  0.18340  0.53520  Biso   1.000  C
  C48      1.0000 0.12640  0.18340  0.96480  Biso   1.000  C
  H25      1.0000 0.61100  0.37660  0.47180  Biso   1.000  H
  H26      1.0000 0.38900  0.37660  0.02820  Biso   1.000  H
  H27      1.0000 0.11100  0.87660  0.47180  Biso   1.000  H
  H28      1.0000 0.88900  0.87660  0.02820  Biso   1.000  H
  H29      1.0000 0.38900  0.62340  0.52820  Biso   1.000  H
  H30      1.0000 0.61100  0.62340  0.97180  Biso   1.000  H
  H31      1.0000 0.88900  0.12340  0.52820  Biso   1.000  H
  H32      1.0000 0.11100  0.12340  0.97180  Biso   1.000  H
  C49      1.0000 0.74920  0.39400  0.38820  Biso   1.000  C
  C50      1.0000 0.25080  0.39400  0.11180  Biso   1.000  C
  C51      1.0000 0.24920  0.89400  0.38820  Biso   1.000  C
  C52      1.0000 0.75080  0.89400  0.11180  Biso   1.000  C
  C53      1.0000 0.25080  0.60600  0.61180  Biso   1.000  C
  C54      1.0000 0.74920  0.60600  0.88820  Biso   1.000  C
  C55      1.0000 0.75080  0.10600  0.61180  Biso   1.000  C
  C56      1.0000 0.24920  0.10600  0.88820  Biso   1.000  C
  H33      1.0000 0.76560  0.34020  0.37450  Biso   1.000  H
  H34      1.0000 0.23440  0.34020  0.12550  Biso   1.000  H
  H35      1.0000 0.26560  0.84020  0.37450  Biso   1.000  H
  H36      1.0000 0.73440  0.84020  0.12550  Biso   1.000  H
  H37      1.0000 0.23440  0.65980  0.62550  Biso   1.000  H
  H38      1.0000 0.76560  0.65980  0.87450  Biso   1.000  H
  H39      1.0000 0.73440  0.15980  0.62550  Biso   1.000  H
  H40      1.0000 0.26560  0.15980  0.87450  Biso   1.000  H
  C57      1.0000 0.72660  0.53500  0.40390  Biso   1.000  C
  C58      1.0000 0.27340  0.53500  0.09610  Biso   1.000  C
  C59      1.0000 0.22660  0.03500  0.40390  Biso   1.000  C
  C60      1.0000 0.77340  0.03500  0.09610  Biso   1.000  C
  C61      1.0000 0.27340  0.46500  0.59610  Biso   1.000  C
  C62      1.0000 0.72660  0.46500  0.90390  Biso   1.000  C
  C63      1.0000 0.77340  0.96500  0.59610  Biso   1.000  C
  C64      1.0000 0.22660  0.96500  0.90390  Biso   1.000  C
  H41      1.0000 0.72490  0.60090  0.40390  Biso   1.000  H
  H42      1.0000 0.27510  0.60090  0.09610  Biso   1.000  H
  H43      1.0000 0.22490  0.10090  0.40390  Biso   1.000  H
  H44      1.0000 0.77510  0.10090  0.09610  Biso   1.000  H
  H45      1.0000 0.27510  0.39910  0.59610  Biso   1.000  H
  H46      1.0000 0.72490  0.39910  0.90390  Biso   1.000  H
  H47      1.0000 0.77510  0.89910  0.59610  Biso   1.000  H
  H48      1.0000 0.22490  0.89910  0.90390  Biso   1.000  H
  C65      1.0000 0.69540  0.48000  0.43300  Biso   1.000  C
  C66      1.0000 0.30460  0.48000  0.06700  Biso   1.000  C
  C67      1.0000 0.19540  0.98000  0.43300  Biso   1.000  C
  C68      1.0000 0.80460  0.98000  0.06700  Biso   1.000  C
  C69      1.0000 0.30460  0.52000  0.56700  Biso   1.000  C
  C70      1.0000 0.69540  0.52000  0.93300  Biso   1.000  C
  C71      1.0000 0.80460  0.02000  0.56700  Biso   1.000  C
  C72      1.0000 0.19540  0.02000  0.93300  Biso   1.000  C
  H49      1.0000 0.66800  0.50020  0.45540  Biso   1.000  H
  H50      1.0000 0.33200  0.50020  0.04460  Biso   1.000  H
  H51      1.0000 0.16800  0.00020  0.45540  Biso   1.000  H
  H52      1.0000 0.83200  0.00020  0.04460  Biso   1.000  H
  H53      1.0000 0.33200  0.49980  0.54460  Biso   1.000  H
  H54      1.0000 0.66800  0.49980  0.95540  Biso   1.000  H
  H55      1.0000 0.83200  0.99980  0.54460  Biso   1.000  H
  H56      1.0000 0.16800  0.99980  0.95540  Biso   1.000  H
  C73      1.0000 0.57800  0.06590  0.48220  Biso   1.000  C
  C74      1.0000 0.42200  0.06590  0.01780  Biso   1.000  C
  C75      1.0000 0.07800  0.56590  0.48220  Biso   1.000  C
  C76      1.0000 0.92200  0.56590  0.01780  Biso   1.000  C
  C77      1.0000 0.42200  0.93410  0.51780  Biso   1.000  C
  C78      1.0000 0.57800  0.93410  0.98220  Biso   1.000  C
  C79      1.0000 0.92200  0.43410  0.51780  Biso   1.000  C
  C80      1.0000 0.07800  0.43410  0.98220  Biso   1.000  C
  H57      1.0000 0.61840  0.01860  0.49920  Biso   1.000  H
  H58      1.0000 0.38160  0.01860  0.00080  Biso   1.000  H
  H59      1.0000 0.11840  0.51860  0.49920  Biso   1.000  H
  H60      1.0000 0.88160  0.51860  0.00080  Biso   1.000  H
  H61      1.0000 0.38160  0.98140  0.50080  Biso   1.000  H
  H62      1.0000 0.61840  0.98140  0.99920  Biso   1.000  H
  H63      1.0000 0.88160  0.48140  0.50080  Biso   1.000  H
  H64      1.0000 0.11840  0.48140  0.99920  Biso   1.000  H
  H65      1.0000 0.55280  0.08310  0.50820  Biso   1.000  H
  H66      1.0000 0.44720  0.08310  0.99180  Biso   1.000  H
  H67      1.0000 0.05280  0.58310  0.50820  Biso   1.000  H
  H68      1.0000 0.94720  0.58310  0.99180  Biso   1.000  H
  H69      1.0000 0.44720  0.91690  0.49180  Biso   1.000  H
  H70      1.0000 0.55280  0.91690  0.00820  Biso   1.000  H
  H71      1.0000 0.94720  0.41690  0.49180  Biso   1.000  H
  H72      1.0000 0.05280  0.41690  0.00820  Biso   1.000  H
  C81      1.0000 0.44580  0.05630  0.41040  Biso   1.000  C
  C82      1.0000 0.55420  0.05630  0.08960  Biso   1.000  C
  C83      1.0000 0.94580  0.55630  0.41040  Biso   1.000  C
  C84      1.0000 0.05420  0.55630  0.08960  Biso   1.000  C
  C85      1.0000 0.55420  0.94370  0.58960  Biso   1.000  C
  C86      1.0000 0.44580  0.94370  0.91040  Biso   1.000  C
  C87      1.0000 0.05420  0.44370  0.58960  Biso   1.000  C
  C88      1.0000 0.94580  0.44370  0.91040  Biso   1.000  C
  H73      1.0000 0.42320  0.10690  0.42240  Biso   1.000  H
  H74      1.0000 0.57680  0.10690  0.07760  Biso   1.000  H
  H75      1.0000 0.92320  0.60690  0.42240  Biso   1.000  H
  H76      1.0000 0.07680  0.60690  0.07760  Biso   1.000  H
  H77      1.0000 0.57680  0.89310  0.57760  Biso   1.000  H
  H78      1.0000 0.42320  0.89310  0.92240  Biso   1.000  H
  H79      1.0000 0.07680  0.39310  0.57760  Biso   1.000  H
  H80      1.0000 0.92320  0.39310  0.92240  Biso   1.000  H
  C89      1.0000 0.46360  0.94260  0.36440  Biso   1.000  C
  C90      1.0000 0.53640  0.94260  0.13560  Biso   1.000  C
  C91      1.0000 0.96360  0.44260  0.36440  Biso   1.000  C
  C92      1.0000 0.03640  0.44260  0.13560  Biso   1.000  C
  C93      1.0000 0.53640  0.05740  0.63560  Biso   1.000  C
  C94      1.0000 0.46360  0.05740  0.86440  Biso   1.000  C
  C95      1.0000 0.03640  0.55740  0.63560  Biso   1.000  C
  C96      1.0000 0.96360  0.55740  0.86440  Biso   1.000  C
  H81      1.0000 0.45400  0.89660  0.33740  Biso   1.000  H
  H82      1.0000 0.54600  0.89660  0.16260  Biso   1.000  H
  H83      1.0000 0.95400  0.39660  0.33740  Biso   1.000  H
  H84      1.0000 0.04600  0.39660  0.16260  Biso   1.000  H
  H85      1.0000 0.54600  0.10340  0.66260  Biso   1.000  H
  H86      1.0000 0.45400  0.10340  0.83740  Biso   1.000  H
  H87      1.0000 0.04600  0.60340  0.66260  Biso   1.000  H
  H88      1.0000 0.95400  0.60340  0.83740  Biso   1.000  H
  C97      1.0000 0.53100  0.95440  0.40460  Biso   1.000  C
  C98      1.0000 0.46900  0.95440  0.09540  Biso   1.000  C
  C99      1.0000 0.03100  0.45440  0.40460  Biso   1.000  C
  C100     1.0000 0.96900  0.45440  0.09540  Biso   1.000  C
  C101     1.0000 0.46900  0.04560  0.59540  Biso   1.000  C
  C102     1.0000 0.53100  0.04560  0.90460  Biso   1.000  C
  C103     1.0000 0.96900  0.54560  0.59540  Biso   1.000  C
  C104     1.0000 0.03100  0.54560  0.90460  Biso   1.000  C
  H89      1.0000 0.57760  0.92040  0.41090  Biso   1.000  H
  H90      1.0000 0.42240  0.92040  0.08910  Biso   1.000  H
  H91      1.0000 0.07760  0.42040  0.41090  Biso   1.000  H
  H92      1.0000 0.92240  0.42040  0.08910  Biso   1.000  H
  H93      1.0000 0.42240  0.07960  0.58910  Biso   1.000  H
  H94      1.0000 0.57760  0.07960  0.91090  Biso   1.000  H
  H95      1.0000 0.92240  0.57960  0.58910  Biso   1.000  H
  H96      1.0000 0.07760  0.57960  0.91090  Biso   1.000  H
  C105     1.0000 0.92240  0.72480  0.19440  Biso   1.000  C
  C106     1.0000 0.07760  0.72480  0.30560  Biso   1.000  C
  C107     1.0000 0.42240  0.22480  0.19440  Biso   1.000  C
  C108     1.0000 0.57760  0.22480  0.30560  Biso   1.000  C
  C109     1.0000 0.07760  0.27520  0.80560  Biso   1.000  C
  C110     1.0000 0.92240  0.27520  0.69440  Biso   1.000  C
  C111     1.0000 0.57760  0.77520  0.80560  Biso   1.000  C
  C112     1.0000 0.42240  0.77520  0.69440  Biso   1.000  C
  C113     1.0000 0.97820  0.71260  0.17000  Biso   1.000  C
  C114     1.0000 0.02180  0.71260  0.33000  Biso   1.000  C
  C115     1.0000 0.47820  0.21260  0.17000  Biso   1.000  C
  C116     1.0000 0.52180  0.21260  0.33000  Biso   1.000  C
  C117     1.0000 0.02180  0.28740  0.83000  Biso   1.000  C
  C118     1.0000 0.97820  0.28740  0.67000  Biso   1.000  C
  C119     1.0000 0.52180  0.78740  0.83000  Biso   1.000  C
  C120     1.0000 0.47820  0.78740  0.67000  Biso   1.000  C
  H97      1.0000 0.99340  0.65180  0.16360  Biso   1.000  H
  H98      1.0000 0.00660  0.65180  0.33640  Biso   1.000  H
  H99      1.0000 0.49340  0.15180  0.16360  Biso   1.000  H
  H100     1.0000 0.50660  0.15180  0.33640  Biso   1.000  H
  H101     1.0000 0.00660  0.34820  0.83640  Biso   1.000  H
  H102     1.0000 0.99340  0.34820  0.66360  Biso   1.000  H
  H103     1.0000 0.50660  0.84820  0.83640  Biso   1.000  H
  H104     1.0000 0.49340  0.84820  0.66360  Biso   1.000  H
  C121     1.0000 0.01140  0.78990  0.15540  Biso   1.000  C
  C122     1.0000 0.98860  0.78990  0.34460  Biso   1.000  C
  C123     1.0000 0.51140  0.28990  0.15540  Biso   1.000  C
  C124     1.0000 0.48860  0.28990  0.34460  Biso   1.000  C
  C125     1.0000 0.98860  0.21010  0.84460  Biso   1.000  C
  C126     1.0000 0.01140  0.21010  0.65540  Biso   1.000  C
  C127     1.0000 0.48860  0.71010  0.84460  Biso   1.000  C
  C128     1.0000 0.51140  0.71010  0.65540  Biso   1.000  C
  H105     1.0000 0.04840  0.78180  0.13820  Biso   1.000  H
  H106     1.0000 0.95160  0.78180  0.36180  Biso   1.000  H
  H107     1.0000 0.54840  0.28180  0.13820  Biso   1.000  H
  H108     1.0000 0.45160  0.28180  0.36180  Biso   1.000  H
  H109     1.0000 0.95160  0.21820  0.86180  Biso   1.000  H
  H110     1.0000 0.04840  0.21820  0.63820  Biso   1.000  H
  H111     1.0000 0.45160  0.71820  0.86180  Biso   1.000  H
  H112     1.0000 0.54840  0.71820  0.63820  Biso   1.000  H
  C129     1.0000 0.99080  0.87960  0.16560  Biso   1.000  C
  C130     1.0000 0.00920  0.87960  0.33440  Biso   1.000  C
  C131     1.0000 0.49080  0.37960  0.16560  Biso   1.000  C
  C132     1.0000 0.50920  0.37960  0.33440  Biso   1.000  C
  C133     1.0000 0.00920  0.12040  0.83440  Biso   1.000  C
  C134     1.0000 0.99080  0.12040  0.66560  Biso   1.000  C
  C135     1.0000 0.50920  0.62040  0.83440  Biso   1.000  C
  C136     1.0000 0.49080  0.62040  0.66560  Biso   1.000  C
  C137     1.0000 0.93390  0.89060  0.18840  Biso   1.000  C
  C138     1.0000 0.06610  0.89060  0.31160  Biso   1.000  C
  C139     1.0000 0.43390  0.39060  0.18840  Biso   1.000  C
  C140     1.0000 0.56610  0.39060  0.31160  Biso   1.000  C
  C141     1.0000 0.06610  0.10940  0.81160  Biso   1.000  C
  C142     1.0000 0.93390  0.10940  0.68840  Biso   1.000  C
  C143     1.0000 0.56610  0.60940  0.81160  Biso   1.000  C
  C144     1.0000 0.43390  0.60940  0.68840  Biso   1.000  C
  H113     1.0000 0.91760  0.95120  0.19400  Biso   1.000  H
  H114     1.0000 0.08240  0.95120  0.30600  Biso   1.000  H
  H115     1.0000 0.41760  0.45120  0.19400  Biso   1.000  H
  H116     1.0000 0.58240  0.45120  0.30600  Biso   1.000  H
  H117     1.0000 0.08240  0.04880  0.80600  Biso   1.000  H
  H118     1.0000 0.91760  0.04880  0.69400  Biso   1.000  H
  H119     1.0000 0.58240  0.54880  0.80600  Biso   1.000  H
  H120     1.0000 0.41760  0.54880  0.69400  Biso   1.000  H
  C145     1.0000 0.90040  0.81240  0.20350  Biso   1.000  C
  C146     1.0000 0.09960  0.81240  0.29650  Biso   1.000  C
  C147     1.0000 0.40040  0.31240  0.20350  Biso   1.000  C
  C148     1.0000 0.59960  0.31240  0.29650  Biso   1.000  C
  C149     1.0000 0.09960  0.18760  0.79650  Biso   1.000  C
  C150     1.0000 0.90040  0.18760  0.70350  Biso   1.000  C
  C151     1.0000 0.59960  0.68760  0.79650  Biso   1.000  C
  C152     1.0000 0.40040  0.68760  0.70350  Biso   1.000  C
  H121     1.0000 0.86250  0.82040  0.22000  Biso   1.000  H
  H122     1.0000 0.13750  0.82040  0.28000  Biso   1.000  H
  H123     1.0000 0.36250  0.32040  0.22000  Biso   1.000  H
  H124     1.0000 0.63750  0.32040  0.28000  Biso   1.000  H
  H125     1.0000 0.13750  0.17960  0.78000  Biso   1.000  H
  H126     1.0000 0.86250  0.17960  0.72000  Biso   1.000  H
  H127     1.0000 0.63750  0.67960  0.78000  Biso   1.000  H
  H128     1.0000 0.36250  0.67960  0.72000  Biso   1.000  H
  C153     1.0000 0.85780  0.64460  0.25020  Biso   1.000  C
  C154     1.0000 0.14220  0.64460  0.24980  Biso   1.000  C
  C155     1.0000 0.35780  0.14460  0.25020  Biso   1.000  C
  C156     1.0000 0.64220  0.14460  0.24980  Biso   1.000  C
  C157     1.0000 0.14220  0.35540  0.74980  Biso   1.000  C
  C158     1.0000 0.85780  0.35540  0.75020  Biso   1.000  C
  C159     1.0000 0.64220  0.85540  0.74980  Biso   1.000  C
  C160     1.0000 0.35780  0.85540  0.75020  Biso   1.000  C
  H129     1.0000 0.85070  0.69830  0.26880  Biso   1.000  H
  H130     1.0000 0.14930  0.69830  0.23120  Biso   1.000  H
  H131     1.0000 0.35070  0.19830  0.26880  Biso   1.000  H
  H132     1.0000 0.64930  0.19830  0.23120  Biso   1.000  H
  H133     1.0000 0.14930  0.30170  0.73120  Biso   1.000  H
  H134     1.0000 0.85070  0.30170  0.76880  Biso   1.000  H
  H135     1.0000 0.64930  0.80170  0.73120  Biso   1.000  H
  H136     1.0000 0.35070  0.80170  0.76880  Biso   1.000  H
  C161     1.0000 0.86040  0.50450  0.22460  Biso   1.000  C
  C162     1.0000 0.13960  0.50450  0.27540  Biso   1.000  C
  C163     1.0000 0.36040  0.00450  0.22460  Biso   1.000  C
  C164     1.0000 0.63960  0.00450  0.27540  Biso   1.000  C
  C165     1.0000 0.13960  0.49550  0.77540  Biso   1.000  C
  C166     1.0000 0.86040  0.49550  0.72460  Biso   1.000  C
  C167     1.0000 0.63960  0.99550  0.77540  Biso   1.000  C
  C168     1.0000 0.36040  0.99550  0.72460  Biso   1.000  C
  H137     1.0000 0.85340  0.43920  0.22180  Biso   1.000  H
  H138     1.0000 0.14660  0.43920  0.27820  Biso   1.000  H
  H139     1.0000 0.35340  0.93920  0.22180  Biso   1.000  H
  H140     1.0000 0.64660  0.93920  0.27820  Biso   1.000  H
  H141     1.0000 0.14660  0.56080  0.77820  Biso   1.000  H
  H142     1.0000 0.85340  0.56080  0.72180  Biso   1.000  H
  H143     1.0000 0.64660  0.06080  0.77820  Biso   1.000  H
  H144     1.0000 0.35340  0.06080  0.72180  Biso   1.000  H
  C169     1.0000 0.89170  0.55480  0.19560  Biso   1.000  C
  C170     1.0000 0.10830  0.55480  0.30440  Biso   1.000  C
  C171     1.0000 0.39170  0.05480  0.19560  Biso   1.000  C
  C172     1.0000 0.60830  0.05480  0.30440  Biso   1.000  C
  C173     1.0000 0.10830  0.44520  0.80440  Biso   1.000  C
  C174     1.0000 0.89170  0.44520  0.69560  Biso   1.000  C
  C175     1.0000 0.60830  0.94520  0.80440  Biso   1.000  C
  C176     1.0000 0.39170  0.94520  0.69560  Biso   1.000  C
  H145     1.0000 0.91160  0.53240  0.16950  Biso   1.000  H
  H146     1.0000 0.08840  0.53240  0.33050  Biso   1.000  H
  H147     1.0000 0.41160  0.03240  0.16950  Biso   1.000  H
  H148     1.0000 0.58840  0.03240  0.33050  Biso   1.000  H
  H149     1.0000 0.08840  0.46760  0.83050  Biso   1.000  H
  H150     1.0000 0.91160  0.46760  0.66950  Biso   1.000  H
  H151     1.0000 0.58840  0.96760  0.83050  Biso   1.000  H
  H152     1.0000 0.41160  0.96760  0.66950  Biso   1.000  H
  C177     1.0000 0.02880  0.96280  0.14970  Biso   1.000  C
  C178     1.0000 0.97120  0.96280  0.35030  Biso   1.000  C
  C179     1.0000 0.52880  0.46280  0.14970  Biso   1.000  C
  C180     1.0000 0.47120  0.46280  0.35030  Biso   1.000  C
  C181     1.0000 0.97120  0.03720  0.85030  Biso   1.000  C
  C182     1.0000 0.02880  0.03720  0.64970  Biso   1.000  C
  C183     1.0000 0.47120  0.53720  0.85030  Biso   1.000  C
  C184     1.0000 0.52880  0.53720  0.64970  Biso   1.000  C
  H153     1.0000 0.05620  0.94200  0.12560  Biso   1.000  H
  H154     1.0000 0.94380  0.94200  0.37440  Biso   1.000  H
  H155     1.0000 0.55620  0.44200  0.12560  Biso   1.000  H
  H156     1.0000 0.44380  0.44200  0.37440  Biso   1.000  H
  H157     1.0000 0.94380  0.05800  0.87440  Biso   1.000  H
  H158     1.0000 0.05620  0.05800  0.62560  Biso   1.000  H
  H159     1.0000 0.44380  0.55800  0.87440  Biso   1.000  H
  H160     1.0000 0.55620  0.55800  0.62560  Biso   1.000  H
  H161     1.0000 0.98800  0.00760  0.12990  Biso   1.000  H
  H162     1.0000 0.01200  0.00760  0.37010  Biso   1.000  H
  H163     1.0000 0.48800  0.50760  0.12990  Biso   1.000  H
  H164     1.0000 0.51200  0.50760  0.37010  Biso   1.000  H
  H165     1.0000 0.01200  0.99240  0.87010  Biso   1.000  H
  H166     1.0000 0.98800  0.99240  0.62990  Biso   1.000  H
  H167     1.0000 0.51200  0.49240  0.87010  Biso   1.000  H
  H168     1.0000 0.48800  0.49240  0.62990  Biso   1.000  H
  C185     1.0000 0.15780  0.98140  0.22490  Biso   1.000  C
  C186     1.0000 0.84220  0.98140  0.27510  Biso   1.000  C
  C187     1.0000 0.65780  0.48140  0.22490  Biso   1.000  C
  C188     1.0000 0.34220  0.48140  0.27510  Biso   1.000  C
  C189     1.0000 0.84220  0.01860  0.77510  Biso   1.000  C
  C190     1.0000 0.15780  0.01860  0.72490  Biso   1.000  C
  C191     1.0000 0.34220  0.51860  0.77510  Biso   1.000  C
  C192     1.0000 0.65780  0.51860  0.72490  Biso   1.000  C
  H169     1.0000 0.18240  0.92880  0.21600  Biso   1.000  H
  H170     1.0000 0.81760  0.92880  0.28400  Biso   1.000  H
  H171     1.0000 0.68240  0.42880  0.21600  Biso   1.000  H
  H172     1.0000 0.31760  0.42880  0.28400  Biso   1.000  H
  H173     1.0000 0.81760  0.07120  0.78400  Biso   1.000  H
  H174     1.0000 0.18240  0.07120  0.71600  Biso   1.000  H
  H175     1.0000 0.31760  0.57120  0.78400  Biso   1.000  H
  H176     1.0000 0.68240  0.57120  0.71600  Biso   1.000  H
  C193     1.0000 0.13650  0.10490  0.26440  Biso   1.000  C
  C194     1.0000 0.86350  0.10490  0.23560  Biso   1.000  C
  C195     1.0000 0.63650  0.60490  0.26440  Biso   1.000  C
  C196     1.0000 0.36350  0.60490  0.23560  Biso   1.000  C
  C197     1.0000 0.86350  0.89510  0.73560  Biso   1.000  C
  C198     1.0000 0.13650  0.89510  0.76440  Biso   1.000  C
  C199     1.0000 0.36350  0.39510  0.73560  Biso   1.000  C
  C200     1.0000 0.63650  0.39510  0.76440  Biso   1.000  C
  H177     1.0000 0.14360  0.15470  0.28900  Biso   1.000  H
  H178     1.0000 0.85640  0.15470  0.21100  Biso   1.000  H
  H179     1.0000 0.64360  0.65470  0.28900  Biso   1.000  H
  H180     1.0000 0.35640  0.65470  0.21100  Biso   1.000  H
  H181     1.0000 0.85640  0.84530  0.71100  Biso   1.000  H
  H182     1.0000 0.14360  0.84530  0.78900  Biso   1.000  H
  H183     1.0000 0.35640  0.34530  0.71100  Biso   1.000  H
  H184     1.0000 0.64360  0.34530  0.78900  Biso   1.000  H
  C201     1.0000 0.07170  0.08860  0.22140  Biso   1.000  C
  C202     1.0000 0.92830  0.08860  0.27860  Biso   1.000  C
  C203     1.0000 0.57170  0.58860  0.22140  Biso   1.000  C
  C204     1.0000 0.42830  0.58860  0.27860  Biso   1.000  C
  C205     1.0000 0.92830  0.91140  0.77860  Biso   1.000  C
  C206     1.0000 0.07170  0.91140  0.72140  Biso   1.000  C
  C207     1.0000 0.42830  0.41140  0.77860  Biso   1.000  C
  C208     1.0000 0.57170  0.41140  0.72140  Biso   1.000  C
  H185     1.0000 0.02560  0.12520  0.21030  Biso   1.000  H
  H186     1.0000 0.97440  0.12520  0.28970  Biso   1.000  H
  H187     1.0000 0.52560  0.62520  0.21030  Biso   1.000  H
  H188     1.0000 0.47440  0.62520  0.28970  Biso   1.000  H
  H189     1.0000 0.97440  0.87480  0.78970  Biso   1.000  H
  H190     1.0000 0.02560  0.87480  0.71030  Biso   1.000  H
  H191     1.0000 0.47440  0.37480  0.78970  Biso   1.000  H
  H192     1.0000 0.52560  0.37480  0.71030  Biso   1.000  H
  O33      1.0000 0.48930  0.30780  0.57620  Biso   1.000  O
  O34      1.0000 0.51070  0.30780  0.92380  Biso   1.000  O
  O35      1.0000 0.98930  0.80780  0.57620  Biso   1.000  O
  O36      1.0000 0.01070  0.80780  0.92380  Biso   1.000  O
  O37      1.0000 0.51070  0.69220  0.42380  Biso   1.000  O
  O38      1.0000 0.48930  0.69220  0.07620  Biso   1.000  O
  O39      1.0000 0.01070  0.19220  0.42380  Biso   1.000  O
  O40      1.0000 0.98930  0.19220  0.07620  Biso   1.000  O
  O41      1.0000 0.40150  0.19980  0.49400  Biso   1.000  O
  O42      1.0000 0.59850  0.19980  0.00600  Biso   1.000  O
  O43      1.0000 0.90150  0.69980  0.49400  Biso   1.000  O
  O44      1.0000 0.09850  0.69980  0.00600  Biso   1.000  O
  O45      1.0000 0.59850  0.80020  0.50600  Biso   1.000  O
  O46      1.0000 0.40150  0.80020  0.99400  Biso   1.000  O
  O47      1.0000 0.09850  0.30020  0.50600  Biso   1.000  O
  O48      1.0000 0.90150  0.30020  0.99400  Biso   1.000  O
  O49      1.0000 0.21400  0.35760  0.46440  Biso   1.000  O
  O50      1.0000 0.78600  0.35760  0.03560  Biso   1.000  O
  O51      1.0000 0.71400  0.85760  0.46440  Biso   1.000  O
  O52      1.0000 0.28600  0.85760  0.03560  Biso   1.000  O
  O53      1.0000 0.78600  0.64240  0.53560  Biso   1.000  O
  O54      1.0000 0.21400  0.64240  0.96440  Biso   1.000  O
  O55      1.0000 0.28600  0.14240  0.53560  Biso   1.000  O
  O56      1.0000 0.71400  0.14240  0.96440  Biso   1.000  O
  O57      1.0000 0.06250  0.24740  0.34080  Biso   1.000  O
  O58      1.0000 0.93750  0.24740  0.15920  Biso   1.000  O
  O59      1.0000 0.56250  0.74740  0.34080  Biso   1.000  O
  O60      1.0000 0.43750  0.74740  0.15920  Biso   1.000  O
  O61      1.0000 0.93750  0.75260  0.65920  Biso   1.000  O
  O62      1.0000 0.06250  0.75260  0.84080  Biso   1.000  O
  O63      1.0000 0.43750  0.25260  0.65920  Biso   1.000  O
  O64      1.0000 0.56250  0.25260  0.84080  Biso   1.000  O
  O65      1.0000 0.84620  0.18250  0.37230  Biso   1.000  O
  O66      1.0000 0.15380  0.18250  0.12770  Biso   1.000  O
  O67      1.0000 0.34620  0.68250  0.37230  Biso   1.000  O
  O68      1.0000 0.65380  0.68250  0.12770  Biso   1.000  O
  O69      1.0000 0.15380  0.81750  0.62770  Biso   1.000  O
  O70      1.0000 0.84620  0.81750  0.87230  Biso   1.000  O
  O71      1.0000 0.65380  0.31750  0.62770  Biso   1.000  O
  O72      1.0000 0.34620  0.31750  0.87230  Biso   1.000  O
  O73      1.0000 0.81100  0.00540  0.40940  Biso   1.000  O
  O74      1.0000 0.18900  0.00540  0.09060  Biso   1.000  O
  O75      1.0000 0.31100  0.50540  0.40940  Biso   1.000  O
  O76      1.0000 0.68900  0.50540  0.09060  Biso   1.000  O
  O77      1.0000 0.18900  0.99460  0.59060  Biso   1.000  O
  O78      1.0000 0.81100  0.99460  0.90940  Biso   1.000  O
  O79      1.0000 0.68900  0.49460  0.59060  Biso   1.000  O
  O80      1.0000 0.31100  0.49460  0.90940  Biso   1.000  O
  O81      1.0000 0.80260  0.32980  0.29060  Biso   1.000  O
  O82      1.0000 0.19740  0.32980  0.20940  Biso   1.000  O
  O83      1.0000 0.30260  0.82980  0.29060  Biso   1.000  O
  O84      1.0000 0.69740  0.82980  0.20940  Biso   1.000  O
  O85      1.0000 0.19740  0.67020  0.70940  Biso   1.000  O
  O86      1.0000 0.80260  0.67020  0.79060  Biso   1.000  O
  O87      1.0000 0.69740  0.17020  0.70940  Biso   1.000  O
  O88      1.0000 0.30260  0.17020  0.79060  Biso   1.000  O
  O89      1.0000 0.93640  0.95340  0.50400  Biso   1.000  O
  O90      1.0000 0.06360  0.95340  0.99600  Biso   1.000  O
  O91      1.0000 0.43640  0.45340  0.50400  Biso   1.000  O
  O92      1.0000 0.56360  0.45340  0.99600  Biso   1.000  O
  O93      1.0000 0.06360  0.04660  0.49600  Biso   1.000  O
  O94      1.0000 0.93640  0.04660  0.00400  Biso   1.000  O
  O95      1.0000 0.56360  0.54660  0.49600  Biso   1.000  O
  O96      1.0000 0.43640  0.54660  0.00400  Biso   1.000  O
  O97      1.0000 0.00000  0.32580  0.25000  Biso   1.000  O
  O98      1.0000 0.50000  0.82580  0.25000  Biso   1.000  O
  O99      1.0000 0.00000  0.67420  0.75000  Biso   1.000  O
  O100     1.0000 0.50000  0.17420  0.75000  Biso   1.000  O
