data_image0
_cell_length_a       18.319
_cell_length_b       14.366
_cell_length_c       26.75
_cell_angle_alpha    90
_cell_angle_beta     110.29
_cell_angle_gamma    90

_symmetry_space_group_name_H-M    "P 1"
_symmetry_int_tables_number       1

loop_
  _symmetry_equiv_pos_as_xyz
  'x, y, z'

loop_
  _atom_site_label
  _atom_site_occupancy
  _atom_site_fract_x
  _atom_site_fract_y
  _atom_site_fract_z
  _atom_site_thermal_displace_type
  _atom_site_B_iso_or_equiv
  _atom_site_type_symbol
  Cu1      1.0000 0.80059  0.06108  0.06778  Biso   1.000  Cu
  Cu2      1.0000 0.19941  0.06108  0.93222  Biso   1.000  Cu
  Cu3      1.0000 0.30059  0.56108  0.06778  Biso   1.000  Cu
  Cu4      1.0000 0.69941  0.56108  0.93222  Biso   1.000  Cu
  Cu5      1.0000 0.70166  0.51100  0.43107  Biso   1.000  Cu
  Cu6      1.0000 0.29834  0.51100  0.56893  Biso   1.000  Cu
  Cu7      1.0000 0.20166  0.01100  0.43107  Biso   1.000  Cu
  Cu8      1.0000 0.79834  0.01100  0.56893  Biso   1.000  Cu
  S1       1.0000 0.79059  0.30618  0.11909  Biso   1.000  S
  S2       1.0000 0.20941  0.30618  0.88091  Biso   1.000  S
  S3       1.0000 0.29059  0.80618  0.11909  Biso   1.000  S
  S4       1.0000 0.70941  0.80618  0.88091  Biso   1.000  S
  S5       1.0000 0.72085  0.27069  0.39700  Biso   1.000  S
  S6       1.0000 0.27915  0.27069  0.60300  Biso   1.000  S
  S7       1.0000 0.22085  0.77069  0.39700  Biso   1.000  S
  S8       1.0000 0.77915  0.77069  0.60300  Biso   1.000  S
  O1       1.0000 0.80650  0.21820  0.09600  Biso   1.000  O
  O2       1.0000 0.19350  0.21820  0.90400  Biso   1.000  O
  O3       1.0000 0.30650  0.71820  0.09600  Biso   1.000  O
  O4       1.0000 0.69350  0.71820  0.90400  Biso   1.000  O
  O5       1.0000 0.77050  0.37820  0.07900  Biso   1.000  O
  O6       1.0000 0.22950  0.37820  0.92100  Biso   1.000  O
  O7       1.0000 0.27050  0.87820  0.07900  Biso   1.000  O
  O8       1.0000 0.72950  0.87820  0.92100  Biso   1.000  O
  O9       1.0000 0.72700  0.29360  0.14000  Biso   1.000  O
  O10      1.0000 0.27300  0.29360  0.86000  Biso   1.000  O
  O11      1.0000 0.22700  0.79360  0.14000  Biso   1.000  O
  O12      1.0000 0.77300  0.79360  0.86000  Biso   1.000  O
  O13      1.0000 0.86220  0.33270  0.16360  Biso   1.000  O
  O14      1.0000 0.13780  0.33270  0.83640  Biso   1.000  O
  O15      1.0000 0.36220  0.83270  0.16360  Biso   1.000  O
  O16      1.0000 0.63780  0.83270  0.83640  Biso   1.000  O
  O17      1.0000 0.69420  0.36350  0.39910  Biso   1.000  O
  O18      1.0000 0.30580  0.36350  0.60090  Biso   1.000  O
  O19      1.0000 0.19420  0.86350  0.39910  Biso   1.000  O
  O20      1.0000 0.80580  0.86350  0.60090  Biso   1.000  O
  O21      1.0000 0.78490  0.27220  0.37930  Biso   1.000  O
  O22      1.0000 0.21510  0.27220  0.62070  Biso   1.000  O
  O23      1.0000 0.28490  0.77220  0.37930  Biso   1.000  O
  O24      1.0000 0.71510  0.77220  0.62070  Biso   1.000  O
  O25      1.0000 0.65800  0.21370  0.35900  Biso   1.000  O
  O26      1.0000 0.34200  0.21370  0.64100  Biso   1.000  O
  O27      1.0000 0.15800  0.71370  0.35900  Biso   1.000  O
  O28      1.0000 0.84200  0.71370  0.64100  Biso   1.000  O
  O29      1.0000 0.73680  0.23280  0.45110  Biso   1.000  O
  O30      1.0000 0.26320  0.23280  0.54890  Biso   1.000  O
  O31      1.0000 0.23680  0.73280  0.45110  Biso   1.000  O
  O32      1.0000 0.76320  0.73280  0.54890  Biso   1.000  O
  O33      1.0000 0.84540  0.73930  0.11420  Biso   1.000  O
  O34      1.0000 0.15460  0.73930  0.88580  Biso   1.000  O
  O35      1.0000 0.34540  0.23930  0.11420  Biso   1.000  O
  O36      1.0000 0.65460  0.23930  0.88580  Biso   1.000  O
  O37      1.0000 0.79530  0.87480  0.03310  Biso   1.000  O
  O38      1.0000 0.20470  0.87480  0.96690  Biso   1.000  O
  O39      1.0000 0.29530  0.37480  0.03310  Biso   1.000  O
  O40      1.0000 0.70470  0.37480  0.96690  Biso   1.000  O
  O41      1.0000 0.79560  0.55910  0.13580  Biso   1.000  O
  O42      1.0000 0.20440  0.55910  0.86420  Biso   1.000  O
  O43      1.0000 0.29560  0.05910  0.13580  Biso   1.000  O
  O44      1.0000 0.70440  0.05910  0.86420  Biso   1.000  O
  O45      1.0000 0.90550  0.46840  0.23930  Biso   1.000  O
  O46      1.0000 0.09450  0.46840  0.76070  Biso   1.000  O
  O47      1.0000 0.40550  0.96840  0.23930  Biso   1.000  O
  O48      1.0000 0.59450  0.96840  0.76070  Biso   1.000  O
  O49      1.0000 0.48740  0.84310  0.32610  Biso   1.000  O
  O50      1.0000 0.51260  0.84310  0.67390  Biso   1.000  O
  O51      1.0000 0.98740  0.34310  0.32610  Biso   1.000  O
  O52      1.0000 0.01260  0.34310  0.67390  Biso   1.000  O
  O53      1.0000 0.40300  0.71980  0.25130  Biso   1.000  O
  O54      1.0000 0.59700  0.71980  0.74870  Biso   1.000  O
  O55      1.0000 0.90300  0.21980  0.25130  Biso   1.000  O
  O56      1.0000 0.09700  0.21980  0.74870  Biso   1.000  O
  O57      1.0000 0.22160  0.88200  0.22540  Biso   1.000  O
  O58      1.0000 0.77840  0.88200  0.77460  Biso   1.000  O
  O59      1.0000 0.72160  0.38200  0.22540  Biso   1.000  O
  O60      1.0000 0.27840  0.38200  0.77460  Biso   1.000  O
  O61      1.0000 0.06940  0.78060  0.09770  Biso   1.000  O
  O62      1.0000 0.93060  0.78060  0.90230  Biso   1.000  O
  O63      1.0000 0.56940  0.28060  0.09770  Biso   1.000  O
  O64      1.0000 0.43060  0.28060  0.90230  Biso   1.000  O
  O65      1.0000 0.00000  0.85970  0.00000  Biso   1.000  O
  O66      1.0000 0.50000  0.35970  0.00000  Biso   1.000  O
  O67      1.0000 0.00880  0.72760  0.17380  Biso   1.000  O
  O68      1.0000 0.99120  0.72760  0.82620  Biso   1.000  O
  O69      1.0000 0.50880  0.22760  0.17380  Biso   1.000  O
  O70      1.0000 0.49120  0.22760  0.82620  Biso   1.000  O
  O71      1.0000 0.10000  0.82030  0.26320  Biso   1.000  O
  O72      1.0000 0.90000  0.82030  0.73680  Biso   1.000  O
  O73      1.0000 0.60000  0.32030  0.26320  Biso   1.000  O
  O74      1.0000 0.40000  0.32030  0.73680  Biso   1.000  O
  O75      1.0000 0.29370  0.66690  0.29670  Biso   1.000  O
  O76      1.0000 0.70630  0.66690  0.70330  Biso   1.000  O
  O77      1.0000 0.79370  0.16690  0.29670  Biso   1.000  O
  O78      1.0000 0.20630  0.16690  0.70330  Biso   1.000  O
  O79      1.0000 0.44440  0.78570  0.41620  Biso   1.000  O
  O80      1.0000 0.55560  0.78570  0.58380  Biso   1.000  O
  O81      1.0000 0.94440  0.28570  0.41620  Biso   1.000  O
  O82      1.0000 0.05560  0.28570  0.58380  Biso   1.000  O
  O83      1.0000 0.17360  0.54820  0.31710  Biso   1.000  O
  O84      1.0000 0.82640  0.54820  0.68290  Biso   1.000  O
  O85      1.0000 0.67360  0.04820  0.31710  Biso   1.000  O
  O86      1.0000 0.32640  0.04820  0.68290  Biso   1.000  O
  O87      1.0000 0.03280  0.56150  0.23120  Biso   1.000  O
  O88      1.0000 0.96720  0.56150  0.76880  Biso   1.000  O
  O89      1.0000 0.53280  0.06150  0.23120  Biso   1.000  O
  O90      1.0000 0.46720  0.06150  0.76880  Biso   1.000  O
  O91      1.0000 0.15310  0.37430  0.36960  Biso   1.000  O
  O92      1.0000 0.84690  0.37430  0.63040  Biso   1.000  O
  O93      1.0000 0.65310  0.87430  0.36960  Biso   1.000  O
  O94      1.0000 0.34690  0.87430  0.63040  Biso   1.000  O
  O95      1.0000 0.19020  0.21510  0.45180  Biso   1.000  O
  O96      1.0000 0.80980  0.21510  0.54820  Biso   1.000  O
  O97      1.0000 0.69020  0.71510  0.45180  Biso   1.000  O
  O98      1.0000 0.30980  0.71510  0.54820  Biso   1.000  O
  O99      1.0000 0.50000  0.70800  0.50000  Biso   1.000  O
  O100     1.0000 0.00000  0.20800  0.50000  Biso   1.000  O
  N1       1.0000 0.71110  0.92550  0.17180  Biso   1.000  N
  N2       1.0000 0.28890  0.92550  0.82820  Biso   1.000  N
  N3       1.0000 0.21110  0.42550  0.17180  Biso   1.000  N
  N4       1.0000 0.78890  0.42550  0.82820  Biso   1.000  N
  N5       1.0000 0.76370  0.02410  0.12190  Biso   1.000  N
  N6       1.0000 0.23630  0.02410  0.87810  Biso   1.000  N
  N7       1.0000 0.26370  0.52410  0.12190  Biso   1.000  N
  N8       1.0000 0.73630  0.52410  0.87810  Biso   1.000  N
  N9       1.0000 0.52110  0.55850  0.18390  Biso   1.000  N
  N10      1.0000 0.47890  0.55850  0.81610  Biso   1.000  N
  N11      1.0000 0.02110  0.05850  0.18390  Biso   1.000  N
  N12      1.0000 0.97890  0.05850  0.81610  Biso   1.000  N
  N13      1.0000 0.41100  0.54240  0.11830  Biso   1.000  N
  N14      1.0000 0.58900  0.54240  0.88170  Biso   1.000  N
  N15      1.0000 0.91100  0.04240  0.11830  Biso   1.000  N
  N16      1.0000 0.08900  0.04240  0.88170  Biso   1.000  N
  N17      1.0000 0.89060  0.18450  0.96270  Biso   1.000  N
  N18      1.0000 0.10940  0.18450  0.03730  Biso   1.000  N
  N19      1.0000 0.39060  0.68450  0.96270  Biso   1.000  N
  N20      1.0000 0.60940  0.68450  0.03730  Biso   1.000  N
  N21      1.0000 0.83890  0.09810  0.01010  Biso   1.000  N
  N22      1.0000 0.16110  0.09810  0.98990  Biso   1.000  N
  N23      1.0000 0.33890  0.59810  0.01010  Biso   1.000  N
  N24      1.0000 0.66110  0.59810  0.98990  Biso   1.000  N
  N25      1.0000 0.08360  0.55230  0.94760  Biso   1.000  N
  N26      1.0000 0.91640  0.55230  0.05240  Biso   1.000  N
  N27      1.0000 0.58360  0.05230  0.94760  Biso   1.000  N
  N28      1.0000 0.41640  0.05230  0.05240  Biso   1.000  N
  N29      1.0000 0.19230  0.57480  0.01620  Biso   1.000  N
  N30      1.0000 0.80770  0.57480  0.98380  Biso   1.000  N
  N31      1.0000 0.69230  0.07480  0.01620  Biso   1.000  N
  N32      1.0000 0.30770  0.07480  0.98380  Biso   1.000  N
  N33      1.0000 0.61200  0.39300  0.54060  Biso   1.000  N
  N34      1.0000 0.38800  0.39300  0.45940  Biso   1.000  N
  N35      1.0000 0.11200  0.89300  0.54060  Biso   1.000  N
  N36      1.0000 0.88800  0.89300  0.45940  Biso   1.000  N
  N37      1.0000 0.66170  0.47950  0.49180  Biso   1.000  N
  N38      1.0000 0.33830  0.47950  0.50820  Biso   1.000  N
  N39      1.0000 0.16170  0.97950  0.49180  Biso   1.000  N
  N40      1.0000 0.83830  0.97950  0.50820  Biso   1.000  N
  N41      1.0000 0.41380  0.03290  0.55400  Biso   1.000  N
  N42      1.0000 0.58620  0.03290  0.44600  Biso   1.000  N
  N43      1.0000 0.91380  0.53290  0.55400  Biso   1.000  N
  N44      1.0000 0.08620  0.53290  0.44600  Biso   1.000  N
  N45      1.0000 0.31060  0.00320  0.48380  Biso   1.000  N
  N46      1.0000 0.68940  0.00320  0.51620  Biso   1.000  N
  N47      1.0000 0.81060  0.50320  0.48380  Biso   1.000  N
  N48      1.0000 0.18940  0.50320  0.51620  Biso   1.000  N
  N49      1.0000 0.78900  0.64400  0.32490  Biso   1.000  N
  N50      1.0000 0.21100  0.64400  0.67510  Biso   1.000  N
  N51      1.0000 0.28900  0.14400  0.32490  Biso   1.000  N
  N52      1.0000 0.71100  0.14400  0.67510  Biso   1.000  N
  N53      1.0000 0.74070  0.55740  0.37270  Biso   1.000  N
  N54      1.0000 0.25930  0.55740  0.62730  Biso   1.000  N
  N55      1.0000 0.24070  0.05740  0.37270  Biso   1.000  N
  N56      1.0000 0.75930  0.05740  0.62730  Biso   1.000  N
  N57      1.0000 0.98200  0.00830  0.31440  Biso   1.000  N
  N58      1.0000 0.01800  0.00830  0.68560  Biso   1.000  N
  N59      1.0000 0.48200  0.50830  0.31440  Biso   1.000  N
  N60      1.0000 0.51800  0.50830  0.68560  Biso   1.000  N
  N61      1.0000 0.09050  0.02840  0.38280  Biso   1.000  N
  N62      1.0000 0.90950  0.02840  0.61720  Biso   1.000  N
  N63      1.0000 0.59050  0.52840  0.38280  Biso   1.000  N
  N64      1.0000 0.40950  0.52840  0.61720  Biso   1.000  N
  C1       1.0000 0.68030  0.84280  0.18740  Biso   1.000  C
  C2       1.0000 0.31970  0.84280  0.81260  Biso   1.000  C
  C3       1.0000 0.18030  0.34280  0.18740  Biso   1.000  C
  C4       1.0000 0.81970  0.34280  0.81260  Biso   1.000  C
  C5       1.0000 0.70490  0.75230  0.18000  Biso   1.000  C
  C6       1.0000 0.29510  0.75230  0.82000  Biso   1.000  C
  C7       1.0000 0.20490  0.25230  0.18000  Biso   1.000  C
  C8       1.0000 0.79510  0.25230  0.82000  Biso   1.000  C
  H1       1.0000 0.74430  0.74470  0.16480  Biso   1.000  H
  H2       1.0000 0.25570  0.74470  0.83520  Biso   1.000  H
  H3       1.0000 0.24430  0.24470  0.16480  Biso   1.000  H
  H4       1.0000 0.75570  0.24470  0.83520  Biso   1.000  H
  C9       1.0000 0.67370  0.67740  0.19420  Biso   1.000  C
  C10      1.0000 0.32630  0.67740  0.80580  Biso   1.000  C
  C11      1.0000 0.17370  0.17740  0.19420  Biso   1.000  C
  C12      1.0000 0.82630  0.17740  0.80580  Biso   1.000  C
  H5       1.0000 0.69020  0.61720  0.18780  Biso   1.000  H
  H6       1.0000 0.30980  0.61720  0.81220  Biso   1.000  H
  H7       1.0000 0.19020  0.11720  0.18780  Biso   1.000  H
  H8       1.0000 0.80980  0.11720  0.81220  Biso   1.000  H
  C13      1.0000 0.61890  0.68520  0.21770  Biso   1.000  C
  C14      1.0000 0.38110  0.68520  0.78230  Biso   1.000  C
  C15      1.0000 0.11890  0.18520  0.21770  Biso   1.000  C
  C16      1.0000 0.88110  0.18520  0.78230  Biso   1.000  C
  C17      1.0000 0.59490  0.77210  0.22810  Biso   1.000  C
  C18      1.0000 0.40510  0.77210  0.77190  Biso   1.000  C
  C19      1.0000 0.09490  0.27210  0.22810  Biso   1.000  C
  C20      1.0000 0.90510  0.27210  0.77190  Biso   1.000  C
  H9       1.0000 0.55590  0.77830  0.24380  Biso   1.000  H
  H10      1.0000 0.44410  0.77830  0.75620  Biso   1.000  H
  H11      1.0000 0.05590  0.27830  0.24380  Biso   1.000  H
  H12      1.0000 0.94410  0.27830  0.75620  Biso   1.000  H
  C21      1.0000 0.62980  0.85120  0.21480  Biso   1.000  C
  C22      1.0000 0.37020  0.85120  0.78520  Biso   1.000  C
  C23      1.0000 0.12980  0.35120  0.21480  Biso   1.000  C
  C24      1.0000 0.87020  0.35120  0.78520  Biso   1.000  C
  H13      1.0000 0.61820  0.91130  0.22490  Biso   1.000  H
  H14      1.0000 0.38180  0.91130  0.77510  Biso   1.000  H
  H15      1.0000 0.11820  0.41130  0.22490  Biso   1.000  H
  H16      1.0000 0.88180  0.41130  0.77510  Biso   1.000  H
  C25      1.0000 0.75050  0.92880  0.13660  Biso   1.000  C
  C26      1.0000 0.24950  0.92880  0.86340  Biso   1.000  C
  C27      1.0000 0.25050  0.42880  0.13660  Biso   1.000  C
  C28      1.0000 0.74950  0.42880  0.86340  Biso   1.000  C
  H17      1.0000 0.76740  0.87490  0.12320  Biso   1.000  H
  H18      1.0000 0.23260  0.87490  0.87680  Biso   1.000  H
  H19      1.0000 0.26740  0.37490  0.12320  Biso   1.000  H
  H20      1.0000 0.73260  0.37490  0.87680  Biso   1.000  H
  C29      1.0000 0.72920  0.06920  0.15380  Biso   1.000  C
  C30      1.0000 0.27080  0.06920  0.84620  Biso   1.000  C
  C31      1.0000 0.22920  0.56920  0.15380  Biso   1.000  C
  C32      1.0000 0.77080  0.56920  0.84620  Biso   1.000  C
  H21      1.0000 0.72960  0.13510  0.15620  Biso   1.000  H
  H22      1.0000 0.27040  0.13510  0.84380  Biso   1.000  H
  H23      1.0000 0.22960  0.63510  0.15620  Biso   1.000  H
  H24      1.0000 0.77040  0.63510  0.84380  Biso   1.000  H
  C33      1.0000 0.69530  0.01730  0.18090  Biso   1.000  C
  C34      1.0000 0.30470  0.01730  0.81910  Biso   1.000  C
  C35      1.0000 0.19530  0.51730  0.18090  Biso   1.000  C
  C36      1.0000 0.80470  0.51730  0.81910  Biso   1.000  C
  H25      1.0000 0.66630  0.03870  0.20200  Biso   1.000  H
  H26      1.0000 0.33370  0.03870  0.79800  Biso   1.000  H
  H27      1.0000 0.16630  0.53870  0.20200  Biso   1.000  H
  H28      1.0000 0.83370  0.53870  0.79800  Biso   1.000  H
  C37      1.0000 0.58090  0.59910  0.23170  Biso   1.000  C
  C38      1.0000 0.41910  0.59910  0.76830  Biso   1.000  C
  C39      1.0000 0.08090  0.09910  0.23170  Biso   1.000  C
  C40      1.0000 0.91910  0.09910  0.76830  Biso   1.000  C
  H29      1.0000 0.62140  0.55180  0.24820  Biso   1.000  H
  H30      1.0000 0.37860  0.55180  0.75180  Biso   1.000  H
  H31      1.0000 0.12140  0.05180  0.24820  Biso   1.000  H
  H32      1.0000 0.87860  0.05180  0.75180  Biso   1.000  H
  H33      1.0000 0.55640  0.61630  0.25810  Biso   1.000  H
  H34      1.0000 0.44360  0.61630  0.74190  Biso   1.000  H
  H35      1.0000 0.05640  0.11630  0.25810  Biso   1.000  H
  H36      1.0000 0.94360  0.11630  0.74190  Biso   1.000  H
  C41      1.0000 0.44770  0.59280  0.15900  Biso   1.000  C
  C42      1.0000 0.55230  0.59280  0.84100  Biso   1.000  C
  C43      1.0000 0.94770  0.09280  0.15900  Biso   1.000  C
  C44      1.0000 0.05230  0.09280  0.84100  Biso   1.000  C
  H37      1.0000 0.42690  0.64620  0.17010  Biso   1.000  H
  H38      1.0000 0.57310  0.64620  0.82990  Biso   1.000  H
  H39      1.0000 0.92690  0.14620  0.17010  Biso   1.000  H
  H40      1.0000 0.07310  0.14620  0.82990  Biso   1.000  H
  C45      1.0000 0.46090  0.47210  0.11570  Biso   1.000  C
  C46      1.0000 0.53910  0.47210  0.88430  Biso   1.000  C
  C47      1.0000 0.96090  0.97210  0.11570  Biso   1.000  C
  C48      1.0000 0.03910  0.97210  0.88430  Biso   1.000  C
  H41      1.0000 0.44880  0.42410  0.08960  Biso   1.000  H
  H42      1.0000 0.55120  0.42410  0.91040  Biso   1.000  H
  H43      1.0000 0.94880  0.92410  0.08960  Biso   1.000  H
  H44      1.0000 0.05120  0.92410  0.91040  Biso   1.000  H
  C49      1.0000 0.52990  0.48240  0.15620  Biso   1.000  C
  C50      1.0000 0.47010  0.48240  0.84380  Biso   1.000  C
  C51      1.0000 0.02990  0.98240  0.15620  Biso   1.000  C
  C52      1.0000 0.97010  0.98240  0.84380  Biso   1.000  C
  H45      1.0000 0.57500  0.44450  0.16360  Biso   1.000  H
  H46      1.0000 0.42500  0.44450  0.83640  Biso   1.000  H
  H47      1.0000 0.07500  0.94450  0.16360  Biso   1.000  H
  H48      1.0000 0.92500  0.94450  0.83640  Biso   1.000  H
  C53      1.0000 0.92360  0.26310  0.94510  Biso   1.000  C
  C54      1.0000 0.07640  0.26310  0.05490  Biso   1.000  C
  C55      1.0000 0.42360  0.76310  0.94510  Biso   1.000  C
  C56      1.0000 0.57640  0.76310  0.05490  Biso   1.000  C
  C57      1.0000 0.97820  0.25510  0.92050  Biso   1.000  C
  C58      1.0000 0.02180  0.25510  0.07950  Biso   1.000  C
  C59      1.0000 0.47820  0.75510  0.92050  Biso   1.000  C
  C60      1.0000 0.52180  0.75510  0.07950  Biso   1.000  C
  H49      1.0000 0.99370  0.19490  0.91340  Biso   1.000  H
  H50      1.0000 0.00630  0.19490  0.08660  Biso   1.000  H
  H51      1.0000 0.49370  0.69490  0.91340  Biso   1.000  H
  H52      1.0000 0.50630  0.69490  0.08660  Biso   1.000  H
  C61      1.0000 0.01110  0.33260  0.90590  Biso   1.000  C
  C62      1.0000 0.98890  0.33260  0.09410  Biso   1.000  C
  C63      1.0000 0.51110  0.83260  0.90590  Biso   1.000  C
  C64      1.0000 0.48890  0.83260  0.09410  Biso   1.000  C
  H53      1.0000 0.04860  0.32460  0.88910  Biso   1.000  H
  H54      1.0000 0.95140  0.32460  0.11090  Biso   1.000  H
  H55      1.0000 0.54860  0.82460  0.88910  Biso   1.000  H
  H56      1.0000 0.45140  0.82460  0.11090  Biso   1.000  H
  C65      1.0000 0.99000  0.42150  0.91550  Biso   1.000  C
  C66      1.0000 0.01000  0.42150  0.08450  Biso   1.000  C
  C67      1.0000 0.49000  0.92150  0.91550  Biso   1.000  C
  C68      1.0000 0.51000  0.92150  0.08450  Biso   1.000  C
  C69      1.0000 0.93470  0.43260  0.93890  Biso   1.000  C
  C70      1.0000 0.06530  0.43260  0.06110  Biso   1.000  C
  C71      1.0000 0.43470  0.93260  0.93890  Biso   1.000  C
  C72      1.0000 0.56530  0.93260  0.06110  Biso   1.000  C
  H57      1.0000 0.91980  0.49340  0.94550  Biso   1.000  H
  H58      1.0000 0.08020  0.49340  0.05450  Biso   1.000  H
  H59      1.0000 0.41980  0.99340  0.94550  Biso   1.000  H
  H60      1.0000 0.58020  0.99340  0.05450  Biso   1.000  H
  C73      1.0000 0.89930  0.35320  0.95350  Biso   1.000  C
  C74      1.0000 0.10070  0.35320  0.04650  Biso   1.000  C
  C75      1.0000 0.39930  0.85320  0.95350  Biso   1.000  C
  C76      1.0000 0.60070  0.85320  0.04650  Biso   1.000  C
  H61      1.0000 0.85980  0.36110  0.96860  Biso   1.000  H
  H62      1.0000 0.14020  0.36110  0.03140  Biso   1.000  H
  H63      1.0000 0.35980  0.86110  0.96860  Biso   1.000  H
  H64      1.0000 0.64020  0.86110  0.03140  Biso   1.000  H
  C77      1.0000 0.85800  0.18290  0.00020  Biso   1.000  C
  C78      1.0000 0.14200  0.18290  0.99980  Biso   1.000  C
  C79      1.0000 0.35800  0.68290  0.00020  Biso   1.000  C
  C80      1.0000 0.64200  0.68290  0.99980  Biso   1.000  C
  H65      1.0000 0.84950  0.23700  0.01780  Biso   1.000  H
  H66      1.0000 0.15050  0.23700  0.98220  Biso   1.000  H
  H67      1.0000 0.34950  0.73700  0.01780  Biso   1.000  H
  H68      1.0000 0.65050  0.73700  0.98220  Biso   1.000  H
  C81      1.0000 0.86690  0.03810  0.97750  Biso   1.000  C
  C82      1.0000 0.13310  0.03810  0.02250  Biso   1.000  C
  C83      1.0000 0.36690  0.53810  0.97750  Biso   1.000  C
  C84      1.0000 0.63310  0.53810  0.02250  Biso   1.000  C
  H69      1.0000 0.86480  0.97200  0.97670  Biso   1.000  H
  H70      1.0000 0.13520  0.97200  0.02330  Biso   1.000  H
  H71      1.0000 0.36480  0.47200  0.97670  Biso   1.000  H
  H72      1.0000 0.63520  0.47200  0.02330  Biso   1.000  H
  C85      1.0000 0.89810  0.09540  0.94710  Biso   1.000  C
  C86      1.0000 0.10190  0.09540  0.05290  Biso   1.000  C
  C87      1.0000 0.39810  0.59540  0.94710  Biso   1.000  C
  C88      1.0000 0.60190  0.59540  0.05290  Biso   1.000  C
  H73      1.0000 0.91980  0.07620  0.92130  Biso   1.000  H
  H74      1.0000 0.08020  0.07620  0.07870  Biso   1.000  H
  H75      1.0000 0.41980  0.57620  0.92130  Biso   1.000  H
  H76      1.0000 0.58020  0.57620  0.07870  Biso   1.000  H
  C89      1.0000 0.02760  0.50730  0.90120  Biso   1.000  C
  C90      1.0000 0.97240  0.50730  0.09880  Biso   1.000  C
  C91      1.0000 0.52760  0.00730  0.90120  Biso   1.000  C
  C92      1.0000 0.47240  0.00730  0.09880  Biso   1.000  C
  H77      1.0000 0.05430  0.48890  0.87620  Biso   1.000  H
  H78      1.0000 0.94570  0.48890  0.12380  Biso   1.000  H
  H79      1.0000 0.55430  0.98890  0.87620  Biso   1.000  H
  H80      1.0000 0.44570  0.98890  0.12380  Biso   1.000  H
  H81      1.0000 0.98640  0.55260  0.88250  Biso   1.000  H
  H82      1.0000 0.01360  0.55260  0.11750  Biso   1.000  H
  H83      1.0000 0.48640  0.05260  0.88250  Biso   1.000  H
  H84      1.0000 0.51360  0.05260  0.11750  Biso   1.000  H
  C93      1.0000 0.15930  0.52450  0.97640  Biso   1.000  C
  C94      1.0000 0.84070  0.52450  0.02360  Biso   1.000  C
  C95      1.0000 0.65930  0.02450  0.97640  Biso   1.000  C
  C96      1.0000 0.34070  0.02450  0.02360  Biso   1.000  C
  H85      1.0000 0.18370  0.47240  0.96690  Biso   1.000  H
  H86      1.0000 0.81630  0.47240  0.03310  Biso   1.000  H
  H87      1.0000 0.68370  0.97240  0.96690  Biso   1.000  H
  H88      1.0000 0.31630  0.97240  0.03310  Biso   1.000  H
  C97      1.0000 0.13860  0.64620  0.01490  Biso   1.000  C
  C98      1.0000 0.86140  0.64620  0.98510  Biso   1.000  C
  C99      1.0000 0.63860  0.14620  0.01490  Biso   1.000  C
  C100     1.0000 0.36140  0.14620  0.98510  Biso   1.000  C
  H89      1.0000 0.14670  0.69600  0.03960  Biso   1.000  H
  H90      1.0000 0.85330  0.69600  0.96040  Biso   1.000  H
  H91      1.0000 0.64670  0.19600  0.03960  Biso   1.000  H
  H92      1.0000 0.35330  0.19600  0.96040  Biso   1.000  H
  C101     1.0000 0.07390  0.63100  0.97250  Biso   1.000  C
  C102     1.0000 0.92610  0.63100  0.02750  Biso   1.000  C
  C103     1.0000 0.57390  0.13100  0.97250  Biso   1.000  C
  C104     1.0000 0.42610  0.13100  0.02750  Biso   1.000  C
  H93      1.0000 0.02880  0.66930  0.96170  Biso   1.000  H
  H94      1.0000 0.97120  0.66930  0.03830  Biso   1.000  H
  H95      1.0000 0.52880  0.16930  0.96170  Biso   1.000  H
  H96      1.0000 0.47120  0.16930  0.03830  Biso   1.000  H
  C105     1.0000 0.57890  0.31340  0.55640  Biso   1.000  C
  C106     1.0000 0.42110  0.31340  0.44360  Biso   1.000  C
  C107     1.0000 0.07890  0.81340  0.55640  Biso   1.000  C
  C108     1.0000 0.92110  0.81340  0.44360  Biso   1.000  C
  C109     1.0000 0.59860  0.22830  0.54650  Biso   1.000  C
  C110     1.0000 0.40140  0.22830  0.45350  Biso   1.000  C
  C111     1.0000 0.09860  0.72830  0.54650  Biso   1.000  C
  C112     1.0000 0.90140  0.72830  0.45350  Biso   1.000  C
  H97      1.0000 0.63480  0.22040  0.52860  Biso   1.000  H
  H98      1.0000 0.36520  0.22040  0.47140  Biso   1.000  H
  H99      1.0000 0.13480  0.72040  0.52860  Biso   1.000  H
  H100     1.0000 0.86520  0.72040  0.47140  Biso   1.000  H
  C113     1.0000 0.56690  0.15140  0.56200  Biso   1.000  C
  C114     1.0000 0.43310  0.15140  0.43800  Biso   1.000  C
  C115     1.0000 0.06690  0.65140  0.56200  Biso   1.000  C
  C116     1.0000 0.93310  0.65140  0.43800  Biso   1.000  C
  H101     1.0000 0.58470  0.09090  0.55760  Biso   1.000  H
  H102     1.0000 0.41530  0.09090  0.44240  Biso   1.000  H
  H103     1.0000 0.08470  0.59090  0.55760  Biso   1.000  H
  H104     1.0000 0.91530  0.59090  0.44240  Biso   1.000  H
  C117     1.0000 0.50840  0.16230  0.58440  Biso   1.000  C
  C118     1.0000 0.49160  0.16230  0.41560  Biso   1.000  C
  C119     1.0000 0.00840  0.66230  0.58440  Biso   1.000  C
  C120     1.0000 0.99160  0.66230  0.41560  Biso   1.000  C
  C121     1.0000 0.48840  0.25280  0.59520  Biso   1.000  C
  C122     1.0000 0.51160  0.25280  0.40480  Biso   1.000  C
  C123     1.0000 0.98840  0.75280  0.59520  Biso   1.000  C
  C124     1.0000 0.01160  0.75280  0.40480  Biso   1.000  C
  H105     1.0000 0.45190  0.26110  0.61270  Biso   1.000  H
  H106     1.0000 0.54810  0.26110  0.38730  Biso   1.000  H
  H107     1.0000 0.95190  0.76110  0.61270  Biso   1.000  H
  H108     1.0000 0.04810  0.76110  0.38730  Biso   1.000  H
  C125     1.0000 0.52170  0.32990  0.58040  Biso   1.000  C
  C126     1.0000 0.47830  0.32990  0.41960  Biso   1.000  C
  C127     1.0000 0.02170  0.82990  0.58040  Biso   1.000  C
  C128     1.0000 0.97830  0.82990  0.41960  Biso   1.000  C
  H109     1.0000 0.50690  0.39130  0.58610  Biso   1.000  H
  H110     1.0000 0.49310  0.39130  0.41390  Biso   1.000  H
  H111     1.0000 0.00690  0.89130  0.58610  Biso   1.000  H
  H112     1.0000 0.99310  0.89130  0.41390  Biso   1.000  H
  C129     1.0000 0.64230  0.39360  0.49970  Biso   1.000  C
  C130     1.0000 0.35770  0.39360  0.50030  Biso   1.000  C
  C131     1.0000 0.14230  0.89360  0.49970  Biso   1.000  C
  C132     1.0000 0.85770  0.89360  0.50030  Biso   1.000  C
  H113     1.0000 0.64810  0.34040  0.48030  Biso   1.000  H
  H114     1.0000 0.35190  0.34040  0.51970  Biso   1.000  H
  H115     1.0000 0.14810  0.84040  0.48030  Biso   1.000  H
  H116     1.0000 0.85190  0.84040  0.51970  Biso   1.000  H
  C133     1.0000 0.64610  0.52910  0.52820  Biso   1.000  C
  C134     1.0000 0.35390  0.52910  0.47180  Biso   1.000  C
  C135     1.0000 0.14610  0.02910  0.52820  Biso   1.000  C
  C136     1.0000 0.85390  0.02910  0.47180  Biso   1.000  C
  H117     1.0000 0.65800  0.59360  0.53300  Biso   1.000  H
  H118     1.0000 0.34200  0.59360  0.46700  Biso   1.000  H
  H119     1.0000 0.15800  0.09360  0.53300  Biso   1.000  H
  H120     1.0000 0.84200  0.09360  0.46700  Biso   1.000  H
  C137     1.0000 0.61470  0.48590  0.55600  Biso   1.000  C
  C138     1.0000 0.38530  0.48590  0.44400  Biso   1.000  C
  C139     1.0000 0.11470  0.98590  0.55600  Biso   1.000  C
  C140     1.0000 0.88530  0.98590  0.44400  Biso   1.000  C
  H121     1.0000 0.59650  0.51130  0.58230  Biso   1.000  H
  H122     1.0000 0.40350  0.51130  0.41770  Biso   1.000  H
  H123     1.0000 0.09650  0.01130  0.58230  Biso   1.000  H
  H124     1.0000 0.90350  0.01130  0.41770  Biso   1.000  H
  C141     1.0000 0.47000  0.08180  0.60180  Biso   1.000  C
  C142     1.0000 0.53000  0.08180  0.39820  Biso   1.000  C
  C143     1.0000 0.97000  0.58180  0.60180  Biso   1.000  C
  C144     1.0000 0.03000  0.58180  0.39820  Biso   1.000  C
  H125     1.0000 0.51030  0.03730  0.62270  Biso   1.000  H
  H126     1.0000 0.48970  0.03730  0.37730  Biso   1.000  H
  H127     1.0000 0.01030  0.53730  0.62270  Biso   1.000  H
  H128     1.0000 0.98970  0.53730  0.37730  Biso   1.000  H
  H129     1.0000 0.44180  0.10490  0.62490  Biso   1.000  H
  H130     1.0000 0.55820  0.10490  0.37510  Biso   1.000  H
  H131     1.0000 0.94180  0.60490  0.62490  Biso   1.000  H
  H132     1.0000 0.05820  0.60490  0.37510  Biso   1.000  H
  C145     1.0000 0.34360  0.06170  0.52660  Biso   1.000  C
  C146     1.0000 0.65640  0.06170  0.47340  Biso   1.000  C
  C147     1.0000 0.84360  0.56170  0.52660  Biso   1.000  C
  C148     1.0000 0.15640  0.56170  0.47340  Biso   1.000  C
  H133     1.0000 0.31900  0.11480  0.53480  Biso   1.000  H
  H134     1.0000 0.68100  0.11480  0.46520  Biso   1.000  H
  H135     1.0000 0.81900  0.61480  0.53480  Biso   1.000  H
  H136     1.0000 0.18100  0.61480  0.46520  Biso   1.000  H
  C149     1.0000 0.36560  0.93640  0.48620  Biso   1.000  C
  C150     1.0000 0.63440  0.93640  0.51380  Biso   1.000  C
  C151     1.0000 0.86560  0.43640  0.48620  Biso   1.000  C
  C152     1.0000 0.13440  0.43640  0.51380  Biso   1.000  C
  H137     1.0000 0.35950  0.88660  0.46170  Biso   1.000  H
  H138     1.0000 0.64050  0.88660  0.53830  Biso   1.000  H
  H139     1.0000 0.85950  0.38660  0.46170  Biso   1.000  H
  H140     1.0000 0.14050  0.38660  0.53830  Biso   1.000  H
  C153     1.0000 0.43050  0.95380  0.52970  Biso   1.000  C
  C154     1.0000 0.56950  0.95380  0.47030  Biso   1.000  C
  C155     1.0000 0.93050  0.45380  0.52970  Biso   1.000  C
  C156     1.0000 0.06950  0.45380  0.47030  Biso   1.000  C
  H141     1.0000 0.47750  0.91890  0.54110  Biso   1.000  H
  H142     1.0000 0.52250  0.91890  0.45890  Biso   1.000  H
  H143     1.0000 0.97750  0.41890  0.54110  Biso   1.000  H
  H144     1.0000 0.02250  0.41890  0.45890  Biso   1.000  H
  C157     1.0000 0.81950  0.72720  0.30680  Biso   1.000  C
  C158     1.0000 0.18050  0.72720  0.69320  Biso   1.000  C
  C159     1.0000 0.31950  0.22720  0.30680  Biso   1.000  C
  C160     1.0000 0.68050  0.22720  0.69320  Biso   1.000  C
  C161     1.0000 0.87690  0.71800  0.28530  Biso   1.000  C
  C162     1.0000 0.12310  0.71800  0.71470  Biso   1.000  C
  C163     1.0000 0.37690  0.21800  0.28530  Biso   1.000  C
  C164     1.0000 0.62310  0.21800  0.71470  Biso   1.000  C
  H145     1.0000 0.89610  0.65810  0.28130  Biso   1.000  H
  H146     1.0000 0.10390  0.65810  0.71870  Biso   1.000  H
  H147     1.0000 0.39610  0.15810  0.28130  Biso   1.000  H
  H148     1.0000 0.60390  0.15810  0.71870  Biso   1.000  H
  C165     1.0000 0.90600  0.79480  0.26960  Biso   1.000  C
  C166     1.0000 0.09400  0.79480  0.73040  Biso   1.000  C
  C167     1.0000 0.40600  0.29480  0.26960  Biso   1.000  C
  C168     1.0000 0.59400  0.29480  0.73040  Biso   1.000  C
  H149     1.0000 0.94180  0.78740  0.25130  Biso   1.000  H
  H150     1.0000 0.05820  0.78740  0.74870  Biso   1.000  H
  H151     1.0000 0.44180  0.28740  0.25130  Biso   1.000  H
  H152     1.0000 0.55820  0.28740  0.74870  Biso   1.000  H
  C169     1.0000 0.88550  0.88230  0.27920  Biso   1.000  C
  C170     1.0000 0.11450  0.88230  0.72080  Biso   1.000  C
  C171     1.0000 0.38550  0.38230  0.27920  Biso   1.000  C
  C172     1.0000 0.61450  0.38230  0.72080  Biso   1.000  C
  C173     1.0000 0.82870  0.89240  0.30380  Biso   1.000  C
  C174     1.0000 0.17130  0.89240  0.69620  Biso   1.000  C
  C175     1.0000 0.32870  0.39240  0.30380  Biso   1.000  C
  C176     1.0000 0.67130  0.39240  0.69620  Biso   1.000  C
  H153     1.0000 0.81270  0.95230  0.31100  Biso   1.000  H
  H154     1.0000 0.18730  0.95230  0.68900  Biso   1.000  H
  H155     1.0000 0.31270  0.45230  0.31100  Biso   1.000  H
  H156     1.0000 0.68730  0.45230  0.68900  Biso   1.000  H
  C177     1.0000 0.79590  0.80880  0.31750  Biso   1.000  C
  C178     1.0000 0.20410  0.80880  0.68250  Biso   1.000  C
  C179     1.0000 0.29590  0.30880  0.31750  Biso   1.000  C
  C180     1.0000 0.70410  0.30880  0.68250  Biso   1.000  C
  H157     1.0000 0.75770  0.81270  0.33400  Biso   1.000  H
  H158     1.0000 0.24230  0.81270  0.66600  Biso   1.000  H
  H159     1.0000 0.25770  0.31270  0.33400  Biso   1.000  H
  H160     1.0000 0.74230  0.31270  0.66600  Biso   1.000  H
  C181     1.0000 0.75210  0.64090  0.36010  Biso   1.000  C
  C182     1.0000 0.24790  0.64090  0.63990  Biso   1.000  C
  C183     1.0000 0.25210  0.14090  0.36010  Biso   1.000  C
  C184     1.0000 0.74790  0.14090  0.63990  Biso   1.000  C
  H161     1.0000 0.73610  0.69460  0.37420  Biso   1.000  H
  H162     1.0000 0.26390  0.69460  0.62580  Biso   1.000  H
  H163     1.0000 0.23610  0.19460  0.37420  Biso   1.000  H
  H164     1.0000 0.76390  0.19460  0.62580  Biso   1.000  H
  C185     1.0000 0.77600  0.49920  0.34600  Biso   1.000  C
  C186     1.0000 0.22400  0.49920  0.65400  Biso   1.000  C
  C187     1.0000 0.27600  0.99920  0.34600  Biso   1.000  C
  C188     1.0000 0.72400  0.99920  0.65400  Biso   1.000  C
  H165     1.0000 0.77980  0.43330  0.34840  Biso   1.000  H
  H166     1.0000 0.22020  0.43330  0.65160  Biso   1.000  H
  H167     1.0000 0.27980  0.93330  0.34840  Biso   1.000  H
  H168     1.0000 0.72020  0.93330  0.65160  Biso   1.000  H
  C189     1.0000 0.80460  0.55730  0.31480  Biso   1.000  C
  C190     1.0000 0.19540  0.55730  0.68520  Biso   1.000  C
  C191     1.0000 0.30460  0.05730  0.31480  Biso   1.000  C
  C192     1.0000 0.69540  0.05730  0.68520  Biso   1.000  C
  H169     1.0000 0.83020  0.53830  0.29110  Biso   1.000  H
  H170     1.0000 0.16980  0.53830  0.70890  Biso   1.000  H
  H171     1.0000 0.33020  0.03830  0.29110  Biso   1.000  H
  H172     1.0000 0.66980  0.03830  0.70890  Biso   1.000  H
  C193     1.0000 0.92490  0.96730  0.26720  Biso   1.000  C
  C194     1.0000 0.07510  0.96730  0.73280  Biso   1.000  C
  C195     1.0000 0.42490  0.46730  0.26720  Biso   1.000  C
  C196     1.0000 0.57510  0.46730  0.73280  Biso   1.000  C
  H173     1.0000 0.95090  0.95010  0.24180  Biso   1.000  H
  H174     1.0000 0.04910  0.95010  0.75820  Biso   1.000  H
  H175     1.0000 0.45090  0.45010  0.24180  Biso   1.000  H
  H176     1.0000 0.54910  0.45010  0.75820  Biso   1.000  H
  H177     1.0000 0.88470  0.01460  0.24980  Biso   1.000  H
  H178     1.0000 0.11530  0.01460  0.75020  Biso   1.000  H
  H179     1.0000 0.38470  0.51460  0.24980  Biso   1.000  H
  H180     1.0000 0.61530  0.51460  0.75020  Biso   1.000  H
  C197     1.0000 0.05610  0.98020  0.33830  Biso   1.000  C
  C198     1.0000 0.94390  0.98020  0.66170  Biso   1.000  C
  C199     1.0000 0.55610  0.48020  0.33830  Biso   1.000  C
  C200     1.0000 0.44390  0.48020  0.66170  Biso   1.000  C
  H181     1.0000 0.08050  0.93240  0.32530  Biso   1.000  H
  H182     1.0000 0.91950  0.93240  0.67470  Biso   1.000  H
  H183     1.0000 0.58050  0.43240  0.32530  Biso   1.000  H
  H184     1.0000 0.41950  0.43240  0.67470  Biso   1.000  H
  C201     1.0000 0.03380  0.08690  0.38690  Biso   1.000  C
  C202     1.0000 0.96620  0.08690  0.61310  Biso   1.000  C
  C203     1.0000 0.53380  0.58690  0.38690  Biso   1.000  C
  C204     1.0000 0.46620  0.58690  0.61310  Biso   1.000  C
  H185     1.0000 0.04090  0.13090  0.41470  Biso   1.000  H
  H186     1.0000 0.95910  0.13090  0.58530  Biso   1.000  H
  H187     1.0000 0.54090  0.63090  0.41470  Biso   1.000  H
  H188     1.0000 0.45910  0.63090  0.58530  Biso   1.000  H
  C205     1.0000 0.96800  0.07350  0.34690  Biso   1.000  C
  C206     1.0000 0.03200  0.07350  0.65310  Biso   1.000  C
  C207     1.0000 0.46800  0.57350  0.34690  Biso   1.000  C
  C208     1.0000 0.53200  0.57350  0.65310  Biso   1.000  C
  H189     1.0000 0.91980  0.10380  0.34180  Biso   1.000  H
  H190     1.0000 0.08020  0.10380  0.65820  Biso   1.000  H
  H191     1.0000 0.41980  0.60380  0.34180  Biso   1.000  H
  H192     1.0000 0.58020  0.60380  0.65820  Biso   1.000  H
