data_image0
_cell_length_a       12.7726
_cell_length_b       15.6346
_cell_length_c       14.1345
_cell_angle_alpha    90
_cell_angle_beta     112.175
_cell_angle_gamma    90

_symmetry_space_group_name_H-M    "P 1"
_symmetry_int_tables_number       1

loop_
  _symmetry_equiv_pos_as_xyz
  'x, y, z'

loop_
  _atom_site_label
  _atom_site_occupancy
  _atom_site_fract_x
  _atom_site_fract_y
  _atom_site_fract_z
  _atom_site_thermal_displace_type
  _atom_site_B_iso_or_equiv
  _atom_site_type_symbol
  Br1      1.0000 0.31893  0.36722  0.35748  Biso   1.000  Br
  Br2      1.0000 0.81893  0.86722  0.35748  Biso   1.000  Br
  Br3      1.0000 0.68107  0.36722  0.14252  Biso   1.000  Br
  Br4      1.0000 0.18107  0.86722  0.14252  Biso   1.000  Br
  Br5      1.0000 0.68107  0.63278  0.64252  Biso   1.000  Br
  Br6      1.0000 0.18107  0.13278  0.64252  Biso   1.000  Br
  Br7      1.0000 0.31893  0.63278  0.85748  Biso   1.000  Br
  Br8      1.0000 0.81893  0.13278  0.85748  Biso   1.000  Br
  Cu1      1.0000 0.25000  0.25000  0.50000  Biso   1.000  Cu
  Cu2      1.0000 0.75000  0.75000  0.50000  Biso   1.000  Cu
  Cu3      1.0000 0.75000  0.25000  0.00000  Biso   1.000  Cu
  Cu4      1.0000 0.25000  0.75000  0.00000  Biso   1.000  Cu
  O1       1.0000 0.50000  0.27950  0.25000  Biso   1.000  O
  O2       1.0000 0.00000  0.77950  0.25000  Biso   1.000  O
  O3       1.0000 0.50000  0.72050  0.75000  Biso   1.000  O
  O4       1.0000 0.00000  0.22050  0.75000  Biso   1.000  O
  H1       1.0000 0.45170  0.32390  0.26690  Biso   1.000  H
  H2       1.0000 0.95170  0.82390  0.26690  Biso   1.000  H
  H3       1.0000 0.54830  0.32390  0.23310  Biso   1.000  H
  H4       1.0000 0.04830  0.82390  0.23310  Biso   1.000  H
  H5       1.0000 0.54830  0.67610  0.73310  Biso   1.000  H
  H6       1.0000 0.04830  0.17610  0.73310  Biso   1.000  H
  H7       1.0000 0.45170  0.67610  0.76690  Biso   1.000  H
  H8       1.0000 0.95170  0.17610  0.76690  Biso   1.000  H
  N1       1.0000 0.55730  0.14304  0.52890  Biso   1.000  N
  N2       1.0000 0.05730  0.64304  0.52890  Biso   1.000  N
  N3       1.0000 0.44270  0.14304  0.97110  Biso   1.000  N
  N4       1.0000 0.94270  0.64304  0.97110  Biso   1.000  N
  N5       1.0000 0.44270  0.85696  0.47110  Biso   1.000  N
  N6       1.0000 0.94270  0.35696  0.47110  Biso   1.000  N
  N7       1.0000 0.55730  0.85696  0.02890  Biso   1.000  N
  N8       1.0000 0.05730  0.35696  0.02890  Biso   1.000  N
  N9       1.0000 0.39760  0.18569  0.53700  Biso   1.000  N
  N10      1.0000 0.89760  0.68569  0.53700  Biso   1.000  N
  N11      1.0000 0.60240  0.18569  0.96300  Biso   1.000  N
  N12      1.0000 0.10240  0.68569  0.96300  Biso   1.000  N
  N13      1.0000 0.60240  0.81431  0.46300  Biso   1.000  N
  N14      1.0000 0.10240  0.31431  0.46300  Biso   1.000  N
  N15      1.0000 0.39760  0.81431  0.03700  Biso   1.000  N
  N16      1.0000 0.89760  0.31431  0.03700  Biso   1.000  N
  N17      1.0000 0.87880  0.11141  0.27060  Biso   1.000  N
  N18      1.0000 0.37880  0.61141  0.27060  Biso   1.000  N
  N19      1.0000 0.12120  0.11141  0.22940  Biso   1.000  N
  N20      1.0000 0.62120  0.61141  0.22940  Biso   1.000  N
  N21      1.0000 0.12120  0.88859  0.72940  Biso   1.000  N
  N22      1.0000 0.62120  0.38859  0.72940  Biso   1.000  N
  N23      1.0000 0.87880  0.88859  0.77060  Biso   1.000  N
  N24      1.0000 0.37880  0.38859  0.77060  Biso   1.000  N
  N25      1.0000 0.81630  0.16836  0.11670  Biso   1.000  N
  N26      1.0000 0.31630  0.66836  0.11670  Biso   1.000  N
  N27      1.0000 0.18370  0.16836  0.38330  Biso   1.000  N
  N28      1.0000 0.68370  0.66836  0.38330  Biso   1.000  N
  N29      1.0000 0.18370  0.83164  0.88330  Biso   1.000  N
  N30      1.0000 0.68370  0.33164  0.88330  Biso   1.000  N
  N31      1.0000 0.81630  0.83164  0.61670  Biso   1.000  N
  N32      1.0000 0.31630  0.33164  0.61670  Biso   1.000  N
  C1       1.0000 0.64680  0.13360  0.49130  Biso   1.000  C
  C2       1.0000 0.14680  0.63360  0.49130  Biso   1.000  C
  C3       1.0000 0.35320  0.13360  0.00870  Biso   1.000  C
  C4       1.0000 0.85320  0.63360  0.00870  Biso   1.000  C
  C5       1.0000 0.35320  0.86640  0.50870  Biso   1.000  C
  C6       1.0000 0.85320  0.36640  0.50870  Biso   1.000  C
  C7       1.0000 0.64680  0.86640  0.99130  Biso   1.000  C
  C8       1.0000 0.14680  0.36640  0.99130  Biso   1.000  C
  C9       1.0000 0.75730  0.14140  0.55750  Biso   1.000  C
  C10      1.0000 0.25730  0.64140  0.55750  Biso   1.000  C
  C11      1.0000 0.24270  0.14140  0.94250  Biso   1.000  C
  C12      1.0000 0.74270  0.64140  0.94250  Biso   1.000  C
  C13      1.0000 0.24270  0.85860  0.44250  Biso   1.000  C
  C14      1.0000 0.74270  0.35860  0.44250  Biso   1.000  C
  C15      1.0000 0.75730  0.85860  0.05750  Biso   1.000  C
  C16      1.0000 0.25730  0.35860  0.05750  Biso   1.000  C
  H9       1.0000 0.77490  0.15280  0.62780  Biso   1.000  H
  H10      1.0000 0.27490  0.65280  0.62780  Biso   1.000  H
  H11      1.0000 0.22510  0.15280  0.87220  Biso   1.000  H
  H12      1.0000 0.72510  0.65280  0.87220  Biso   1.000  H
  H13      1.0000 0.22510  0.84720  0.37220  Biso   1.000  H
  H14      1.0000 0.72510  0.34720  0.37220  Biso   1.000  H
  H15      1.0000 0.77490  0.84720  0.12780  Biso   1.000  H
  H16      1.0000 0.27490  0.34720  0.12780  Biso   1.000  H
  C17      1.0000 0.84330  0.13240  0.52020  Biso   1.000  C
  C18      1.0000 0.34330  0.63240  0.52020  Biso   1.000  C
  C19      1.0000 0.15670  0.13240  0.97980  Biso   1.000  C
  C20      1.0000 0.65670  0.63240  0.97980  Biso   1.000  C
  C21      1.0000 0.15670  0.86760  0.47980  Biso   1.000  C
  C22      1.0000 0.65670  0.36760  0.47980  Biso   1.000  C
  C23      1.0000 0.84330  0.86760  0.02020  Biso   1.000  C
  C24      1.0000 0.34330  0.36760  0.02020  Biso   1.000  C
  H17      1.0000 0.91990  0.13750  0.56570  Biso   1.000  H
  H18      1.0000 0.41990  0.63750  0.56570  Biso   1.000  H
  H19      1.0000 0.08010  0.13750  0.93430  Biso   1.000  H
  H20      1.0000 0.58010  0.63750  0.93430  Biso   1.000  H
  H21      1.0000 0.08010  0.86250  0.43430  Biso   1.000  H
  H22      1.0000 0.58010  0.36250  0.43430  Biso   1.000  H
  H23      1.0000 0.91990  0.86250  0.06570  Biso   1.000  H
  H24      1.0000 0.41990  0.36250  0.06570  Biso   1.000  H
  C25      1.0000 0.81850  0.11600  0.41770  Biso   1.000  C
  C26      1.0000 0.31850  0.61600  0.41770  Biso   1.000  C
  C27      1.0000 0.18150  0.11600  0.08230  Biso   1.000  C
  C28      1.0000 0.68150  0.61600  0.08230  Biso   1.000  C
  C29      1.0000 0.18150  0.88400  0.58230  Biso   1.000  C
  C30      1.0000 0.68150  0.38400  0.58230  Biso   1.000  C
  C31      1.0000 0.81850  0.88400  0.91770  Biso   1.000  C
  C32      1.0000 0.31850  0.38400  0.91770  Biso   1.000  C
  C33      1.0000 0.70590  0.10960  0.35240  Biso   1.000  C
  C34      1.0000 0.20590  0.60960  0.35240  Biso   1.000  C
  C35      1.0000 0.29410  0.10960  0.14760  Biso   1.000  C
  C36      1.0000 0.79410  0.60960  0.14760  Biso   1.000  C
  C37      1.0000 0.29410  0.89040  0.64760  Biso   1.000  C
  C38      1.0000 0.79410  0.39040  0.64760  Biso   1.000  C
  C39      1.0000 0.70590  0.89040  0.85240  Biso   1.000  C
  C40      1.0000 0.20590  0.39040  0.85240  Biso   1.000  C
  H25      1.0000 0.68740  0.09950  0.28160  Biso   1.000  H
  H26      1.0000 0.18740  0.59950  0.28160  Biso   1.000  H
  H27      1.0000 0.31260  0.09950  0.21840  Biso   1.000  H
  H28      1.0000 0.81260  0.59950  0.21840  Biso   1.000  H
  H29      1.0000 0.31260  0.90050  0.71840  Biso   1.000  H
  H30      1.0000 0.81260  0.40050  0.71840  Biso   1.000  H
  H31      1.0000 0.68740  0.90050  0.78160  Biso   1.000  H
  H32      1.0000 0.18740  0.40050  0.78160  Biso   1.000  H
  C41      1.0000 0.62030  0.11790  0.38940  Biso   1.000  C
  C42      1.0000 0.12030  0.61790  0.38940  Biso   1.000  C
  C43      1.0000 0.37970  0.11790  0.11060  Biso   1.000  C
  C44      1.0000 0.87970  0.61790  0.11060  Biso   1.000  C
  C45      1.0000 0.37970  0.88210  0.61060  Biso   1.000  C
  C46      1.0000 0.87970  0.38210  0.61060  Biso   1.000  C
  C47      1.0000 0.62030  0.88210  0.88940  Biso   1.000  C
  C48      1.0000 0.12030  0.38210  0.88940  Biso   1.000  C
  H33      1.0000 0.54350  0.11260  0.34440  Biso   1.000  H
  H34      1.0000 0.04350  0.61260  0.34440  Biso   1.000  H
  H35      1.0000 0.45650  0.11260  0.15560  Biso   1.000  H
  H36      1.0000 0.95650  0.61260  0.15560  Biso   1.000  H
  H37      1.0000 0.45650  0.88740  0.65560  Biso   1.000  H
  H38      1.0000 0.95650  0.38740  0.65560  Biso   1.000  H
  H39      1.0000 0.54350  0.88740  0.84440  Biso   1.000  H
  H40      1.0000 0.04350  0.38740  0.84440  Biso   1.000  H
  C49      1.0000 0.46350  0.19080  0.48480  Biso   1.000  C
  C50      1.0000 0.96350  0.69080  0.48480  Biso   1.000  C
  C51      1.0000 0.53650  0.19080  0.01520  Biso   1.000  C
  C52      1.0000 0.03650  0.69080  0.01520  Biso   1.000  C
  C53      1.0000 0.53650  0.80920  0.51520  Biso   1.000  C
  C54      1.0000 0.03650  0.30920  0.51520  Biso   1.000  C
  C55      1.0000 0.46350  0.80920  0.98480  Biso   1.000  C
  C56      1.0000 0.96350  0.30920  0.98480  Biso   1.000  C
  H41      1.0000 0.44730  0.22370  0.42440  Biso   1.000  H
  H42      1.0000 0.94730  0.72370  0.42440  Biso   1.000  H
  H43      1.0000 0.55270  0.22370  0.07560  Biso   1.000  H
  H44      1.0000 0.05270  0.72370  0.07560  Biso   1.000  H
  H45      1.0000 0.55270  0.77630  0.57560  Biso   1.000  H
  H46      1.0000 0.05270  0.27630  0.57560  Biso   1.000  H
  H47      1.0000 0.44730  0.77630  0.92440  Biso   1.000  H
  H48      1.0000 0.94730  0.27630  0.92440  Biso   1.000  H
  C57      1.0000 0.45050  0.13210  0.61690  Biso   1.000  C
  C58      1.0000 0.95050  0.63210  0.61690  Biso   1.000  C
  C59      1.0000 0.54950  0.13210  0.88310  Biso   1.000  C
  C60      1.0000 0.04950  0.63210  0.88310  Biso   1.000  C
  C61      1.0000 0.54950  0.86790  0.38310  Biso   1.000  C
  C62      1.0000 0.04950  0.36790  0.38310  Biso   1.000  C
  C63      1.0000 0.45050  0.86790  0.11690  Biso   1.000  C
  C64      1.0000 0.95050  0.36790  0.11690  Biso   1.000  C
  H49      1.0000 0.42180  0.11580  0.66720  Biso   1.000  H
  H50      1.0000 0.92180  0.61580  0.66720  Biso   1.000  H
  H51      1.0000 0.57820  0.11580  0.83280  Biso   1.000  H
  H52      1.0000 0.07820  0.61580  0.83280  Biso   1.000  H
  H53      1.0000 0.57820  0.88420  0.33280  Biso   1.000  H
  H54      1.0000 0.07820  0.38420  0.33280  Biso   1.000  H
  H55      1.0000 0.42180  0.88420  0.16720  Biso   1.000  H
  H56      1.0000 0.92180  0.38420  0.16720  Biso   1.000  H
  C65      1.0000 0.55050  0.10560  0.61370  Biso   1.000  C
  C66      1.0000 0.05050  0.60560  0.61370  Biso   1.000  C
  C67      1.0000 0.44950  0.10560  0.88630  Biso   1.000  C
  C68      1.0000 0.94950  0.60560  0.88630  Biso   1.000  C
  C69      1.0000 0.44950  0.89440  0.38630  Biso   1.000  C
  C70      1.0000 0.94950  0.39440  0.38630  Biso   1.000  C
  C71      1.0000 0.55050  0.89440  0.11370  Biso   1.000  C
  C72      1.0000 0.05050  0.39440  0.11370  Biso   1.000  C
  H57      1.0000 0.60440  0.06870  0.66070  Biso   1.000  H
  H58      1.0000 0.10440  0.56870  0.66070  Biso   1.000  H
  H59      1.0000 0.39560  0.06870  0.83930  Biso   1.000  H
  H60      1.0000 0.89560  0.56870  0.83930  Biso   1.000  H
  H61      1.0000 0.39560  0.93130  0.33930  Biso   1.000  H
  H62      1.0000 0.89560  0.43130  0.33930  Biso   1.000  H
  H63      1.0000 0.60440  0.93130  0.16070  Biso   1.000  H
  H64      1.0000 0.10440  0.43130  0.16070  Biso   1.000  H
  C73      1.0000 0.91420  0.10350  0.38170  Biso   1.000  C
  C74      1.0000 0.41420  0.60350  0.38170  Biso   1.000  C
  C75      1.0000 0.08580  0.10350  0.11830  Biso   1.000  C
  C76      1.0000 0.58580  0.60350  0.11830  Biso   1.000  C
  C77      1.0000 0.08580  0.89650  0.61830  Biso   1.000  C
  C78      1.0000 0.58580  0.39650  0.61830  Biso   1.000  C
  C79      1.0000 0.91420  0.89650  0.88170  Biso   1.000  C
  C80      1.0000 0.41420  0.39650  0.88170  Biso   1.000  C
  H65      1.0000 0.97370  0.14640  0.41520  Biso   1.000  H
  H66      1.0000 0.47370  0.64640  0.41520  Biso   1.000  H
  H67      1.0000 0.02630  0.14640  0.08480  Biso   1.000  H
  H68      1.0000 0.52630  0.64640  0.08480  Biso   1.000  H
  H69      1.0000 0.02630  0.85360  0.58480  Biso   1.000  H
  H70      1.0000 0.52630  0.35360  0.58480  Biso   1.000  H
  H71      1.0000 0.97370  0.85360  0.91520  Biso   1.000  H
  H72      1.0000 0.47370  0.35360  0.91520  Biso   1.000  H
  H73      1.0000 0.94750  0.04610  0.40300  Biso   1.000  H
  H74      1.0000 0.44750  0.54610  0.40300  Biso   1.000  H
  H75      1.0000 0.05250  0.04610  0.09700  Biso   1.000  H
  H76      1.0000 0.55250  0.54610  0.09700  Biso   1.000  H
  H77      1.0000 0.05250  0.95390  0.59700  Biso   1.000  H
  H78      1.0000 0.55250  0.45390  0.59700  Biso   1.000  H
  H79      1.0000 0.94750  0.95390  0.90300  Biso   1.000  H
  H80      1.0000 0.44750  0.45390  0.90300  Biso   1.000  H
  C81      1.0000 0.85510  0.18460  0.21610  Biso   1.000  C
  C82      1.0000 0.35510  0.68460  0.21610  Biso   1.000  C
  C83      1.0000 0.14490  0.18460  0.28390  Biso   1.000  C
  C84      1.0000 0.64490  0.68460  0.28390  Biso   1.000  C
  C85      1.0000 0.14490  0.81540  0.78390  Biso   1.000  C
  C86      1.0000 0.64490  0.31540  0.78390  Biso   1.000  C
  C87      1.0000 0.85510  0.81540  0.71610  Biso   1.000  C
  C88      1.0000 0.35510  0.31540  0.71610  Biso   1.000  C
  H81      1.0000 0.86500  0.24030  0.24510  Biso   1.000  H
  H82      1.0000 0.36500  0.74030  0.24510  Biso   1.000  H
  H83      1.0000 0.13500  0.24030  0.25490  Biso   1.000  H
  H84      1.0000 0.63500  0.74030  0.25490  Biso   1.000  H
  H85      1.0000 0.13500  0.75970  0.75490  Biso   1.000  H
  H86      1.0000 0.63500  0.25970  0.75490  Biso   1.000  H
  H87      1.0000 0.86500  0.75970  0.74510  Biso   1.000  H
  H88      1.0000 0.36500  0.25970  0.74510  Biso   1.000  H
  C89      1.0000 0.81440  0.08090  0.10760  Biso   1.000  C
  C90      1.0000 0.31440  0.58090  0.10760  Biso   1.000  C
  C91      1.0000 0.18560  0.08090  0.39240  Biso   1.000  C
  C92      1.0000 0.68560  0.58090  0.39240  Biso   1.000  C
  C93      1.0000 0.18560  0.91910  0.89240  Biso   1.000  C
  C94      1.0000 0.68560  0.41910  0.89240  Biso   1.000  C
  C95      1.0000 0.81440  0.91910  0.60760  Biso   1.000  C
  C96      1.0000 0.31440  0.41910  0.60760  Biso   1.000  C
  H89      1.0000 0.79030  0.05030  0.04490  Biso   1.000  H
  H90      1.0000 0.29030  0.55030  0.04490  Biso   1.000  H
  H91      1.0000 0.20970  0.05030  0.45510  Biso   1.000  H
  H92      1.0000 0.70970  0.55030  0.45510  Biso   1.000  H
  H93      1.0000 0.20970  0.94970  0.95510  Biso   1.000  H
  H94      1.0000 0.70970  0.44970  0.95510  Biso   1.000  H
  H95      1.0000 0.79030  0.94970  0.54490  Biso   1.000  H
  H96      1.0000 0.29030  0.44970  0.54490  Biso   1.000  H
  C97      1.0000 0.85220  0.04470  0.20190  Biso   1.000  C
  C98      1.0000 0.35220  0.54470  0.20190  Biso   1.000  C
  C99      1.0000 0.14780  0.04470  0.29810  Biso   1.000  C
  C100     1.0000 0.64780  0.54470  0.29810  Biso   1.000  C
  C101     1.0000 0.14780  0.95530  0.79810  Biso   1.000  C
  C102     1.0000 0.64780  0.45530  0.79810  Biso   1.000  C
  C103     1.0000 0.85220  0.95530  0.70190  Biso   1.000  C
  C104     1.0000 0.35220  0.45530  0.70190  Biso   1.000  C
  H97      1.0000 0.85900  0.98530  0.21740  Biso   1.000  H
  H98      1.0000 0.35900  0.48530  0.21740  Biso   1.000  H
  H99      1.0000 0.14100  0.98530  0.28260  Biso   1.000  H
  H100     1.0000 0.64100  0.48530  0.28260  Biso   1.000  H
  H101     1.0000 0.14100  0.01470  0.78260  Biso   1.000  H
  H102     1.0000 0.64100  0.51470  0.78260  Biso   1.000  H
  H103     1.0000 0.85900  0.01470  0.71740  Biso   1.000  H
  H104     1.0000 0.35900  0.51470  0.71740  Biso   1.000  H
