data_image0
_cell_length_a       16.698
_cell_length_b       5.081
_cell_length_c       25.582
_cell_angle_alpha    90
_cell_angle_beta     96.39
_cell_angle_gamma    90

_symmetry_space_group_name_H-M    "P 1"
_symmetry_int_tables_number       1

loop_
  _symmetry_equiv_pos_as_xyz
  'x, y, z'

loop_
  _atom_site_label
  _atom_site_occupancy
  _atom_site_fract_x
  _atom_site_fract_y
  _atom_site_fract_z
  _atom_site_thermal_displace_type
  _atom_site_B_iso_or_equiv
  _atom_site_type_symbol
  Cu1      1.0000 0.25000  0.25000  0.50000  Biso   1.000  Cu
  Cu2      1.0000 0.75000  0.75000  0.50000  Biso   1.000  Cu
  Cu3      1.0000 0.75000  0.25000  0.00000  Biso   1.000  Cu
  Cu4      1.0000 0.25000  0.75000  0.00000  Biso   1.000  Cu
  P1       1.0000 0.25040  0.75000  0.57689  Biso   1.000  P
  P2       1.0000 0.75040  0.25000  0.57689  Biso   1.000  P
  P3       1.0000 0.74960  0.75000  0.92311  Biso   1.000  P
  P4       1.0000 0.24960  0.25000  0.92311  Biso   1.000  P
  P5       1.0000 0.74960  0.25000  0.42311  Biso   1.000  P
  P6       1.0000 0.24960  0.75000  0.42311  Biso   1.000  P
  P7       1.0000 0.25040  0.25000  0.07689  Biso   1.000  P
  P8       1.0000 0.75040  0.75000  0.07689  Biso   1.000  P
  O1       1.0000 0.26050  0.46360  0.56190  Biso   1.000  O
  O2       1.0000 0.76050  0.96360  0.56190  Biso   1.000  O
  O3       1.0000 0.73950  0.46360  0.93810  Biso   1.000  O
  O4       1.0000 0.23950  0.96360  0.93810  Biso   1.000  O
  O5       1.0000 0.73950  0.53640  0.43810  Biso   1.000  O
  O6       1.0000 0.23950  0.03640  0.43810  Biso   1.000  O
  O7       1.0000 0.26050  0.53640  0.06190  Biso   1.000  O
  O8       1.0000 0.76050  0.03640  0.06190  Biso   1.000  O
  O9       1.0000 0.28510  0.95170  0.54230  Biso   1.000  O
  O10      1.0000 0.78510  0.45170  0.54230  Biso   1.000  O
  O11      1.0000 0.71490  0.95170  0.95770  Biso   1.000  O
  O12      1.0000 0.21490  0.45170  0.95770  Biso   1.000  O
  O13      1.0000 0.71490  0.04830  0.45770  Biso   1.000  O
  O14      1.0000 0.21490  0.54830  0.45770  Biso   1.000  O
  O15      1.0000 0.28510  0.04830  0.04230  Biso   1.000  O
  O16      1.0000 0.78510  0.54830  0.04230  Biso   1.000  O
  C1       1.0000 0.30100  0.78500  0.64270  Biso   1.000  C
  C2       1.0000 0.80100  0.28500  0.64270  Biso   1.000  C
  C3       1.0000 0.69900  0.78500  0.85730  Biso   1.000  C
  C4       1.0000 0.19900  0.28500  0.85730  Biso   1.000  C
  C5       1.0000 0.69900  0.21500  0.35730  Biso   1.000  C
  C6       1.0000 0.19900  0.71500  0.35730  Biso   1.000  C
  C7       1.0000 0.30100  0.21500  0.14270  Biso   1.000  C
  C8       1.0000 0.80100  0.71500  0.14270  Biso   1.000  C
  C9       1.0000 0.35550  0.98600  0.65390  Biso   1.000  C
  C10      1.0000 0.85550  0.48600  0.65390  Biso   1.000  C
  C11      1.0000 0.64450  0.98600  0.84610  Biso   1.000  C
  C12      1.0000 0.14450  0.48600  0.84610  Biso   1.000  C
  C13      1.0000 0.64450  0.01400  0.34610  Biso   1.000  C
  C14      1.0000 0.14450  0.51400  0.34610  Biso   1.000  C
  C15      1.0000 0.35550  0.01400  0.15390  Biso   1.000  C
  C16      1.0000 0.85550  0.51400  0.15390  Biso   1.000  C
  C17      1.0000 0.39760  0.00500  0.70490  Biso   1.000  C
  C18      1.0000 0.89760  0.50500  0.70490  Biso   1.000  C
  C19      1.0000 0.60240  0.00500  0.79510  Biso   1.000  C
  C20      1.0000 0.10240  0.50500  0.79510  Biso   1.000  C
  C21      1.0000 0.60240  0.99500  0.29510  Biso   1.000  C
  C22      1.0000 0.10240  0.49500  0.29510  Biso   1.000  C
  C23      1.0000 0.39760  0.99500  0.20490  Biso   1.000  C
  C24      1.0000 0.89760  0.49500  0.20490  Biso   1.000  C
  C25      1.0000 0.38250  0.83500  0.74370  Biso   1.000  C
  C26      1.0000 0.88250  0.33500  0.74370  Biso   1.000  C
  C27      1.0000 0.61750  0.83500  0.75630  Biso   1.000  C
  C28      1.0000 0.11750  0.33500  0.75630  Biso   1.000  C
  C29      1.0000 0.61750  0.16500  0.25630  Biso   1.000  C
  C30      1.0000 0.11750  0.66500  0.25630  Biso   1.000  C
  C31      1.0000 0.38250  0.16500  0.24370  Biso   1.000  C
  C32      1.0000 0.88250  0.66500  0.24370  Biso   1.000  C
  C33      1.0000 0.32630  0.63500  0.73270  Biso   1.000  C
  C34      1.0000 0.82630  0.13500  0.73270  Biso   1.000  C
  C35      1.0000 0.67370  0.63500  0.76730  Biso   1.000  C
  C36      1.0000 0.17370  0.13500  0.76730  Biso   1.000  C
  C37      1.0000 0.67370  0.36500  0.26730  Biso   1.000  C
  C38      1.0000 0.17370  0.86500  0.26730  Biso   1.000  C
  C39      1.0000 0.32630  0.36500  0.23270  Biso   1.000  C
  C40      1.0000 0.82630  0.86500  0.23270  Biso   1.000  C
  C41      1.0000 0.28500  0.61100  0.68170  Biso   1.000  C
  C42      1.0000 0.78500  0.11100  0.68170  Biso   1.000  C
  C43      1.0000 0.71500  0.61100  0.81830  Biso   1.000  C
  C44      1.0000 0.21500  0.11100  0.81830  Biso   1.000  C
  C45      1.0000 0.71500  0.38900  0.31830  Biso   1.000  C
  C46      1.0000 0.21500  0.88900  0.31830  Biso   1.000  C
  C47      1.0000 0.28500  0.38900  0.18170  Biso   1.000  C
  C48      1.0000 0.78500  0.88900  0.18170  Biso   1.000  C
  C49      1.0000 0.14520  0.81900  0.58060  Biso   1.000  C
  C50      1.0000 0.64520  0.31900  0.58060  Biso   1.000  C
  C51      1.0000 0.85480  0.81900  0.91940  Biso   1.000  C
  C52      1.0000 0.35480  0.31900  0.91940  Biso   1.000  C
  C53      1.0000 0.85480  0.18100  0.41940  Biso   1.000  C
  C54      1.0000 0.35480  0.68100  0.41940  Biso   1.000  C
  C55      1.0000 0.14520  0.18100  0.08060  Biso   1.000  C
  C56      1.0000 0.64520  0.68100  0.08060  Biso   1.000  C
