data_image0
_cell_length_a       9.706
_cell_length_b       10.184
_cell_length_c       10.607
_cell_angle_alpha    62.712
_cell_angle_beta     85.47
_cell_angle_gamma    69.691

_symmetry_space_group_name_H-M    "P 1"
_symmetry_int_tables_number       1

loop_
  _symmetry_equiv_pos_as_xyz
  'x, y, z'

loop_
  _atom_site_label
  _atom_site_occupancy
  _atom_site_fract_x
  _atom_site_fract_y
  _atom_site_fract_z
  _atom_site_thermal_displace_type
  _atom_site_B_iso_or_equiv
  _atom_site_type_symbol
  Cu1      1.0000 0.00000  0.00000  0.00000  Biso   1.000  Cu
  N1       1.0000 0.78300  0.06110  0.01520  Biso   1.000  N
  N2       1.0000 0.21700  0.93890  0.98480  Biso   1.000  N
  N3       1.0000 0.96420  0.35930  0.42630  Biso   1.000  N
  N4       1.0000 0.03580  0.64070  0.57370  Biso   1.000  N
  H1       1.0000 0.00300  0.26000  0.49200  Biso   1.000  H
  H2       1.0000 0.99700  0.74000  0.50800  Biso   1.000  H
  N5       1.0000 0.81930  0.50900  0.61540  Biso   1.000  N
  N6       1.0000 0.18070  0.49100  0.38460  Biso   1.000  N
  H3       1.0000 0.84900  0.42300  0.69500  Biso   1.000  H
  H4       1.0000 0.15100  0.57700  0.30500  Biso   1.000  H
  Ni1      1.0000 0.00000  0.50000  0.50000  Biso   1.000  Ni
  O1       1.0000 0.00600  0.81430  0.17850  Biso   1.000  O
  O2       1.0000 0.99400  0.18570  0.82150  Biso   1.000  O
  O3       1.0000 0.85790  0.70460  0.32840  Biso   1.000  O
  O4       1.0000 0.14210  0.29540  0.67160  Biso   1.000  O
  O5       1.0000 0.23840  0.25860  0.04260  Biso   1.000  O
  O6       1.0000 0.76160  0.74140  0.95740  Biso   1.000  O
  O7       1.0000 0.31570  0.03200  0.23760  Biso   1.000  O
  O8       1.0000 0.68430  0.96800  0.76240  Biso   1.000  O
  O9       1.0000 0.01330  0.83840  0.87790  Biso   1.000  O
  O10      1.0000 0.98670  0.16160  0.12210  Biso   1.000  O
  H5       1.0000 0.92900  0.84000  0.87900  Biso   1.000  H
  H6       1.0000 0.07100  0.16000  0.12100  Biso   1.000  H
  H7       1.0000 0.06600  0.74800  0.92400  Biso   1.000  H
  H8       1.0000 0.93400  0.25200  0.07600  Biso   1.000  H
  C1       1.0000 0.74980  0.95560  0.13490  Biso   1.000  C
  C2       1.0000 0.25020  0.04440  0.86510  Biso   1.000  C
  C3       1.0000 0.60880  0.97610  0.17410  Biso   1.000  C
  C4       1.0000 0.39120  0.02390  0.82590  Biso   1.000  C
  H9       1.0000 0.59010  0.90020  0.25820  Biso   1.000  H
  H10      1.0000 0.40990  0.09980  0.74180  Biso   1.000  H
  C5       1.0000 0.49430  0.11150  0.08650  Biso   1.000  C
  C6       1.0000 0.50570  0.88850  0.91350  Biso   1.000  C
  C7       1.0000 0.52810  0.21890  0.96210  Biso   1.000  C
  C8       1.0000 0.47190  0.78110  0.03790  Biso   1.000  C
  H11      1.0000 0.45380  0.30980  0.89990  Biso   1.000  H
  H12      1.0000 0.54620  0.69020  0.10010  Biso   1.000  H
  C9       1.0000 0.67360  0.19030  0.93060  Biso   1.000  C
  C10      1.0000 0.32640  0.80970  0.06940  Biso   1.000  C
  H13      1.0000 0.69540  0.26420  0.84710  Biso   1.000  H
  H14      1.0000 0.30460  0.73580  0.15290  Biso   1.000  H
  C11      1.0000 0.88060  0.81280  0.22210  Biso   1.000  C
  C12      1.0000 0.11940  0.18720  0.77790  Biso   1.000  C
  C13      1.0000 0.33610  0.13580  0.12730  Biso   1.000  C
  C14      1.0000 0.66390  0.86420  0.87270  Biso   1.000  C
  C15      1.0000 0.80910  0.39070  0.38990  Biso   1.000  C
  C16      1.0000 0.19090  0.60930  0.61010  Biso   1.000  C
  H15      1.0000 0.80410  0.31550  0.36000  Biso   1.000  H
  H16      1.0000 0.19590  0.68450  0.64000  Biso   1.000  H
  H17      1.0000 0.76730  0.49570  0.31090  Biso   1.000  H
  H18      1.0000 0.23270  0.50430  0.68910  Biso   1.000  H
  C17      1.0000 0.71970  0.37840  0.51620  Biso   1.000  C
  C18      1.0000 0.28030  0.62160  0.48380  Biso   1.000  C
  H19      1.0000 0.62680  0.37210  0.49670  Biso   1.000  H
  H20      1.0000 0.37320  0.62790  0.50330  Biso   1.000  H
  H21      1.0000 0.77260  0.28060  0.59890  Biso   1.000  H
  H22      1.0000 0.22740  0.71940  0.40110  Biso   1.000  H
  C19      1.0000 0.68660  0.51220  0.55310  Biso   1.000  C
  C20      1.0000 0.31340  0.48780  0.44690  Biso   1.000  C
  H23      1.0000 0.64630  0.61180  0.46760  Biso   1.000  H
  H24      1.0000 0.35370  0.38820  0.53240  Biso   1.000  H
  H25      1.0000 0.61250  0.50560  0.62050  Biso   1.000  H
  H26      1.0000 0.38750  0.49440  0.37950  Biso   1.000  H
  C21      1.0000 0.79490  0.64050  0.64670  Biso   1.000  C
  C22      1.0000 0.20510  0.35950  0.35330  Biso   1.000  C
  H27      1.0000 0.73150  0.63250  0.72340  Biso   1.000  H
  H28      1.0000 0.26850  0.36750  0.27660  Biso   1.000  H
  H29      1.0000 0.74670  0.73970  0.56320  Biso   1.000  H
  H30      1.0000 0.25330  0.26030  0.43680  Biso   1.000  H
  C23      1.0000 0.05820  0.36400  0.31020  Biso   1.000  C
  C24      1.0000 0.94180  0.63600  0.68980  Biso   1.000  C
  H31      1.0000 0.07180  0.27430  0.29390  Biso   1.000  H
  H32      1.0000 0.92820  0.72570  0.70610  Biso   1.000  H
  H33      1.0000 0.01260  0.45980  0.22300  Biso   1.000  H
  H34      1.0000 0.98740  0.54020  0.77700  Biso   1.000  H
  O11      1.0000 0.08830  0.00150  0.60020  Biso   1.000  O
  O12      1.0000 0.91170  0.99850  0.39980  Biso   1.000  O
  H35      1.0000 0.04500  0.96800  0.67000  Biso   1.000  H
  H36      1.0000 0.95500  0.03200  0.33000  Biso   1.000  H
  O13      1.0000 0.53720  0.37790  0.20340  Biso   1.000  O
  O14      1.0000 0.46280  0.62210  0.79660  Biso   1.000  O
  H37      1.0000 0.58800  0.28600  0.25300  Biso   1.000  H
  H38      1.0000 0.41200  0.71400  0.74700  Biso   1.000  H
  H39      1.0000 0.48300  0.37200  0.15100  Biso   1.000  H
  H40      1.0000 0.51700  0.62800  0.84900  Biso   1.000  H
  O15      1.0000 0.60860  0.08010  0.47300  Biso   1.000  O
  O16      1.0000 0.39140  0.91990  0.52700  Biso   1.000  O
  H41      1.0000 0.61800  0.06200  0.55800  Biso   1.000  H
  H42      1.0000 0.38200  0.93800  0.44200  Biso   1.000  H
  H43      1.0000 0.68800  0.02200  0.46400  Biso   1.000  H
  H44      1.0000 0.31200  0.97800  0.53600  Biso   1.000  H
  O17      1.0000 0.73920  0.45730  0.00310  Biso   1.000  O
  O18      1.0000 0.26080  0.54270  0.99690  Biso   1.000  O
  H45      1.0000 0.67100  0.42600  0.03300  Biso   1.000  H
  H46      1.0000 0.32900  0.57400  0.96700  Biso   1.000  H
