data_image0
_cell_length_a       7.1
_cell_length_b       18.777
_cell_length_c       10.697
_cell_angle_alpha    90
_cell_angle_beta     101.396
_cell_angle_gamma    90

_symmetry_space_group_name_H-M    "P 1"
_symmetry_int_tables_number       1

loop_
  _symmetry_equiv_pos_as_xyz
  'x, y, z'

loop_
  _atom_site_label
  _atom_site_occupancy
  _atom_site_fract_x
  _atom_site_fract_y
  _atom_site_fract_z
  _atom_site_thermal_displace_type
  _atom_site_B_iso_or_equiv
  _atom_site_type_symbol
  Cu1      1.0000 0.50000  0.50000  0.00000  Biso   1.000  Cu
  Cu2      1.0000 0.50000  0.00000  0.50000  Biso   1.000  Cu
  Cu3      1.0000 0.24082  0.28862  0.27457  Biso   1.000  Cu
  Cu4      1.0000 0.75918  0.78862  0.22543  Biso   1.000  Cu
  Cu5      1.0000 0.75918  0.71138  0.72543  Biso   1.000  Cu
  Cu6      1.0000 0.24082  0.21138  0.77457  Biso   1.000  Cu
  O1       1.0000 0.33160  0.37707  0.14808  Biso   1.000  O
  O2       1.0000 0.66840  0.87707  0.35192  Biso   1.000  O
  O3       1.0000 0.66840  0.62293  0.85192  Biso   1.000  O
  O4       1.0000 0.33160  0.12293  0.64808  Biso   1.000  O
  O5       1.0000 0.41450  0.49219  0.16261  Biso   1.000  O
  O6       1.0000 0.58550  0.99219  0.33739  Biso   1.000  O
  O7       1.0000 0.58550  0.50781  0.83739  Biso   1.000  O
  O8       1.0000 0.41450  0.00781  0.66261  Biso   1.000  O
  O9       1.0000 0.26960  0.63066  0.53284  Biso   1.000  O
  O10      1.0000 0.73040  0.13066  0.96716  Biso   1.000  O
  O11      1.0000 0.73040  0.36934  0.46716  Biso   1.000  O
  O12      1.0000 0.26960  0.86934  0.03284  Biso   1.000  O
  O13      1.0000 0.17210  0.57236  0.69026  Biso   1.000  O
  O14      1.0000 0.82790  0.07236  0.80974  Biso   1.000  O
  O15      1.0000 0.82790  0.42764  0.30974  Biso   1.000  O
  O16      1.0000 0.17210  0.92764  0.19026  Biso   1.000  O
  O17      1.0000 0.21740  0.30031  0.67792  Biso   1.000  O
  O18      1.0000 0.78260  0.80031  0.82208  Biso   1.000  O
  O19      1.0000 0.78260  0.69969  0.32208  Biso   1.000  O
  O20      1.0000 0.21740  0.19969  0.17792  Biso   1.000  O
  O21      1.0000 0.18810  0.25134  0.48201  Biso   1.000  O
  O22      1.0000 0.81190  0.75134  0.01799  Biso   1.000  O
  O23      1.0000 0.81190  0.74866  0.51799  Biso   1.000  O
  O24      1.0000 0.18810  0.24866  0.98201  Biso   1.000  O
  O25      1.0000 0.51930  0.26418  0.33500  Biso   1.000  O
  O26      1.0000 0.48070  0.76418  0.16500  Biso   1.000  O
  O27      1.0000 0.48070  0.73582  0.66500  Biso   1.000  O
  O28      1.0000 0.51930  0.23582  0.83500  Biso   1.000  O
  H1       1.0000 0.54300  0.23670  0.39900  Biso   1.000  H
  H2       1.0000 0.45700  0.73670  0.10100  Biso   1.000  H
  H3       1.0000 0.45700  0.76330  0.60100  Biso   1.000  H
  H4       1.0000 0.54300  0.26330  0.89900  Biso   1.000  H
  H5       1.0000 0.57600  0.24840  0.27800  Biso   1.000  H
  H6       1.0000 0.42400  0.74840  0.22200  Biso   1.000  H
  H7       1.0000 0.42400  0.75160  0.72200  Biso   1.000  H
  H8       1.0000 0.57600  0.25160  0.77800  Biso   1.000  H
  O29      1.0000 0.96570  0.31064  0.20792  Biso   1.000  O
  O30      1.0000 0.03430  0.81064  0.29208  Biso   1.000  O
  O31      1.0000 0.03430  0.68936  0.79208  Biso   1.000  O
  O32      1.0000 0.96570  0.18936  0.70792  Biso   1.000  O
  H9       1.0000 0.90000  0.27360  0.21200  Biso   1.000  H
  H10      1.0000 0.10000  0.77360  0.28800  Biso   1.000  H
  H11      1.0000 0.10000  0.72640  0.78800  Biso   1.000  H
  H12      1.0000 0.90000  0.22640  0.71200  Biso   1.000  H
  H13      1.0000 0.92700  0.34500  0.24800  Biso   1.000  H
  H14      1.0000 0.07300  0.84500  0.25200  Biso   1.000  H
  H15      1.0000 0.07300  0.65500  0.75200  Biso   1.000  H
  H16      1.0000 0.92700  0.15500  0.74800  Biso   1.000  H
  O33      1.0000 0.21920  0.49744  0.90870  Biso   1.000  O
  O34      1.0000 0.78080  0.99744  0.59130  Biso   1.000  O
  O35      1.0000 0.78080  0.50256  0.09130  Biso   1.000  O
  O36      1.0000 0.21920  0.00256  0.40870  Biso   1.000  O
  H17      1.0000 0.18500  0.51100  0.83160  Biso   1.000  H
  H18      1.0000 0.81500  0.01100  0.66840  Biso   1.000  H
  H19      1.0000 0.81500  0.48900  0.16840  Biso   1.000  H
  H20      1.0000 0.18500  0.98900  0.33160  Biso   1.000  H
  H21      1.0000 0.13700  0.46800  0.92500  Biso   1.000  H
  H22      1.0000 0.86300  0.96800  0.57500  Biso   1.000  H
  H23      1.0000 0.86300  0.53200  0.07500  Biso   1.000  H
  H24      1.0000 0.13700  0.03200  0.42500  Biso   1.000  H
  O37      1.0000 0.44310  0.62590  0.02340  Biso   1.000  O
  O38      1.0000 0.55690  0.12590  0.47660  Biso   1.000  O
  O39      1.0000 0.55690  0.37410  0.97660  Biso   1.000  O
  O40      1.0000 0.44310  0.87410  0.52340  Biso   1.000  O
  H25      1.0000 0.47500  0.62600  0.95100  Biso   1.000  H
  H26      1.0000 0.52500  0.12600  0.54900  Biso   1.000  H
  H27      1.0000 0.52500  0.37400  0.04900  Biso   1.000  H
  H28      1.0000 0.47500  0.87400  0.45100  Biso   1.000  H
  H29      1.0000 0.54800  0.62000  0.07800  Biso   1.000  H
  H30      1.0000 0.45200  0.12000  0.42200  Biso   1.000  H
  H31      1.0000 0.45200  0.38000  0.92200  Biso   1.000  H
  H32      1.0000 0.54800  0.88000  0.57800  Biso   1.000  H
  N1       1.0000 0.26390  0.37791  0.38489  Biso   1.000  N
  N2       1.0000 0.73610  0.87791  0.11511  Biso   1.000  N
  N3       1.0000 0.73610  0.62209  0.61511  Biso   1.000  N
  N4       1.0000 0.26390  0.12209  0.88489  Biso   1.000  N
  C1       1.0000 0.34950  0.43572  0.20230  Biso   1.000  C
  C2       1.0000 0.65050  0.93572  0.29770  Biso   1.000  C
  C3       1.0000 0.65050  0.56428  0.79770  Biso   1.000  C
  C4       1.0000 0.34950  0.06428  0.70230  Biso   1.000  C
  C5       1.0000 0.29530  0.44071  0.33220  Biso   1.000  C
  C6       1.0000 0.70470  0.94071  0.16780  Biso   1.000  C
  C7       1.0000 0.70470  0.55929  0.66780  Biso   1.000  C
  C8       1.0000 0.29530  0.05929  0.83220  Biso   1.000  C
  C9       1.0000 0.28440  0.50480  0.39460  Biso   1.000  C
  C10      1.0000 0.71560  0.00480  0.10540  Biso   1.000  C
  C11      1.0000 0.71560  0.49520  0.60540  Biso   1.000  C
  C12      1.0000 0.28440  0.99520  0.89460  Biso   1.000  C
  H33      1.0000 0.30410  0.54759  0.35530  Biso   1.000  H
  H34      1.0000 0.69590  0.04759  0.14470  Biso   1.000  H
  H35      1.0000 0.69590  0.45241  0.64470  Biso   1.000  H
  H36      1.0000 0.30410  0.95241  0.85530  Biso   1.000  H
  C13      1.0000 0.24340  0.50454  0.51700  Biso   1.000  C
  C14      1.0000 0.75660  0.00454  0.98300  Biso   1.000  C
  C15      1.0000 0.75660  0.49546  0.48300  Biso   1.000  C
  C16      1.0000 0.24340  0.99546  0.01700  Biso   1.000  C
  C17      1.0000 0.22670  0.57469  0.58600  Biso   1.000  C
  C18      1.0000 0.77330  0.07469  0.91400  Biso   1.000  C
  C19      1.0000 0.77330  0.42531  0.41400  Biso   1.000  C
  C20      1.0000 0.22670  0.92531  0.08600  Biso   1.000  C
  C21      1.0000 0.22190  0.43877  0.57380  Biso   1.000  C
  C22      1.0000 0.77810  0.93877  0.92620  Biso   1.000  C
  C23      1.0000 0.77810  0.56123  0.42620  Biso   1.000  C
  C24      1.0000 0.22190  0.06123  0.07380  Biso   1.000  C
  H37      1.0000 0.20100  0.43666  0.65690  Biso   1.000  H
  H38      1.0000 0.79900  0.93666  0.84310  Biso   1.000  H
  H39      1.0000 0.79900  0.56334  0.34310  Biso   1.000  H
  H40      1.0000 0.20100  0.06334  0.15690  Biso   1.000  H
  C25      1.0000 0.23200  0.37659  0.50510  Biso   1.000  C
  C26      1.0000 0.76800  0.87659  0.99490  Biso   1.000  C
  C27      1.0000 0.76800  0.62341  0.49490  Biso   1.000  C
  C28      1.0000 0.23200  0.12341  0.00510  Biso   1.000  C
  C29      1.0000 0.20880  0.30216  0.55810  Biso   1.000  C
  C30      1.0000 0.79120  0.80216  0.94190  Biso   1.000  C
  C31      1.0000 0.79120  0.69784  0.44190  Biso   1.000  C
  C32      1.0000 0.20880  0.19784  0.05810  Biso   1.000  C
  O41      1.0000 0.24950  0.68877  0.29390  Biso   1.000  O
  O42      1.0000 0.75050  0.18877  0.20610  Biso   1.000  O
  O43      1.0000 0.75050  0.31123  0.70610  Biso   1.000  O
  O44      1.0000 0.24950  0.81123  0.79390  Biso   1.000  O
  H41      1.0000 0.25100  0.66880  0.36560  Biso   1.000  H
  H42      1.0000 0.74900  0.16880  0.13440  Biso   1.000  H
  H43      1.0000 0.74900  0.33120  0.63440  Biso   1.000  H
  H44      1.0000 0.25100  0.83120  0.86560  Biso   1.000  H
  H45      1.0000 0.18600  0.66250  0.23600  Biso   1.000  H
  H46      1.0000 0.81400  0.16250  0.26400  Biso   1.000  H
  H47      1.0000 0.81400  0.33750  0.76400  Biso   1.000  H
  H48      1.0000 0.18600  0.83750  0.73600  Biso   1.000  H
  O45      1.0000 0.97040  0.38177  0.91990  Biso   1.000  O
  O46      1.0000 0.02960  0.88177  0.58010  Biso   1.000  O
  O47      1.0000 0.02960  0.61823  0.08010  Biso   1.000  O
  O48      1.0000 0.97040  0.11823  0.41990  Biso   1.000  O
  H49      1.0000 0.04300  0.35120  0.96200  Biso   1.000  H
  H50      1.0000 0.95700  0.85120  0.53800  Biso   1.000  H
  H51      1.0000 0.95700  0.64880  0.03800  Biso   1.000  H
  H52      1.0000 0.04300  0.14880  0.46200  Biso   1.000  H
  H53      1.0000 0.88600  0.39400  0.96000  Biso   1.000  H
  H54      1.0000 0.11400  0.89400  0.54000  Biso   1.000  H
  H55      1.0000 0.11400  0.60600  0.04000  Biso   1.000  H
  H56      1.0000 0.88600  0.10600  0.46000  Biso   1.000  H
