data_image0
_cell_length_a       7.101
_cell_length_b       18.751
_cell_length_c       10.69
_cell_angle_alpha    90
_cell_angle_beta     101.41
_cell_angle_gamma    90

_symmetry_space_group_name_H-M    "P 1"
_symmetry_int_tables_number       1

loop_
  _symmetry_equiv_pos_as_xyz
  'x, y, z'

loop_
  _atom_site_label
  _atom_site_occupancy
  _atom_site_fract_x
  _atom_site_fract_y
  _atom_site_fract_z
  _atom_site_thermal_displace_type
  _atom_site_B_iso_or_equiv
  _atom_site_type_symbol
  Cu1      1.0000 0.25945  0.28859  0.22540  Biso   1.000  Cu
  Cu2      1.0000 0.74055  0.78859  0.27460  Biso   1.000  Cu
  Cu3      1.0000 0.74055  0.71141  0.77460  Biso   1.000  Cu
  Cu4      1.0000 0.25945  0.21141  0.72540  Biso   1.000  Cu
  Cu5      1.0000 0.00000  0.50000  0.50000  Biso   1.000  Cu
  Cu6      1.0000 0.00000  0.00000  0.00000  Biso   1.000  Cu
  O1       1.0000 0.16920  0.37710  0.35180  Biso   1.000  O
  O2       1.0000 0.83080  0.87710  0.14820  Biso   1.000  O
  O3       1.0000 0.83080  0.62290  0.64820  Biso   1.000  O
  O4       1.0000 0.16920  0.12290  0.85180  Biso   1.000  O
  O5       1.0000 0.08520  0.49217  0.33750  Biso   1.000  O
  O6       1.0000 0.91480  0.99217  0.16250  Biso   1.000  O
  O7       1.0000 0.91480  0.50783  0.66250  Biso   1.000  O
  O8       1.0000 0.08520  0.00783  0.83750  Biso   1.000  O
  O9       1.0000 0.31210  0.25134  0.01800  Biso   1.000  O
  O10      1.0000 0.68790  0.75134  0.48200  Biso   1.000  O
  O11      1.0000 0.68790  0.74866  0.98200  Biso   1.000  O
  O12      1.0000 0.31210  0.24866  0.51800  Biso   1.000  O
  O13      1.0000 0.28260  0.30026  0.82170  Biso   1.000  O
  O14      1.0000 0.71740  0.80026  0.67830  Biso   1.000  O
  O15      1.0000 0.71740  0.69974  0.17830  Biso   1.000  O
  O16      1.0000 0.28260  0.19974  0.32170  Biso   1.000  O
  O17      1.0000 0.22990  0.63049  0.96660  Biso   1.000  O
  O18      1.0000 0.77010  0.13049  0.53340  Biso   1.000  O
  O19      1.0000 0.77010  0.36951  0.03340  Biso   1.000  O
  O20      1.0000 0.22990  0.86951  0.46660  Biso   1.000  O
  O21      1.0000 0.32720  0.57223  0.80930  Biso   1.000  O
  O22      1.0000 0.67280  0.07223  0.69070  Biso   1.000  O
  O23      1.0000 0.67280  0.42777  0.19070  Biso   1.000  O
  O24      1.0000 0.32720  0.92777  0.30930  Biso   1.000  O
  O25      1.0000 0.98130  0.26391  0.16440  Biso   1.000  O
  O26      1.0000 0.01870  0.76391  0.33560  Biso   1.000  O
  O27      1.0000 0.01870  0.73609  0.83560  Biso   1.000  O
  O28      1.0000 0.98130  0.23609  0.66440  Biso   1.000  O
  H1       1.0000 0.92660  0.23990  0.21480  Biso   1.000  H
  H2       1.0000 0.07340  0.73990  0.28520  Biso   1.000  H
  H3       1.0000 0.07340  0.76010  0.78520  Biso   1.000  H
  H4       1.0000 0.92660  0.26010  0.71480  Biso   1.000  H
  H5       1.0000 0.91990  0.30000  0.12980  Biso   1.000  H
  H6       1.0000 0.08010  0.80000  0.37020  Biso   1.000  H
  H7       1.0000 0.08010  0.70000  0.87020  Biso   1.000  H
  H8       1.0000 0.91990  0.20000  0.62980  Biso   1.000  H
  O29      1.0000 0.53500  0.31065  0.29220  Biso   1.000  O
  O30      1.0000 0.46500  0.81065  0.20780  Biso   1.000  O
  O31      1.0000 0.46500  0.68935  0.70780  Biso   1.000  O
  O32      1.0000 0.53500  0.18935  0.79220  Biso   1.000  O
  H9       1.0000 0.58800  0.27090  0.28510  Biso   1.000  H
  H10      1.0000 0.41200  0.77090  0.21490  Biso   1.000  H
  H11      1.0000 0.41200  0.72910  0.71490  Biso   1.000  H
  H12      1.0000 0.58800  0.22910  0.78510  Biso   1.000  H
  H13      1.0000 0.57670  0.34400  0.25230  Biso   1.000  H
  H14      1.0000 0.42330  0.84400  0.24770  Biso   1.000  H
  H15      1.0000 0.42330  0.65600  0.74770  Biso   1.000  H
  H16      1.0000 0.57670  0.15600  0.75230  Biso   1.000  H
  O33      1.0000 0.28190  0.49741  0.59120  Biso   1.000  O
  O34      1.0000 0.71810  0.99741  0.90880  Biso   1.000  O
  O35      1.0000 0.71810  0.50259  0.40880  Biso   1.000  O
  O36      1.0000 0.28190  0.00259  0.09120  Biso   1.000  O
  H17      1.0000 0.29450  0.51590  0.66520  Biso   1.000  H
  H18      1.0000 0.70550  0.01590  0.83480  Biso   1.000  H
  H19      1.0000 0.70550  0.48410  0.33480  Biso   1.000  H
  H20      1.0000 0.29450  0.98410  0.16520  Biso   1.000  H
  H21      1.0000 0.36260  0.46490  0.58290  Biso   1.000  H
  H22      1.0000 0.63740  0.96490  0.91710  Biso   1.000  H
  H23      1.0000 0.63740  0.53510  0.41710  Biso   1.000  H
  H24      1.0000 0.36260  0.03510  0.08290  Biso   1.000  H
  O37      1.0000 0.05840  0.62660  0.47660  Biso   1.000  O
  O38      1.0000 0.94160  0.12660  0.02340  Biso   1.000  O
  O39      1.0000 0.94160  0.37340  0.52340  Biso   1.000  O
  O40      1.0000 0.05840  0.87340  0.97660  Biso   1.000  O
  H25      1.0000 0.94730  0.61740  0.43170  Biso   1.000  H
  H26      1.0000 0.05270  0.11740  0.06830  Biso   1.000  H
  H27      1.0000 0.05270  0.38260  0.56830  Biso   1.000  H
  H28      1.0000 0.94730  0.88260  0.93170  Biso   1.000  H
  H29      1.0000 0.06000  0.65310  0.54220  Biso   1.000  H
  H30      1.0000 0.94000  0.15310  0.95780  Biso   1.000  H
  H31      1.0000 0.94000  0.34690  0.45780  Biso   1.000  H
  H32      1.0000 0.06000  0.84690  0.04220  Biso   1.000  H
  N1       1.0000 0.23680  0.37784  0.11530  Biso   1.000  N
  N2       1.0000 0.76320  0.87784  0.38470  Biso   1.000  N
  N3       1.0000 0.76320  0.62216  0.88470  Biso   1.000  N
  N4       1.0000 0.23680  0.12216  0.61530  Biso   1.000  N
  C1       1.0000 0.15070  0.43561  0.29790  Biso   1.000  C
  C2       1.0000 0.84930  0.93561  0.20210  Biso   1.000  C
  C3       1.0000 0.84930  0.56439  0.70210  Biso   1.000  C
  C4       1.0000 0.15070  0.06439  0.79790  Biso   1.000  C
  C5       1.0000 0.20530  0.44089  0.16800  Biso   1.000  C
  C6       1.0000 0.79470  0.94089  0.33200  Biso   1.000  C
  C7       1.0000 0.79470  0.55911  0.83200  Biso   1.000  C
  C8       1.0000 0.20530  0.05911  0.66800  Biso   1.000  C
  C9       1.0000 0.21610  0.50454  0.10520  Biso   1.000  C
  C10      1.0000 0.78390  0.00454  0.39480  Biso   1.000  C
  C11      1.0000 0.78390  0.49546  0.89480  Biso   1.000  C
  C12      1.0000 0.21610  0.99546  0.60520  Biso   1.000  C
  H33      1.0000 0.19630  0.54740  0.14440  Biso   1.000  H
  H34      1.0000 0.80370  0.04740  0.35560  Biso   1.000  H
  H35      1.0000 0.80370  0.45260  0.85560  Biso   1.000  H
  H36      1.0000 0.19630  0.95260  0.64440  Biso   1.000  H
  C13      1.0000 0.25660  0.50450  0.98320  Biso   1.000  C
  C14      1.0000 0.74340  0.00450  0.51680  Biso   1.000  C
  C15      1.0000 0.74340  0.49550  0.01680  Biso   1.000  C
  C16      1.0000 0.25660  0.99550  0.48320  Biso   1.000  C
  C17      1.0000 0.27270  0.57486  0.91340  Biso   1.000  C
  C18      1.0000 0.72730  0.07486  0.58660  Biso   1.000  C
  C19      1.0000 0.72730  0.42514  0.08660  Biso   1.000  C
  C20      1.0000 0.27270  0.92514  0.41340  Biso   1.000  C
  C21      1.0000 0.27820  0.43884  0.92580  Biso   1.000  C
  C22      1.0000 0.72180  0.93884  0.57420  Biso   1.000  C
  C23      1.0000 0.72180  0.56116  0.07420  Biso   1.000  C
  C24      1.0000 0.27820  0.06116  0.42580  Biso   1.000  C
  H37      1.0000 0.29920  0.43680  0.84270  Biso   1.000  H
  H38      1.0000 0.70080  0.93680  0.65730  Biso   1.000  H
  H39      1.0000 0.70080  0.56320  0.15730  Biso   1.000  H
  H40      1.0000 0.29920  0.06320  0.34270  Biso   1.000  H
  C25      1.0000 0.26790  0.37664  0.99510  Biso   1.000  C
  C26      1.0000 0.73210  0.87664  0.50490  Biso   1.000  C
  C27      1.0000 0.73210  0.62336  0.00490  Biso   1.000  C
  C28      1.0000 0.26790  0.12336  0.49510  Biso   1.000  C
  C29      1.0000 0.29150  0.30215  0.94170  Biso   1.000  C
  C30      1.0000 0.70850  0.80215  0.55830  Biso   1.000  C
  C31      1.0000 0.70850  0.69785  0.05830  Biso   1.000  C
  C32      1.0000 0.29150  0.19785  0.44170  Biso   1.000  C
  O41      1.0000 0.75020  0.31092  0.79470  Biso   1.000  O
  O42      1.0000 0.24980  0.81092  0.70530  Biso   1.000  O
  O43      1.0000 0.24980  0.68908  0.20530  Biso   1.000  O
  O44      1.0000 0.75020  0.18908  0.29470  Biso   1.000  O
  H41      1.0000 0.75830  0.33020  0.86680  Biso   1.000  H
  H42      1.0000 0.24170  0.83020  0.63320  Biso   1.000  H
  H43      1.0000 0.24170  0.66980  0.13320  Biso   1.000  H
  H44      1.0000 0.75830  0.16980  0.36680  Biso   1.000  H
  H45      1.0000 0.68070  0.33080  0.73080  Biso   1.000  H
  H46      1.0000 0.31930  0.83080  0.76920  Biso   1.000  H
  H47      1.0000 0.31930  0.66920  0.26920  Biso   1.000  H
  H48      1.0000 0.68070  0.16920  0.23080  Biso   1.000  H
  O45      1.0000 0.52900  0.11845  0.08080  Biso   1.000  O
  O46      1.0000 0.47100  0.61845  0.41920  Biso   1.000  O
  O47      1.0000 0.47100  0.88155  0.91920  Biso   1.000  O
  O48      1.0000 0.52900  0.38155  0.58080  Biso   1.000  O
  H49      1.0000 0.60080  0.09720  0.03820  Biso   1.000  H
  H50      1.0000 0.39920  0.59720  0.46180  Biso   1.000  H
  H51      1.0000 0.39920  0.90280  0.96180  Biso   1.000  H
  H52      1.0000 0.60080  0.40280  0.53820  Biso   1.000  H
  H53      1.0000 0.46930  0.15500  0.04680  Biso   1.000  H
  H54      1.0000 0.53070  0.65500  0.45320  Biso   1.000  H
  H55      1.0000 0.53070  0.84500  0.95320  Biso   1.000  H
  H56      1.0000 0.46930  0.34500  0.54680  Biso   1.000  H
