data_image0
_cell_length_a       22.2846
_cell_length_b       14.42
_cell_length_c       13.6831
_cell_angle_alpha    90
_cell_angle_beta     110.406
_cell_angle_gamma    90

_symmetry_space_group_name_H-M    "P 1"
_symmetry_int_tables_number       1

loop_
  _symmetry_equiv_pos_as_xyz
  'x, y, z'

loop_
  _atom_site_label
  _atom_site_occupancy
  _atom_site_fract_x
  _atom_site_fract_y
  _atom_site_fract_z
  _atom_site_thermal_displace_type
  _atom_site_B_iso_or_equiv
  _atom_site_type_symbol
  C1       1.0000 0.82124  0.92151  0.37560  Biso   1.000  C
  C2       1.0000 0.17876  0.92151  0.12440  Biso   1.000  C
  C3       1.0000 0.32124  0.42151  0.37560  Biso   1.000  C
  C4       1.0000 0.67876  0.42151  0.12440  Biso   1.000  C
  C5       1.0000 0.17876  0.07849  0.62440  Biso   1.000  C
  C6       1.0000 0.82124  0.07849  0.87560  Biso   1.000  C
  C7       1.0000 0.67876  0.57849  0.62440  Biso   1.000  C
  C8       1.0000 0.32124  0.57849  0.87560  Biso   1.000  C
  H1       1.0000 0.79830  0.97370  0.38160  Biso   1.000  H
  H2       1.0000 0.20170  0.97370  0.11840  Biso   1.000  H
  H3       1.0000 0.29830  0.47370  0.38160  Biso   1.000  H
  H4       1.0000 0.70170  0.47370  0.11840  Biso   1.000  H
  H5       1.0000 0.20170  0.02630  0.61840  Biso   1.000  H
  H6       1.0000 0.79830  0.02630  0.88160  Biso   1.000  H
  H7       1.0000 0.70170  0.52630  0.61840  Biso   1.000  H
  H8       1.0000 0.29830  0.52630  0.88160  Biso   1.000  H
  C9       1.0000 0.89856  0.83248  0.36180  Biso   1.000  C
  C10      1.0000 0.10144  0.83248  0.13820  Biso   1.000  C
  C11      1.0000 0.39856  0.33248  0.36180  Biso   1.000  C
  C12      1.0000 0.60144  0.33248  0.13820  Biso   1.000  C
  C13      1.0000 0.10144  0.16752  0.63820  Biso   1.000  C
  C14      1.0000 0.89856  0.16752  0.86180  Biso   1.000  C
  C15      1.0000 0.60144  0.66752  0.63820  Biso   1.000  C
  C16      1.0000 0.39856  0.66752  0.86180  Biso   1.000  C
  H9       1.0000 0.93690  0.81170  0.35680  Biso   1.000  H
  H10      1.0000 0.06310  0.81170  0.14320  Biso   1.000  H
  H11      1.0000 0.43690  0.31170  0.35680  Biso   1.000  H
  H12      1.0000 0.56310  0.31170  0.14320  Biso   1.000  H
  H13      1.0000 0.06310  0.18830  0.64320  Biso   1.000  H
  H14      1.0000 0.93690  0.18830  0.85680  Biso   1.000  H
  H15      1.0000 0.56310  0.68830  0.64320  Biso   1.000  H
  H16      1.0000 0.43690  0.68830  0.85680  Biso   1.000  H
  C17      1.0000 0.84805  0.78061  0.36100  Biso   1.000  C
  C18      1.0000 0.15195  0.78061  0.13900  Biso   1.000  C
  C19      1.0000 0.34805  0.28061  0.36100  Biso   1.000  C
  C20      1.0000 0.65195  0.28061  0.13900  Biso   1.000  C
  C21      1.0000 0.15195  0.21939  0.63900  Biso   1.000  C
  C22      1.0000 0.84805  0.21939  0.86100  Biso   1.000  C
  C23      1.0000 0.65195  0.71939  0.63900  Biso   1.000  C
  C24      1.0000 0.34805  0.71939  0.86100  Biso   1.000  C
  H17      1.0000 0.84600  0.71630  0.35550  Biso   1.000  H
  H18      1.0000 0.15400  0.71630  0.14450  Biso   1.000  H
  H19      1.0000 0.34600  0.21630  0.35550  Biso   1.000  H
  H20      1.0000 0.65400  0.21630  0.14450  Biso   1.000  H
  H21      1.0000 0.15400  0.28370  0.64450  Biso   1.000  H
  H22      1.0000 0.84600  0.28370  0.85550  Biso   1.000  H
  H23      1.0000 0.65400  0.78370  0.64450  Biso   1.000  H
  H24      1.0000 0.34600  0.78370  0.85550  Biso   1.000  H
  C25      1.0000 0.09869  0.19980  0.37840  Biso   1.000  C
  C26      1.0000 0.90131  0.19980  0.12160  Biso   1.000  C
  C27      1.0000 0.59869  0.69980  0.37840  Biso   1.000  C
  C28      1.0000 0.40131  0.69980  0.12160  Biso   1.000  C
  C29      1.0000 0.90131  0.80020  0.62160  Biso   1.000  C
  C30      1.0000 0.09869  0.80020  0.87840  Biso   1.000  C
  C31      1.0000 0.40131  0.30020  0.62160  Biso   1.000  C
  C32      1.0000 0.59869  0.30020  0.87840  Biso   1.000  C
  C33      1.0000 0.08737  0.34625  0.39950  Biso   1.000  C
  C34      1.0000 0.91263  0.34625  0.10050  Biso   1.000  C
  C35      1.0000 0.58737  0.84625  0.39950  Biso   1.000  C
  C36      1.0000 0.41263  0.84625  0.10050  Biso   1.000  C
  C37      1.0000 0.91263  0.65375  0.60050  Biso   1.000  C
  C38      1.0000 0.08737  0.65375  0.89950  Biso   1.000  C
  C39      1.0000 0.41263  0.15375  0.60050  Biso   1.000  C
  C40      1.0000 0.58737  0.15375  0.89950  Biso   1.000  C
  H25      1.0000 0.09620  0.40940  0.40750  Biso   1.000  H
  H26      1.0000 0.90380  0.40940  0.09250  Biso   1.000  H
  H27      1.0000 0.59620  0.90940  0.40750  Biso   1.000  H
  H28      1.0000 0.40380  0.90940  0.09250  Biso   1.000  H
  H29      1.0000 0.90380  0.59060  0.59250  Biso   1.000  H
  H30      1.0000 0.09620  0.59060  0.90750  Biso   1.000  H
  H31      1.0000 0.40380  0.09060  0.59250  Biso   1.000  H
  H32      1.0000 0.59620  0.09060  0.90750  Biso   1.000  H
  C41      1.0000 0.03337  0.30652  0.39980  Biso   1.000  C
  C42      1.0000 0.96663  0.30652  0.10020  Biso   1.000  C
  C43      1.0000 0.53337  0.80652  0.39980  Biso   1.000  C
  C44      1.0000 0.46663  0.80652  0.10020  Biso   1.000  C
  C45      1.0000 0.96663  0.69348  0.60020  Biso   1.000  C
  C46      1.0000 0.03337  0.69348  0.89980  Biso   1.000  C
  C47      1.0000 0.46663  0.19348  0.60020  Biso   1.000  C
  C48      1.0000 0.53337  0.19348  0.89980  Biso   1.000  C
  H33      1.0000 0.99830  0.33610  0.40780  Biso   1.000  H
  H34      1.0000 0.00170  0.33610  0.09220  Biso   1.000  H
  H35      1.0000 0.49830  0.83610  0.40780  Biso   1.000  H
  H36      1.0000 0.50170  0.83610  0.09220  Biso   1.000  H
  H37      1.0000 0.00170  0.66390  0.59220  Biso   1.000  H
  H38      1.0000 0.99830  0.66390  0.90780  Biso   1.000  H
  H39      1.0000 0.50170  0.16390  0.59220  Biso   1.000  H
  H40      1.0000 0.49830  0.16390  0.90780  Biso   1.000  H
  C49      1.0000 0.99554  0.14191  0.38541  Biso   1.000  C
  C50      1.0000 0.00446  0.14191  0.11459  Biso   1.000  C
  C51      1.0000 0.49554  0.64191  0.38541  Biso   1.000  C
  C52      1.0000 0.50446  0.64191  0.11459  Biso   1.000  C
  C53      1.0000 0.00446  0.85809  0.61459  Biso   1.000  C
  C54      1.0000 0.99554  0.85809  0.88541  Biso   1.000  C
  C55      1.0000 0.50446  0.35809  0.61459  Biso   1.000  C
  C56      1.0000 0.49554  0.35809  0.88541  Biso   1.000  C
  C57      1.0000 0.93957  0.16220  0.40210  Biso   1.000  C
  C58      1.0000 0.06043  0.16220  0.09790  Biso   1.000  C
  C59      1.0000 0.43957  0.66220  0.40210  Biso   1.000  C
  C60      1.0000 0.56043  0.66220  0.09790  Biso   1.000  C
  C61      1.0000 0.06043  0.83780  0.59790  Biso   1.000  C
  C62      1.0000 0.93957  0.83780  0.90210  Biso   1.000  C
  C63      1.0000 0.56043  0.33780  0.59790  Biso   1.000  C
  C64      1.0000 0.43957  0.33780  0.90210  Biso   1.000  C
  H41      1.0000 0.92920  0.22250  0.41440  Biso   1.000  H
  H42      1.0000 0.07080  0.22250  0.08560  Biso   1.000  H
  H43      1.0000 0.42920  0.72250  0.41440  Biso   1.000  H
  H44      1.0000 0.57080  0.72250  0.08560  Biso   1.000  H
  H45      1.0000 0.07080  0.77750  0.58560  Biso   1.000  H
  H46      1.0000 0.92920  0.77750  0.91440  Biso   1.000  H
  H47      1.0000 0.57080  0.27750  0.58560  Biso   1.000  H
  H48      1.0000 0.42920  0.27750  0.91440  Biso   1.000  H
  C65      1.0000 0.90029  0.08940  0.39980  Biso   1.000  C
  C66      1.0000 0.09971  0.08940  0.10020  Biso   1.000  C
  C67      1.0000 0.40029  0.58940  0.39980  Biso   1.000  C
  C68      1.0000 0.59971  0.58940  0.10020  Biso   1.000  C
  C69      1.0000 0.09971  0.91060  0.60020  Biso   1.000  C
  C70      1.0000 0.90029  0.91060  0.89980  Biso   1.000  C
  C71      1.0000 0.59971  0.41060  0.60020  Biso   1.000  C
  C72      1.0000 0.40029  0.41060  0.89980  Biso   1.000  C
  H49      1.0000 0.86210  0.09750  0.41190  Biso   1.000  H
  H50      1.0000 0.13790  0.09750  0.08810  Biso   1.000  H
  H51      1.0000 0.36210  0.59750  0.41190  Biso   1.000  H
  H52      1.0000 0.63790  0.59750  0.08810  Biso   1.000  H
  H53      1.0000 0.13790  0.90250  0.58810  Biso   1.000  H
  H54      1.0000 0.86210  0.90250  0.91190  Biso   1.000  H
  H55      1.0000 0.63790  0.40250  0.58810  Biso   1.000  H
  H56      1.0000 0.36210  0.40250  0.91190  Biso   1.000  H
  C73      1.0000 0.91959  0.00274  0.37869  Biso   1.000  C
  C74      1.0000 0.08041  0.00274  0.12131  Biso   1.000  C
  C75      1.0000 0.41959  0.50274  0.37869  Biso   1.000  C
  C76      1.0000 0.58041  0.50274  0.12131  Biso   1.000  C
  C77      1.0000 0.08041  0.99726  0.62131  Biso   1.000  C
  C78      1.0000 0.91959  0.99726  0.87869  Biso   1.000  C
  C79      1.0000 0.58041  0.49726  0.62131  Biso   1.000  C
  C80      1.0000 0.41959  0.49726  0.87869  Biso   1.000  C
  C81      1.0000 0.14801  0.44719  0.24780  Biso   1.000  C
  C82      1.0000 0.85199  0.44719  0.25220  Biso   1.000  C
  C83      1.0000 0.64801  0.94719  0.24780  Biso   1.000  C
  C84      1.0000 0.35199  0.94719  0.25220  Biso   1.000  C
  C85      1.0000 0.85199  0.55281  0.75220  Biso   1.000  C
  C86      1.0000 0.14801  0.55281  0.74780  Biso   1.000  C
  C87      1.0000 0.35199  0.05281  0.75220  Biso   1.000  C
  C88      1.0000 0.64801  0.05281  0.74780  Biso   1.000  C
  C89      1.0000 0.11782  0.54150  0.23340  Biso   1.000  C
  C90      1.0000 0.88218  0.54150  0.26660  Biso   1.000  C
  C91      1.0000 0.61782  0.04150  0.23340  Biso   1.000  C
  C92      1.0000 0.38218  0.04150  0.26660  Biso   1.000  C
  C93      1.0000 0.88218  0.45850  0.76660  Biso   1.000  C
  C94      1.0000 0.11782  0.45850  0.73340  Biso   1.000  C
  C95      1.0000 0.38218  0.95850  0.76660  Biso   1.000  C
  C96      1.0000 0.61782  0.95850  0.73340  Biso   1.000  C
  H57      1.0000 0.10390  0.55830  0.16100  Biso   1.000  H
  H58      1.0000 0.89610  0.55830  0.33900  Biso   1.000  H
  H59      1.0000 0.60390  0.05830  0.16100  Biso   1.000  H
  H60      1.0000 0.39610  0.05830  0.33900  Biso   1.000  H
  H61      1.0000 0.89610  0.44170  0.83900  Biso   1.000  H
  H62      1.0000 0.10390  0.44170  0.66100  Biso   1.000  H
  H63      1.0000 0.39610  0.94170  0.83900  Biso   1.000  H
  H64      1.0000 0.60390  0.94170  0.66100  Biso   1.000  H
  H65      1.0000 0.14860  0.58610  0.27370  Biso   1.000  H
  H66      1.0000 0.85140  0.58610  0.22630  Biso   1.000  H
  H67      1.0000 0.64860  0.08610  0.27370  Biso   1.000  H
  H68      1.0000 0.35140  0.08610  0.22630  Biso   1.000  H
  H69      1.0000 0.85140  0.41390  0.72630  Biso   1.000  H
  H70      1.0000 0.14860  0.41390  0.77370  Biso   1.000  H
  H71      1.0000 0.35140  0.91390  0.72630  Biso   1.000  H
  H72      1.0000 0.64860  0.91390  0.77370  Biso   1.000  H
  H73      1.0000 0.08170  0.54060  0.25620  Biso   1.000  H
  H74      1.0000 0.91830  0.54060  0.24380  Biso   1.000  H
  H75      1.0000 0.58170  0.04060  0.25620  Biso   1.000  H
  H76      1.0000 0.41830  0.04060  0.24380  Biso   1.000  H
  H77      1.0000 0.91830  0.45940  0.74380  Biso   1.000  H
  H78      1.0000 0.08170  0.45940  0.75620  Biso   1.000  H
  H79      1.0000 0.41830  0.95940  0.74380  Biso   1.000  H
  H80      1.0000 0.58170  0.95940  0.75620  Biso   1.000  H
  C97      1.0000 0.26126  0.38794  0.63580  Biso   1.000  C
  C98      1.0000 0.73874  0.38794  0.86420  Biso   1.000  C
  C99      1.0000 0.76126  0.88794  0.63580  Biso   1.000  C
  C100     1.0000 0.23874  0.88794  0.86420  Biso   1.000  C
  C101     1.0000 0.73874  0.61206  0.36420  Biso   1.000  C
  C102     1.0000 0.26126  0.61206  0.13580  Biso   1.000  C
  C103     1.0000 0.23874  0.11206  0.36420  Biso   1.000  C
  C104     1.0000 0.76126  0.11206  0.13580  Biso   1.000  C
  C105     1.0000 0.24790  0.48430  0.59260  Biso   1.000  C
  C106     1.0000 0.75210  0.48430  0.90740  Biso   1.000  C
  C107     1.0000 0.74790  0.98430  0.59260  Biso   1.000  C
  C108     1.0000 0.25210  0.98430  0.90740  Biso   1.000  C
  C109     1.0000 0.75210  0.51570  0.40740  Biso   1.000  C
  C110     1.0000 0.24790  0.51570  0.09260  Biso   1.000  C
  C111     1.0000 0.25210  0.01570  0.40740  Biso   1.000  C
  C112     1.0000 0.74790  0.01570  0.09260  Biso   1.000  C
  H81      1.0000 0.25330  0.52740  0.64850  Biso   1.000  H
  H82      1.0000 0.74670  0.52740  0.85150  Biso   1.000  H
  H83      1.0000 0.75330  0.02740  0.64850  Biso   1.000  H
  H84      1.0000 0.24670  0.02740  0.85150  Biso   1.000  H
  H85      1.0000 0.74670  0.47260  0.35150  Biso   1.000  H
  H86      1.0000 0.25330  0.47260  0.14850  Biso   1.000  H
  H87      1.0000 0.24670  0.97260  0.35150  Biso   1.000  H
  H88      1.0000 0.75330  0.97260  0.14850  Biso   1.000  H
  H89      1.0000 0.20480  0.48770  0.54410  Biso   1.000  H
  H90      1.0000 0.79520  0.48770  0.95590  Biso   1.000  H
  H91      1.0000 0.70480  0.98770  0.54410  Biso   1.000  H
  H92      1.0000 0.29520  0.98770  0.95590  Biso   1.000  H
  H93      1.0000 0.79520  0.51230  0.45590  Biso   1.000  H
  H94      1.0000 0.20480  0.51230  0.04410  Biso   1.000  H
  H95      1.0000 0.29520  0.01230  0.45590  Biso   1.000  H
  H96      1.0000 0.70480  0.01230  0.04410  Biso   1.000  H
  H97      1.0000 0.27720  0.49950  0.55760  Biso   1.000  H
  H98      1.0000 0.72280  0.49950  0.94240  Biso   1.000  H
  H99      1.0000 0.77720  0.99950  0.55760  Biso   1.000  H
  H100     1.0000 0.22280  0.99950  0.94240  Biso   1.000  H
  H101     1.0000 0.72280  0.50050  0.44240  Biso   1.000  H
  H102     1.0000 0.27720  0.50050  0.05760  Biso   1.000  H
  H103     1.0000 0.22280  0.00050  0.44240  Biso   1.000  H
  H104     1.0000 0.77720  0.00050  0.05760  Biso   1.000  H
  Cu1      1.0000 0.21587  0.30458  0.38240  Biso   1.000  Cu
  Cu2      1.0000 0.78413  0.30458  0.11760  Biso   1.000  Cu
  Cu3      1.0000 0.71587  0.80458  0.38240  Biso   1.000  Cu
  Cu4      1.0000 0.28413  0.80458  0.11760  Biso   1.000  Cu
  Cu5      1.0000 0.78413  0.69542  0.61760  Biso   1.000  Cu
  Cu6      1.0000 0.21587  0.69542  0.88240  Biso   1.000  Cu
  Cu7      1.0000 0.28413  0.19542  0.61760  Biso   1.000  Cu
  Cu8      1.0000 0.71587  0.19542  0.88240  Biso   1.000  Cu
  N1       1.0000 0.88116  0.92329  0.37164  Biso   1.000  N
  N2       1.0000 0.11884  0.92329  0.12836  Biso   1.000  N
  N3       1.0000 0.38116  0.42329  0.37164  Biso   1.000  N
  N4       1.0000 0.61884  0.42329  0.12836  Biso   1.000  N
  N5       1.0000 0.11884  0.07671  0.62836  Biso   1.000  N
  N6       1.0000 0.88116  0.07671  0.87164  Biso   1.000  N
  N7       1.0000 0.61884  0.57671  0.62836  Biso   1.000  N
  N8       1.0000 0.38116  0.57671  0.87164  Biso   1.000  N
  N9       1.0000 0.79996  0.83623  0.36964  Biso   1.000  N
  N10      1.0000 0.20004  0.83623  0.13036  Biso   1.000  N
  N11      1.0000 0.29996  0.33623  0.36964  Biso   1.000  N
  N12      1.0000 0.70004  0.33623  0.13036  Biso   1.000  N
  N13      1.0000 0.20004  0.16377  0.63036  Biso   1.000  N
  N14      1.0000 0.79996  0.16377  0.86964  Biso   1.000  N
  N15      1.0000 0.70004  0.66377  0.63036  Biso   1.000  N
  N16      1.0000 0.29996  0.66377  0.86964  Biso   1.000  N
  N17      1.0000 0.12814  0.27991  0.38550  Biso   1.000  N
  N18      1.0000 0.87186  0.27991  0.11450  Biso   1.000  N
  N19      1.0000 0.62814  0.77991  0.38550  Biso   1.000  N
  N20      1.0000 0.37186  0.77991  0.11450  Biso   1.000  N
  N21      1.0000 0.87186  0.72009  0.61450  Biso   1.000  N
  N22      1.0000 0.12814  0.72009  0.88550  Biso   1.000  N
  N23      1.0000 0.37186  0.22009  0.61450  Biso   1.000  N
  N24      1.0000 0.62814  0.22009  0.88550  Biso   1.000  N
  N25      1.0000 0.03998  0.21348  0.38607  Biso   1.000  N
  N26      1.0000 0.96002  0.21348  0.11393  Biso   1.000  N
  N27      1.0000 0.53998  0.71348  0.38607  Biso   1.000  N
  N28      1.0000 0.46002  0.71348  0.11393  Biso   1.000  N
  N29      1.0000 0.96002  0.78652  0.61393  Biso   1.000  N
  N30      1.0000 0.03998  0.78652  0.88607  Biso   1.000  N
  N31      1.0000 0.46002  0.28652  0.61393  Biso   1.000  N
  N32      1.0000 0.53998  0.28652  0.88607  Biso   1.000  N
  N33      1.0000 0.01347  0.05837  0.37030  Biso   1.000  N
  N34      1.0000 0.98653  0.05837  0.12970  Biso   1.000  N
  N35      1.0000 0.51347  0.55837  0.37030  Biso   1.000  N
  N36      1.0000 0.48653  0.55837  0.12970  Biso   1.000  N
  N37      1.0000 0.98653  0.94163  0.62970  Biso   1.000  N
  N38      1.0000 0.01347  0.94163  0.87030  Biso   1.000  N
  N39      1.0000 0.48653  0.44163  0.62970  Biso   1.000  N
  N40      1.0000 0.51347  0.44163  0.87030  Biso   1.000  N
  N41      1.0000 0.97421  0.98718  0.36570  Biso   1.000  N
  N42      1.0000 0.02579  0.98718  0.13430  Biso   1.000  N
  N43      1.0000 0.47421  0.48718  0.36570  Biso   1.000  N
  N44      1.0000 0.52579  0.48718  0.13430  Biso   1.000  N
  N45      1.0000 0.02579  0.01282  0.63430  Biso   1.000  N
  N46      1.0000 0.97421  0.01282  0.86570  Biso   1.000  N
  N47      1.0000 0.52579  0.51282  0.63430  Biso   1.000  N
  N48      1.0000 0.47421  0.51282  0.86570  Biso   1.000  N
  O1       1.0000 0.13377  0.39093  0.17556  Biso   1.000  O
  O2       1.0000 0.86623  0.39093  0.32444  Biso   1.000  O
  O3       1.0000 0.63377  0.89093  0.17556  Biso   1.000  O
  O4       1.0000 0.36623  0.89093  0.32444  Biso   1.000  O
  O5       1.0000 0.86623  0.60907  0.82444  Biso   1.000  O
  O6       1.0000 0.13377  0.60907  0.67556  Biso   1.000  O
  O7       1.0000 0.36623  0.10907  0.82444  Biso   1.000  O
  O8       1.0000 0.63377  0.10907  0.67556  Biso   1.000  O
  O9       1.0000 0.18741  0.43066  0.33895  Biso   1.000  O
  O10      1.0000 0.81259  0.43066  0.16105  Biso   1.000  O
  O11      1.0000 0.68741  0.93066  0.33895  Biso   1.000  O
  O12      1.0000 0.31259  0.93066  0.16105  Biso   1.000  O
  O13      1.0000 0.81259  0.56934  0.66105  Biso   1.000  O
  O14      1.0000 0.18741  0.56934  0.83895  Biso   1.000  O
  O15      1.0000 0.31259  0.06934  0.66105  Biso   1.000  O
  O16      1.0000 0.68741  0.06934  0.83895  Biso   1.000  O
  O17      1.0000 0.25727  0.32299  0.56965  Biso   1.000  O
  O18      1.0000 0.74273  0.32299  0.93035  Biso   1.000  O
  O19      1.0000 0.75727  0.82299  0.56965  Biso   1.000  O
  O20      1.0000 0.24273  0.82299  0.93035  Biso   1.000  O
  O21      1.0000 0.74273  0.67701  0.43035  Biso   1.000  O
  O22      1.0000 0.25727  0.67701  0.06965  Biso   1.000  O
  O23      1.0000 0.24273  0.17701  0.43035  Biso   1.000  O
  O24      1.0000 0.75727  0.17701  0.06965  Biso   1.000  O
  O25      1.0000 0.27413  0.37449  0.72910  Biso   1.000  O
  O26      1.0000 0.72587  0.37449  0.77090  Biso   1.000  O
  O27      1.0000 0.77413  0.87449  0.72910  Biso   1.000  O
  O28      1.0000 0.22587  0.87449  0.77090  Biso   1.000  O
  O29      1.0000 0.72587  0.62551  0.27090  Biso   1.000  O
  O30      1.0000 0.27413  0.62551  0.22910  Biso   1.000  O
  O31      1.0000 0.22587  0.12551  0.27090  Biso   1.000  O
  O32      1.0000 0.77413  0.12551  0.22910  Biso   1.000  O
