data_image0
_cell_length_a       7.8605
_cell_length_b       11.703
_cell_length_c       22.549
_cell_angle_alpha    86.84
_cell_angle_beta     89.118
_cell_angle_gamma    89.024

_symmetry_space_group_name_H-M    "P 1"
_symmetry_int_tables_number       1

loop_
  _symmetry_equiv_pos_as_xyz
  'x, y, z'

loop_
  _atom_site_label
  _atom_site_occupancy
  _atom_site_fract_x
  _atom_site_fract_y
  _atom_site_fract_z
  _atom_site_thermal_displace_type
  _atom_site_B_iso_or_equiv
  _atom_site_type_symbol
  Cu1      1.0000 0.69035  0.79493  0.09090  Biso   1.000  Cu
  Cu2      1.0000 0.30965  0.20507  0.90910  Biso   1.000  Cu
  Cu3      1.0000 0.19722  0.70267  0.40583  Biso   1.000  Cu
  Cu4      1.0000 0.80278  0.29733  0.59417  Biso   1.000  Cu
  O1       1.0000 0.79300  0.66526  0.15500  Biso   1.000  O
  O2       1.0000 0.20700  0.33474  0.84500  Biso   1.000  O
  O3       1.0000 0.75180  0.51135  0.10381  Biso   1.000  O
  O4       1.0000 0.24820  0.48865  0.89619  Biso   1.000  O
  O5       1.0000 0.60960  0.88747  0.15509  Biso   1.000  O
  O6       1.0000 0.39040  0.11253  0.84491  Biso   1.000  O
  O7       1.0000 0.57280  0.05143  0.10028  Biso   1.000  O
  O8       1.0000 0.42720  0.94857  0.89972  Biso   1.000  O
  O9       1.0000 0.43380  0.39920  0.22095  Biso   1.000  O
  O10      1.0000 0.56620  0.60080  0.77905  Biso   1.000  O
  H1       1.0000 0.43300  0.46500  0.23270  Biso   1.000  H
  H2       1.0000 0.56700  0.53500  0.76730  Biso   1.000  H
  O11      1.0000 0.41060  0.36818  0.31929  Biso   1.000  O
  O12      1.0000 0.58940  0.63182  0.68071  Biso   1.000  O
  O13      1.0000 0.26370  0.97909  0.39992  Biso   1.000  O
  O14      1.0000 0.73630  0.02091  0.60008  Biso   1.000  O
  O15      1.0000 0.27260  0.83401  0.33936  Biso   1.000  O
  O16      1.0000 0.72740  0.16599  0.66064  Biso   1.000  O
  O17      1.0000 0.13980  0.61431  0.33825  Biso   1.000  O
  O18      1.0000 0.86020  0.38569  0.66175  Biso   1.000  O
  O19      1.0000 0.08450  0.45826  0.39677  Biso   1.000  O
  O20      1.0000 0.91550  0.54174  0.60323  Biso   1.000  O
  O21      1.0000 0.95680  0.10365  0.28467  Biso   1.000  O
  O22      1.0000 0.04320  0.89635  0.71533  Biso   1.000  O
  H3       1.0000 0.96800  0.03400  0.27770  Biso   1.000  H
  H4       1.0000 0.03200  0.96600  0.72230  Biso   1.000  H
  O23      1.0000 0.89730  0.12899  0.18813  Biso   1.000  O
  O24      1.0000 0.10270  0.87101  0.81187  Biso   1.000  O
  O25      1.0000 0.70050  0.75883  0.25422  Biso   1.000  O
  O26      1.0000 0.29950  0.24117  0.74578  Biso   1.000  O
  H5       1.0000 0.65900  0.80800  0.23700  Biso   1.000  H
  H6       1.0000 0.34100  0.19200  0.76300  Biso   1.000  H
  H7       1.0000 0.73800  0.71500  0.23150  Biso   1.000  H
  H8       1.0000 0.26200  0.28500  0.76850  Biso   1.000  H
  O27      1.0000 0.39810  0.61854  0.24866  Biso   1.000  O
  O28      1.0000 0.60190  0.38146  0.75134  Biso   1.000  O
  H9       1.0000 0.48000  0.65800  0.25590  Biso   1.000  H
  H10      1.0000 0.52000  0.34200  0.74410  Biso   1.000  H
  H11      1.0000 0.33600  0.62500  0.27430  Biso   1.000  H
  H12      1.0000 0.66400  0.37500  0.72570  Biso   1.000  H
  O29      1.0000 0.00870  0.88828  0.25873  Biso   1.000  O
  O30      1.0000 0.99130  0.11172  0.74127  Biso   1.000  O
  H13      1.0000 0.08700  0.85500  0.27880  Biso   1.000  H
  H14      1.0000 0.91300  0.14500  0.72120  Biso   1.000  H
  H15      1.0000 0.92900  0.84400  0.26080  Biso   1.000  H
  H16      1.0000 0.07100  0.15600  0.73920  Biso   1.000  H
  N1       1.0000 0.91790  0.86442  0.07232  Biso   1.000  N
  N2       1.0000 0.08210  0.13558  0.92768  Biso   1.000  N
  N3       1.0000 0.72700  0.74601  0.01077  Biso   1.000  N
  N4       1.0000 0.27300  0.25399  0.98923  Biso   1.000  N
  N5       1.0000 0.46850  0.71837  0.07812  Biso   1.000  N
  N6       1.0000 0.53150  0.28163  0.92188  Biso   1.000  N
  N7       1.0000 0.42820  0.63293  0.42637  Biso   1.000  N
  N8       1.0000 0.57180  0.36707  0.57363  Biso   1.000  N
  N9       1.0000 0.22220  0.75395  0.48577  Biso   1.000  N
  N10      1.0000 0.77780  0.24605  0.51423  Biso   1.000  N
  N11      1.0000 0.96380  0.77326  0.42007  Biso   1.000  N
  N12      1.0000 0.03620  0.22674  0.57993  Biso   1.000  N
  C1       1.0000 0.00760  0.92590  0.10854  Biso   1.000  C
  C2       1.0000 0.99240  0.07410  0.89146  Biso   1.000  C
  H17      1.0000 0.95900  0.93900  0.14280  Biso   1.000  H
  H18      1.0000 0.04100  0.06100  0.85720  Biso   1.000  H
  C3       1.0000 0.16660  0.96710  0.09280  Biso   1.000  C
  C4       1.0000 0.83340  0.03290  0.90720  Biso   1.000  C
  H19      1.0000 0.22700  0.00900  0.12180  Biso   1.000  H
  H20      1.0000 0.77300  0.99100  0.87820  Biso   1.000  H
  C5       1.0000 0.23490  0.94420  0.03768  Biso   1.000  C
  C6       1.0000 0.76510  0.05580  0.96232  Biso   1.000  C
  H21      1.0000 0.34100  0.96900  0.02740  Biso   1.000  H
  H22      1.0000 0.65900  0.03100  0.97260  Biso   1.000  H
  C7       1.0000 0.14240  0.88120  0.99968  Biso   1.000  C
  C8       1.0000 0.85760  0.11880  0.00032  Biso   1.000  C
  H23      1.0000 0.18300  0.86700  0.96150  Biso   1.000  H
  H24      1.0000 0.81700  0.13300  0.03850  Biso   1.000  H
  C9       1.0000 0.98480  0.84205  0.01830  Biso   1.000  C
  C10      1.0000 0.01520  0.15795  0.98170  Biso   1.000  C
  C11      1.0000 0.87100  0.77470  0.98228  Biso   1.000  C
  C12      1.0000 0.12900  0.22530  0.01772  Biso   1.000  C
  C13      1.0000 0.89870  0.74420  0.92394  Biso   1.000  C
  C14      1.0000 0.10130  0.25580  0.07606  Biso   1.000  C
  H25      1.0000 0.99500  0.76500  0.90580  Biso   1.000  H
  H26      1.0000 0.00500  0.23500  0.09420  Biso   1.000  H
  C15      1.0000 0.77310  0.68520  0.89719  Biso   1.000  C
  C16      1.0000 0.22690  0.31480  0.10281  Biso   1.000  C
  H27      1.0000 0.78700  0.66500  0.85960  Biso   1.000  H
  H28      1.0000 0.21300  0.33500  0.14040  Biso   1.000  H
  C17      1.0000 0.62280  0.65730  0.92728  Biso   1.000  C
  C18      1.0000 0.37720  0.34270  0.07272  Biso   1.000  C
  H29      1.0000 0.53200  0.62100  0.90830  Biso   1.000  H
  H30      1.0000 0.46800  0.37900  0.09170  Biso   1.000  H
  C19      1.0000 0.60340  0.69020  0.98516  Biso   1.000  C
  C20      1.0000 0.39660  0.30980  0.01484  Biso   1.000  C
  C21      1.0000 0.45460  0.67050  0.02506  Biso   1.000  C
  C22      1.0000 0.54540  0.32950  0.97494  Biso   1.000  C
  C23      1.0000 0.31260  0.60950  0.01117  Biso   1.000  C
  C24      1.0000 0.68740  0.39050  0.98883  Biso   1.000  C
  H31      1.0000 0.30800  0.58000  0.97610  Biso   1.000  H
  H32      1.0000 0.69200  0.42000  0.02390  Biso   1.000  H
  C25      1.0000 0.18220  0.59770  0.05315  Biso   1.000  C
  C26      1.0000 0.81780  0.40230  0.94685  Biso   1.000  C
  H33      1.0000 0.07800  0.55600  0.04350  Biso   1.000  H
  H34      1.0000 0.92200  0.44400  0.95650  Biso   1.000  H
  C27      1.0000 0.19780  0.64600  0.10713  Biso   1.000  C
  C28      1.0000 0.80220  0.35400  0.89287  Biso   1.000  C
  H35      1.0000 0.11400  0.64100  0.13510  Biso   1.000  H
  H36      1.0000 0.88600  0.35900  0.86490  Biso   1.000  H
  C29      1.0000 0.34210  0.70600  0.11796  Biso   1.000  C
  C30      1.0000 0.65790  0.29400  0.88204  Biso   1.000  C
  H37      1.0000 0.35900  0.74000  0.15230  Biso   1.000  H
  H38      1.0000 0.64100  0.26000  0.84770  Biso   1.000  H
  C31      1.0000 0.79800  0.55780  0.14823  Biso   1.000  C
  C32      1.0000 0.20200  0.44220  0.85177  Biso   1.000  C
  C33      1.0000 0.87030  0.48320  0.19927  Biso   1.000  C
  C34      1.0000 0.12970  0.51680  0.80073  Biso   1.000  C
  C35      1.0000 0.56280  0.99390  0.14705  Biso   1.000  C
  C36      1.0000 0.43720  0.00610  0.85295  Biso   1.000  C
  C37      1.0000 0.48790  0.04410  0.20230  Biso   1.000  C
  C38      1.0000 0.51210  0.95590  0.79770  Biso   1.000  C
  C39      1.0000 0.48540  0.16170  0.20789  Biso   1.000  C
  C40      1.0000 0.51460  0.83830  0.79211  Biso   1.000  C
  H39      1.0000 0.52300  0.20900  0.17960  Biso   1.000  H
  H40      1.0000 0.47700  0.79100  0.82040  Biso   1.000  H
  C41      1.0000 0.42410  0.20690  0.26022  Biso   1.000  C
  C42      1.0000 0.57590  0.79310  0.73978  Biso   1.000  C
  C43      1.0000 0.36470  0.13410  0.30648  Biso   1.000  C
  C44      1.0000 0.63530  0.86590  0.69352  Biso   1.000  C
  H41      1.0000 0.32500  0.16200  0.34180  Biso   1.000  H
  H42      1.0000 0.67500  0.83800  0.65820  Biso   1.000  H
  C45      1.0000 0.36040  0.01640  0.30066  Biso   1.000  C
  C46      1.0000 0.63960  0.98360  0.69934  Biso   1.000  C
  C47      1.0000 0.42140  0.97300  0.24829  Biso   1.000  C
  C48      1.0000 0.57860  0.02700  0.75171  Biso   1.000  C
  H43      1.0000 0.41700  0.89600  0.24580  Biso   1.000  H
  H44      1.0000 0.58300  0.10400  0.75420  Biso   1.000  H
  C49      1.0000 0.42310  0.33190  0.27016  Biso   1.000  C
  C50      1.0000 0.57690  0.66810  0.72984  Biso   1.000  C
  C51      1.0000 0.29220  0.93840  0.35128  Biso   1.000  C
  C52      1.0000 0.70780  0.06160  0.64872  Biso   1.000  C
  C53      1.0000 0.52330  0.56630  0.39273  Biso   1.000  C
  C54      1.0000 0.47670  0.43370  0.60727  Biso   1.000  C
  H45      1.0000 0.47700  0.54900  0.35750  Biso   1.000  H
  H46      1.0000 0.52300  0.45100  0.64250  Biso   1.000  H
  C55      1.0000 0.68150  0.52430  0.41054  Biso   1.000  C
  C56      1.0000 0.31850  0.47570  0.58946  Biso   1.000  C
  H47      1.0000 0.74600  0.47800  0.38470  Biso   1.000  H
  H48      1.0000 0.25400  0.52200  0.61530  Biso   1.000  H
  C57      1.0000 0.74170  0.55070  0.46517  Biso   1.000  C
  C58      1.0000 0.25830  0.44930  0.53483  Biso   1.000  C
  H49      1.0000 0.84500  0.52300  0.47800  Biso   1.000  H
  H50      1.0000 0.15500  0.47700  0.52200  Biso   1.000  H
  C59      1.0000 0.64250  0.61800  0.50119  Biso   1.000  C
  C60      1.0000 0.35750  0.38200  0.49881  Biso   1.000  C
  H51      1.0000 0.68100  0.63600  0.53690  Biso   1.000  H
  H52      1.0000 0.31900  0.36400  0.46310  Biso   1.000  H
  C61      1.0000 0.48660  0.65810  0.48041  Biso   1.000  C
  C62      1.0000 0.51340  0.34190  0.51959  Biso   1.000  C
  C63      1.0000 0.36610  0.72800  0.51492  Biso   1.000  C
  C64      1.0000 0.63390  0.27200  0.48508  Biso   1.000  C
  C65      1.0000 0.38840  0.76270  0.57198  Biso   1.000  C
  C66      1.0000 0.61160  0.23730  0.42802  Biso   1.000  C
  H53      1.0000 0.48600  0.74300  0.59260  Biso   1.000  H
  H54      1.0000 0.51400  0.25700  0.40740  Biso   1.000  H
  C67      1.0000 0.25690  0.82220  0.59845  Biso   1.000  C
  C68      1.0000 0.74310  0.17780  0.40155  Biso   1.000  C
  H55      1.0000 0.27200  0.84500  0.63780  Biso   1.000  H
  H56      1.0000 0.72800  0.15500  0.36220  Biso   1.000  H
  C69      1.0000 0.10730  0.84670  0.56838  Biso   1.000  C
  C70      1.0000 0.89270  0.15330  0.43162  Biso   1.000  C
  H57      1.0000 0.01800  0.88600  0.58590  Biso   1.000  H
  H58      1.0000 0.98200  0.11400  0.41410  Biso   1.000  H
  C71      1.0000 0.09370  0.81140  0.51086  Biso   1.000  C
  C72      1.0000 0.90630  0.18860  0.48914  Biso   1.000  C
  C73      1.0000 0.94650  0.82740  0.47147  Biso   1.000  C
  C74      1.0000 0.05350  0.17260  0.52853  Biso   1.000  C
  C75      1.0000 0.80120  0.89060  0.48444  Biso   1.000  C
  C76      1.0000 0.19880  0.10940  0.51556  Biso   1.000  C
  H59      1.0000 0.79500  0.92500  0.51780  Biso   1.000  H
  H60      1.0000 0.20500  0.07500  0.48220  Biso   1.000  H
  C77      1.0000 0.67190  0.89920  0.44322  Biso   1.000  C
  C78      1.0000 0.32810  0.10080  0.55678  Biso   1.000  C
  H61      1.0000 0.57300  0.94300  0.44980  Biso   1.000  H
  H62      1.0000 0.42700  0.05700  0.55020  Biso   1.000  H
  C79      1.0000 0.69050  0.84400  0.39083  Biso   1.000  C
  C80      1.0000 0.30950  0.15600  0.60917  Biso   1.000  C
  H63      1.0000 0.60500  0.84500  0.36420  Biso   1.000  H
  H64      1.0000 0.39500  0.15500  0.63580  Biso   1.000  H
  C81      1.0000 0.83720  0.78080  0.38137  Biso   1.000  C
  C82      1.0000 0.16280  0.21920  0.61863  Biso   1.000  C
  H65      1.0000 0.85400  0.74200  0.34640  Biso   1.000  H
  H66      1.0000 0.14600  0.25800  0.65360  Biso   1.000  H
  C83      1.0000 0.08440  0.51110  0.34836  Biso   1.000  C
  C84      1.0000 0.91560  0.48890  0.65164  Biso   1.000  C
  C85      1.0000 0.00990  0.45930  0.29479  Biso   1.000  C
  C86      1.0000 0.99010  0.54070  0.70521  Biso   1.000  C
  C87      1.0000 0.99640  0.34070  0.29320  Biso   1.000  C
  C88      1.0000 0.00360  0.65930  0.70680  Biso   1.000  C
  H67      1.0000 0.03500  0.29500  0.32210  Biso   1.000  H
  H68      1.0000 0.96500  0.70500  0.67790  Biso   1.000  H
  C89      1.0000 0.92640  0.29350  0.24371  Biso   1.000  C
  C90      1.0000 0.07360  0.70650  0.75629  Biso   1.000  C
  C91      1.0000 0.86220  0.36530  0.19788  Biso   1.000  C
  C92      1.0000 0.13780  0.63470  0.80212  Biso   1.000  C
  H69      1.0000 0.80900  0.33500  0.16590  Biso   1.000  H
  H70      1.0000 0.19100  0.66500  0.83410  Biso   1.000  H
  C93      1.0000 0.94930  0.52940  0.24716  Biso   1.000  C
  C94      1.0000 0.05070  0.47060  0.75284  Biso   1.000  C
  H71      1.0000 0.95900  0.60700  0.24840  Biso   1.000  H
  H72      1.0000 0.04100  0.39300  0.75160  Biso   1.000  H
  C95      1.0000 0.92510  0.16740  0.23582  Biso   1.000  C
  C96      1.0000 0.07490  0.83260  0.76418  Biso   1.000  C
