data_image0
_cell_length_a       7.722
_cell_length_b       10.082
_cell_length_c       12.348
_cell_angle_alpha    101.944
_cell_angle_beta     104.207
_cell_angle_gamma    95.869

_symmetry_space_group_name_H-M    "P 1"
_symmetry_int_tables_number       1

loop_
  _symmetry_equiv_pos_as_xyz
  'x, y, z'

loop_
  _atom_site_label
  _atom_site_occupancy
  _atom_site_fract_x
  _atom_site_fract_y
  _atom_site_fract_z
  _atom_site_thermal_displace_type
  _atom_site_B_iso_or_equiv
  _atom_site_type_symbol
  Cu1      1.0000 0.05028  0.79649  0.69179  Biso   1.000  Cu
  Cu2      1.0000 0.94972  0.20351  0.30821  Biso   1.000  Cu
  O1       1.0000 0.17930  0.65080  0.64200  Biso   1.000  O
  O2       1.0000 0.82070  0.34920  0.35800  Biso   1.000  O
  O3       1.0000 0.39680  0.82190  0.65290  Biso   1.000  O
  O4       1.0000 0.60320  0.17810  0.34710  Biso   1.000  O
  O5       1.0000 0.60720  0.64020  0.81030  Biso   1.000  O
  O6       1.0000 0.39280  0.35980  0.18970  Biso   1.000  O
  O7       1.0000 0.86540  0.67600  0.76140  Biso   1.000  O
  O8       1.0000 0.13460  0.32400  0.23860  Biso   1.000  O
  N1       1.0000 0.19680  0.87600  0.85740  Biso   1.000  N
  N2       1.0000 0.80320  0.12400  0.14260  Biso   1.000  N
  N3       1.0000 0.96880  0.97440  0.71920  Biso   1.000  N
  N4       1.0000 0.03120  0.02560  0.28080  Biso   1.000  N
  N5       1.0000 0.89240  0.78970  0.53170  Biso   1.000  N
  N6       1.0000 0.10760  0.21030  0.46830  Biso   1.000  N
  C1       1.0000 0.30600  0.81190  0.92140  Biso   1.000  C
  C2       1.0000 0.69400  0.18810  0.07860  Biso   1.000  C
  H1       1.0000 0.33330  0.72640  0.88650  Biso   1.000  H
  H2       1.0000 0.66670  0.27360  0.11350  Biso   1.000  H
  C3       1.0000 0.38200  0.86700  0.03920  Biso   1.000  C
  C4       1.0000 0.61800  0.13300  0.96080  Biso   1.000  C
  H3       1.0000 0.45820  0.81940  0.08490  Biso   1.000  H
  H4       1.0000 0.54180  0.18060  0.91510  Biso   1.000  H
  C5       1.0000 0.34220  0.99600  0.08830  Biso   1.000  C
  C6       1.0000 0.65780  0.00400  0.91170  Biso   1.000  C
  H5       1.0000 0.39400  0.03750  0.16780  Biso   1.000  H
  H6       1.0000 0.60600  0.96250  0.83220  Biso   1.000  H
  C7       1.0000 0.22980  0.06000  0.02130  Biso   1.000  C
  C8       1.0000 0.77020  0.94000  0.97870  Biso   1.000  C
  H7       1.0000 0.19990  0.14550  0.05400  Biso   1.000  H
  H8       1.0000 0.80010  0.85450  0.94600  Biso   1.000  H
  C9       1.0000 0.15880  0.00030  0.90520  Biso   1.000  C
  C10      1.0000 0.84120  0.99970  0.09480  Biso   1.000  C
  C11      1.0000 0.03410  0.05960  0.82310  Biso   1.000  C
  C12      1.0000 0.96590  0.94040  0.17690  Biso   1.000  C
  C13      1.0000 0.98150  0.19140  0.84230  Biso   1.000  C
  C14      1.0000 0.01850  0.80860  0.15770  Biso   1.000  C
  H9       1.0000 0.02490  0.25470  0.91530  Biso   1.000  H
  H10      1.0000 0.97510  0.74530  0.08470  Biso   1.000  H
  C15      1.0000 0.86350  0.22480  0.74990  Biso   1.000  C
  C16      1.0000 0.13650  0.77520  0.25010  Biso   1.000  C
  H11      1.0000 0.82620  0.31230  0.76110  Biso   1.000  H
  H12      1.0000 0.17380  0.68770  0.23890  Biso   1.000  H
  C17      1.0000 0.80140  0.13730  0.64630  Biso   1.000  C
  C18      1.0000 0.19860  0.86270  0.35370  Biso   1.000  C
  H13      1.0000 0.72130  0.16230  0.58490  Biso   1.000  H
  H14      1.0000 0.27870  0.83770  0.41510  Biso   1.000  H
  C19      1.0000 0.85660  0.00810  0.63020  Biso   1.000  C
  C20      1.0000 0.14340  0.99190  0.36980  Biso   1.000  C
  C21      1.0000 0.80630  0.89930  0.52280  Biso   1.000  C
  C22      1.0000 0.19370  0.10070  0.47720  Biso   1.000  C
  C23      1.0000 0.68410  0.90190  0.41790  Biso   1.000  C
  C24      1.0000 0.31590  0.09810  0.58210  Biso   1.000  C
  H15      1.0000 0.62630  0.97960  0.41050  Biso   1.000  H
  H16      1.0000 0.37370  0.02040  0.58950  Biso   1.000  H
  C25      1.0000 0.65090  0.79060  0.32760  Biso   1.000  C
  C26      1.0000 0.34910  0.20940  0.67240  Biso   1.000  C
  H17      1.0000 0.56600  0.79030  0.25730  Biso   1.000  H
  H18      1.0000 0.43400  0.20970  0.74270  Biso   1.000  H
  C27      1.0000 0.73570  0.67980  0.33490  Biso   1.000  C
  C28      1.0000 0.26430  0.32020  0.66510  Biso   1.000  C
  H19      1.0000 0.71260  0.60290  0.27120  Biso   1.000  H
  H20      1.0000 0.28740  0.39710  0.72880  Biso   1.000  H
  C29      1.0000 0.85670  0.68370  0.43890  Biso   1.000  C
  C30      1.0000 0.14330  0.31630  0.56110  Biso   1.000  C
  H21      1.0000 0.91800  0.60740  0.44520  Biso   1.000  H
  H22      1.0000 0.08200  0.39260  0.55480  Biso   1.000  H
  C31      1.0000 0.59510  0.57110  0.61300  Biso   1.000  C
  C32      1.0000 0.40490  0.42890  0.38700  Biso   1.000  C
  C33      1.0000 0.42030  0.59420  0.56460  Biso   1.000  C
  C34      1.0000 0.57970  0.40580  0.43540  Biso   1.000  C
  C35      1.0000 0.32830  0.52300  0.45220  Biso   1.000  C
  C36      1.0000 0.67170  0.47700  0.54780  Biso   1.000  C
  H23      1.0000 0.21010  0.53940  0.41920  Biso   1.000  H
  H24      1.0000 0.78990  0.46060  0.58080  Biso   1.000  H
  C37      1.0000 0.69580  0.63560  0.73810  Biso   1.000  C
  C38      1.0000 0.30420  0.36440  0.26190  Biso   1.000  C
  C39      1.0000 0.32960  0.69900  0.62670  Biso   1.000  C
  C40      1.0000 0.67040  0.30100  0.37330  Biso   1.000  C
