data_image0
_cell_length_a       6.3272
_cell_length_b       9.8159
_cell_length_c       16.2332
_cell_angle_alpha    90
_cell_angle_beta     96.078
_cell_angle_gamma    90

_symmetry_space_group_name_H-M    "P 1"
_symmetry_int_tables_number       1

loop_
  _symmetry_equiv_pos_as_xyz
  'x, y, z'

loop_
  _atom_site_label
  _atom_site_occupancy
  _atom_site_fract_x
  _atom_site_fract_y
  _atom_site_fract_z
  _atom_site_thermal_displace_type
  _atom_site_B_iso_or_equiv
  _atom_site_type_symbol
  Cu1      1.0000 0.79377  0.05209  0.40155  Biso   1.000  Cu
  Cu2      1.0000 0.20623  0.55209  0.59845  Biso   1.000  Cu
  Cl1      1.0000 0.08070  0.05400  0.49662  Biso   1.000  Cl
  Cl2      1.0000 0.91930  0.55400  0.50338  Biso   1.000  Cl
  Cl3      1.0000 0.94290  0.18930  0.31246  Biso   1.000  Cl
  Cl4      1.0000 0.05710  0.68930  0.68754  Biso   1.000  Cl
  N1       1.0000 0.40550  0.71180  0.53920  Biso   1.000  N
  N2       1.0000 0.59450  0.21180  0.46080  Biso   1.000  N
  N3       1.0000 0.64660  0.90240  0.46430  Biso   1.000  N
  N4       1.0000 0.35340  0.40240  0.53570  Biso   1.000  N
  N5       1.0000 0.55820  0.99470  0.31450  Biso   1.000  N
  N6       1.0000 0.44180  0.49470  0.68550  Biso   1.000  N
  C1       1.0000 0.70300  0.85810  0.53980  Biso   1.000  C
  C2       1.0000 0.29700  0.35810  0.46020  Biso   1.000  C
  H1       1.0000 0.82640  0.89130  0.56910  Biso   1.000  H
  H2       1.0000 0.17360  0.39130  0.43090  Biso   1.000  H
  C3       1.0000 0.58100  0.76250  0.57640  Biso   1.000  C
  C4       1.0000 0.41900  0.26250  0.42360  Biso   1.000  C
  H3       1.0000 0.62690  0.73320  0.62980  Biso   1.000  H
  H4       1.0000 0.37310  0.23320  0.37020  Biso   1.000  H
  C5       1.0000 0.34880  0.76010  0.46090  Biso   1.000  C
  C6       1.0000 0.65120  0.26010  0.53910  Biso   1.000  C
  H5       1.0000 0.22340  0.72810  0.43240  Biso   1.000  H
  H6       1.0000 0.77660  0.22810  0.56760  Biso   1.000  H
  C7       1.0000 0.46400  0.85120  0.42300  Biso   1.000  C
  C8       1.0000 0.53600  0.35120  0.57700  Biso   1.000  C
  C9       1.0000 0.41530  0.90180  0.33950  Biso   1.000  C
  C10      1.0000 0.58470  0.40180  0.66050  Biso   1.000  C
  C11      1.0000 0.24020  0.85940  0.28920  Biso   1.000  C
  C12      1.0000 0.75980  0.35940  0.71080  Biso   1.000  C
  H7       1.0000 0.14670  0.79740  0.30900  Biso   1.000  H
  H8       1.0000 0.85330  0.29740  0.69100  Biso   1.000  H
  C13      1.0000 0.20140  0.90830  0.20880  Biso   1.000  C
  C14      1.0000 0.79860  0.40830  0.79120  Biso   1.000  C
  C15      1.0000 0.35030  0.00550  0.18250  Biso   1.000  C
  C16      1.0000 0.64970  0.50550  0.81750  Biso   1.000  C
  C17      1.0000 0.52070  0.04520  0.23720  Biso   1.000  C
  C18      1.0000 0.47930  0.54520  0.76280  Biso   1.000  C
  H9       1.0000 0.61410  0.10980  0.21990  Biso   1.000  H
  H10      1.0000 0.38590  0.60980  0.78010  Biso   1.000  H
  C19      1.0000 0.02010  0.86810  0.14710  Biso   1.000  C
  C20      1.0000 0.97990  0.36810  0.85290  Biso   1.000  C
  H11      1.0000 0.88720  0.88960  0.16890  Biso   1.000  H
  H12      1.0000 0.11280  0.38960  0.83110  Biso   1.000  H
  H13      1.0000 0.02430  0.77050  0.13800  Biso   1.000  H
  H14      1.0000 0.97570  0.27050  0.86200  Biso   1.000  H
  C21      1.0000 0.02900  0.94200  0.06470  Biso   1.000  C
  C22      1.0000 0.97100  0.44200  0.93530  Biso   1.000  C
  H15      1.0000 0.91160  0.92080  0.02210  Biso   1.000  H
  H16      1.0000 0.08840  0.42080  0.97790  Biso   1.000  H
  C23      1.0000 0.07100  0.09510  0.08030  Biso   1.000  C
  C24      1.0000 0.92900  0.59510  0.91970  Biso   1.000  C
  H17      1.0000 0.01100  0.13110  0.12840  Biso   1.000  H
  H18      1.0000 0.98900  0.63110  0.87160  Biso   1.000  H
  H19      1.0000 0.03630  0.15240  0.03200  Biso   1.000  H
  H20      1.0000 0.96370  0.65240  0.96800  Biso   1.000  H
  C25      1.0000 0.31400  0.05500  0.09660  Biso   1.000  C
  C26      1.0000 0.68600  0.55500  0.90340  Biso   1.000  C
  H21      1.0000 0.41600  0.12120  0.07960  Biso   1.000  H
  H22      1.0000 0.58400  0.62120  0.92040  Biso   1.000  H
  C27      1.0000 0.25430  0.93480  0.03510  Biso   1.000  C
  C28      1.0000 0.74570  0.43480  0.96490  Biso   1.000  C
  C29      1.0000 0.38700  0.80400  0.05150  Biso   1.000  C
  C30      1.0000 0.61300  0.30400  0.94850  Biso   1.000  C
  H23      1.0000 0.52880  0.81970  0.03730  Biso   1.000  H
  H24      1.0000 0.47120  0.31970  0.96270  Biso   1.000  H
  H25      1.0000 0.32310  0.73130  0.01830  Biso   1.000  H
  H26      1.0000 0.67690  0.23130  0.98170  Biso   1.000  H
  H27      1.0000 0.39260  0.78050  0.10900  Biso   1.000  H
  H28      1.0000 0.60740  0.28050  0.89100  Biso   1.000  H
  C31      1.0000 0.26500  0.97300  0.94550  Biso   1.000  C
  C32      1.0000 0.73500  0.47300  0.05450  Biso   1.000  C
  H29      1.0000 0.17930  0.05280  0.93260  Biso   1.000  H
  H30      1.0000 0.82070  0.55280  0.06740  Biso   1.000  H
  H31      1.0000 0.21210  0.89930  0.91050  Biso   1.000  H
  H32      1.0000 0.78790  0.39930  0.08950  Biso   1.000  H
  H33      1.0000 0.40940  0.99230  0.93660  Biso   1.000  H
  H34      1.0000 0.59060  0.49230  0.06340  Biso   1.000  H
  O1       1.0000 0.37290  0.48530  0.25030  Biso   1.000  O
  O2       1.0000 0.62710  0.98530  0.74970  Biso   1.000  O
  H35      1.0000 0.32120  0.44110  0.28850  Biso   1.000  H
  H36      1.0000 0.67880  0.94110  0.71150  Biso   1.000  H
  H37      1.0000 0.46810  0.43760  0.23080  Biso   1.000  H
  H38      1.0000 0.53190  0.93760  0.76920  Biso   1.000  H
  O3       1.0000 0.72200  0.65570  0.25950  Biso   1.000  O
  O4       1.0000 0.27800  0.15570  0.74050  Biso   1.000  O
  H39      1.0000 0.71760  0.69030  0.30720  Biso   1.000  H
  H40      1.0000 0.28240  0.19030  0.69280  Biso   1.000  H
  H41      1.0000 0.79450  0.70710  0.23090  Biso   1.000  H
  H42      1.0000 0.20550  0.20710  0.76910  Biso   1.000  H
  O5       1.0000 0.76900  0.64130  0.26890  Biso   1.000  O
  O6       1.0000 0.23100  0.14130  0.73110  Biso   1.000  O
  H43      1.0000 0.75710  0.60240  0.31490  Biso   1.000  H
  H44      1.0000 0.24290  0.10240  0.68510  Biso   1.000  H
  H45      1.0000 0.80310  0.58270  0.23410  Biso   1.000  H
  H46      1.0000 0.19690  0.08270  0.76590  Biso   1.000  H
