data_image0
_cell_length_a       6.3364
_cell_length_b       9.8456
_cell_length_c       16.314
_cell_angle_alpha    90
_cell_angle_beta     96.19
_cell_angle_gamma    90

_symmetry_space_group_name_H-M    "P 1"
_symmetry_int_tables_number       1

loop_
  _symmetry_equiv_pos_as_xyz
  'x, y, z'

loop_
  _atom_site_label
  _atom_site_occupancy
  _atom_site_fract_x
  _atom_site_fract_y
  _atom_site_fract_z
  _atom_site_thermal_displace_type
  _atom_site_B_iso_or_equiv
  _atom_site_type_symbol
  Cu1      1.0000 0.29394  0.30702  0.40147  Biso   1.000  Cu
  Cu2      1.0000 0.70606  0.80702  0.59853  Biso   1.000  Cu
  Cl1      1.0000 0.58070  0.30440  0.49635  Biso   1.000  Cl
  Cl2      1.0000 0.41930  0.80440  0.50365  Biso   1.000  Cl
  Cl3      1.0000 0.44270  0.16990  0.31236  Biso   1.000  Cl
  Cl4      1.0000 0.55730  0.66990  0.68764  Biso   1.000  Cl
  N1       1.0000 0.90330  0.64560  0.53870  Biso   1.000  N
  N2       1.0000 0.09670  0.14560  0.46130  Biso   1.000  N
  N3       1.0000 0.14510  0.45500  0.46480  Biso   1.000  N
  N4       1.0000 0.85490  0.95500  0.53520  Biso   1.000  N
  N5       1.0000 0.05550  0.36300  0.31440  Biso   1.000  N
  N6       1.0000 0.94450  0.86300  0.68560  Biso   1.000  N
  C1       1.0000 0.20430  0.50020  0.54140  Biso   1.000  C
  C2       1.0000 0.79570  0.00020  0.45860  Biso   1.000  C
  H1       1.0000 0.32910  0.46880  0.57050  Biso   1.000  H
  H2       1.0000 0.67090  0.96880  0.42950  Biso   1.000  H
  C3       1.0000 0.07940  0.59350  0.57700  Biso   1.000  C
  C4       1.0000 0.92060  0.09350  0.42300  Biso   1.000  C
  H3       1.0000 0.12140  0.62110  0.63080  Biso   1.000  H
  H4       1.0000 0.87860  0.12110  0.36920  Biso   1.000  H
  C5       1.0000 0.84640  0.59860  0.46110  Biso   1.000  C
  C6       1.0000 0.15360  0.09860  0.53890  Biso   1.000  C
  H5       1.0000 0.72150  0.63050  0.43240  Biso   1.000  H
  H6       1.0000 0.27850  0.13050  0.56760  Biso   1.000  H
  C7       1.0000 0.96560  0.50630  0.42360  Biso   1.000  C
  C8       1.0000 0.03440  0.00630  0.57640  Biso   1.000  C
  C9       1.0000 0.91120  0.45530  0.33890  Biso   1.000  C
  C10      1.0000 0.08880  0.95530  0.66110  Biso   1.000  C
  C11      1.0000 0.74050  0.49950  0.28950  Biso   1.000  C
  C12      1.0000 0.25950  0.99950  0.71050  Biso   1.000  C
  H7       1.0000 0.64930  0.56340  0.30850  Biso   1.000  H
  H8       1.0000 0.35070  0.06340  0.69150  Biso   1.000  H
  C13      1.0000 0.70210  0.44710  0.20860  Biso   1.000  C
  C14      1.0000 0.29790  0.94710  0.79140  Biso   1.000  C
  C15      1.0000 0.85130  0.35470  0.18360  Biso   1.000  C
  C16      1.0000 0.14870  0.85470  0.81640  Biso   1.000  C
  C17      1.0000 0.01980  0.31620  0.23810  Biso   1.000  C
  C18      1.0000 0.98020  0.81620  0.76190  Biso   1.000  C
  H9       1.0000 0.11490  0.25340  0.22060  Biso   1.000  H
  H10      1.0000 0.88510  0.75340  0.77940  Biso   1.000  H
  C19      1.0000 0.52210  0.49040  0.14710  Biso   1.000  C
  C20      1.0000 0.47790  0.99040  0.85290  Biso   1.000  C
  H11      1.0000 0.53060  0.58750  0.13770  Biso   1.000  H
  H12      1.0000 0.46940  0.08750  0.86230  Biso   1.000  H
  H13      1.0000 0.38830  0.47170  0.16870  Biso   1.000  H
  H14      1.0000 0.61170  0.97170  0.83130  Biso   1.000  H
  C21      1.0000 0.53000  0.41590  0.06670  Biso   1.000  C
  C22      1.0000 0.47000  0.91590  0.93330  Biso   1.000  C
  H15      1.0000 0.41260  0.43640  0.02440  Biso   1.000  H
  H16      1.0000 0.58740  0.93640  0.97560  Biso   1.000  H
  C23      1.0000 0.57440  0.26350  0.08060  Biso   1.000  C
  C24      1.0000 0.42560  0.76350  0.91940  Biso   1.000  C
  H17      1.0000 0.54000  0.20750  0.03210  Biso   1.000  H
  H18      1.0000 0.46000  0.70750  0.96790  Biso   1.000  H
  H19      1.0000 0.51620  0.22580  0.12830  Biso   1.000  H
  H20      1.0000 0.48380  0.72580  0.87170  Biso   1.000  H
  C25      1.0000 0.80980  0.30450  0.09630  Biso   1.000  C
  C26      1.0000 0.19020  0.80450  0.90370  Biso   1.000  C
  H21      1.0000 0.91210  0.23870  0.07890  Biso   1.000  H
  H22      1.0000 0.08790  0.73870  0.92110  Biso   1.000  H
  C27      1.0000 0.75520  0.42590  0.03700  Biso   1.000  C
  C28      1.0000 0.24480  0.92590  0.96300  Biso   1.000  C
  C29      1.0000 0.88570  0.55730  0.05280  Biso   1.000  C
  C30      1.0000 0.11430  0.05730  0.94720  Biso   1.000  C
  H23      1.0000 0.91160  0.57310  0.11110  Biso   1.000  H
  H24      1.0000 0.08840  0.07310  0.88890  Biso   1.000  H
  H25      1.0000 0.80810  0.63240  0.02700  Biso   1.000  H
  H26      1.0000 0.19190  0.13240  0.97300  Biso   1.000  H
  H27      1.0000 0.01860  0.54800  0.03020  Biso   1.000  H
  H28      1.0000 0.98140  0.04800  0.96980  Biso   1.000  H
  C31      1.0000 0.76100  0.38160  0.94550  Biso   1.000  C
  C32      1.0000 0.23900  0.88160  0.05450  Biso   1.000  C
  H29      1.0000 0.90540  0.36380  0.93560  Biso   1.000  H
  H30      1.0000 0.09460  0.86380  0.06440  Biso   1.000  H
  H31      1.0000 0.70430  0.45290  0.90950  Biso   1.000  H
  H32      1.0000 0.29570  0.95290  0.09050  Biso   1.000  H
  H33      1.0000 0.67800  0.30080  0.93490  Biso   1.000  H
  H34      1.0000 0.32200  0.80080  0.06510  Biso   1.000  H
  O1       1.0000 0.87200  0.87420  0.25060  Biso   1.000  O
  O2       1.0000 0.12800  0.37420  0.74940  Biso   1.000  O
  H35      1.0000 0.91880  0.84640  0.20670  Biso   1.000  H
  H36      1.0000 0.08120  0.34640  0.79330  Biso   1.000  H
  H37      1.0000 0.91490  0.95480  0.26080  Biso   1.000  H
  H38      1.0000 0.08510  0.45480  0.73920  Biso   1.000  H
  O3       1.0000 0.23190  0.70920  0.25820  Biso   1.000  O
  O4       1.0000 0.76810  0.20920  0.74180  Biso   1.000  O
  H39      1.0000 0.19700  0.75610  0.29830  Biso   1.000  H
  H40      1.0000 0.80300  0.25610  0.70170  Biso   1.000  H
  H41      1.0000 0.13400  0.65270  0.24320  Biso   1.000  H
  H42      1.0000 0.86600  0.15270  0.75680  Biso   1.000  H
  O5       1.0000 0.27400  0.71200  0.27530  Biso   1.000  O
  O6       1.0000 0.72600  0.21200  0.72470  Biso   1.000  O
  H43      1.0000 0.33390  0.65430  0.24660  Biso   1.000  H
  H44      1.0000 0.66610  0.15430  0.75340  Biso   1.000  H
  H45      1.0000 0.27550  0.78950  0.25270  Biso   1.000  H
  H46      1.0000 0.72450  0.28950  0.74730  Biso   1.000  H
