data_image0
_cell_length_a       10.35
_cell_length_b       14.076
_cell_length_c       14.963
_cell_angle_alpha    90
_cell_angle_beta     109.222
_cell_angle_gamma    90

_symmetry_space_group_name_H-M    "P 1"
_symmetry_int_tables_number       1

loop_
  _symmetry_equiv_pos_as_xyz
  'x, y, z'

loop_
  _atom_site_label
  _atom_site_occupancy
  _atom_site_fract_x
  _atom_site_fract_y
  _atom_site_fract_z
  _atom_site_thermal_displace_type
  _atom_site_B_iso_or_equiv
  _atom_site_type_symbol
  C1       1.0000 0.86830  0.32390  0.42130  Biso   1.000  C
  C2       1.0000 0.63170  0.82390  0.07870  Biso   1.000  C
  C3       1.0000 0.13170  0.67610  0.57870  Biso   1.000  C
  C4       1.0000 0.36830  0.17610  0.92130  Biso   1.000  C
  C5       1.0000 0.82710  0.41770  0.39590  Biso   1.000  C
  C6       1.0000 0.67290  0.91770  0.10410  Biso   1.000  C
  C7       1.0000 0.17290  0.58230  0.60410  Biso   1.000  C
  C8       1.0000 0.32710  0.08230  0.89590  Biso   1.000  C
  C9       1.0000 0.91640  0.48260  0.38040  Biso   1.000  C
  C10      1.0000 0.58360  0.98260  0.11960  Biso   1.000  C
  C11      1.0000 0.08360  0.51740  0.61960  Biso   1.000  C
  C12      1.0000 0.41640  0.01740  0.88040  Biso   1.000  C
  C13      1.0000 0.04910  0.45280  0.38860  Biso   1.000  C
  C14      1.0000 0.45090  0.95280  0.11140  Biso   1.000  C
  C15      1.0000 0.95090  0.54720  0.61140  Biso   1.000  C
  C16      1.0000 0.54910  0.04720  0.88860  Biso   1.000  C
  C17      1.0000 0.08320  0.35680  0.41260  Biso   1.000  C
  C18      1.0000 0.41680  0.85680  0.08740  Biso   1.000  C
  C19      1.0000 0.91680  0.64320  0.58740  Biso   1.000  C
  C20      1.0000 0.58320  0.14320  0.91260  Biso   1.000  C
  C21      1.0000 0.35170  0.18410  0.44590  Biso   1.000  C
  C22      1.0000 0.14830  0.68410  0.05410  Biso   1.000  C
  C23      1.0000 0.64830  0.81590  0.55410  Biso   1.000  C
  C24      1.0000 0.85170  0.31590  0.94590  Biso   1.000  C
  C25      1.0000 0.45670  0.23460  0.42880  Biso   1.000  C
  C26      1.0000 0.04330  0.73460  0.07120  Biso   1.000  C
  C27      1.0000 0.54330  0.76540  0.57120  Biso   1.000  C
  C28      1.0000 0.95670  0.26540  0.92880  Biso   1.000  C
  C29      1.0000 0.44070  0.32960  0.40780  Biso   1.000  C
  C30      1.0000 0.05930  0.82960  0.09220  Biso   1.000  C
  C31      1.0000 0.55930  0.67040  0.59220  Biso   1.000  C
  C32      1.0000 0.94070  0.17040  0.90780  Biso   1.000  C
  C33      1.0000 0.31690  0.37450  0.40350  Biso   1.000  C
  C34      1.0000 0.18310  0.87450  0.09650  Biso   1.000  C
  C35      1.0000 0.68310  0.62550  0.59650  Biso   1.000  C
  C36      1.0000 0.81690  0.12550  0.90350  Biso   1.000  C
  C37      1.0000 0.21510  0.31860  0.42010  Biso   1.000  C
  C38      1.0000 0.28490  0.81860  0.07990  Biso   1.000  C
  C39      1.0000 0.78490  0.68140  0.57990  Biso   1.000  C
  C40      1.0000 0.71510  0.18140  0.92010  Biso   1.000  C
  C41      1.0000 0.15630  0.51030  0.37560  Biso   1.000  C
  C42      1.0000 0.34370  0.01030  0.12440  Biso   1.000  C
  C43      1.0000 0.84370  0.48970  0.62440  Biso   1.000  C
  C44      1.0000 0.65630  0.98970  0.87560  Biso   1.000  C
  C45      1.0000 0.28250  0.47250  0.38490  Biso   1.000  C
  C46      1.0000 0.21750  0.97250  0.11510  Biso   1.000  C
  C47      1.0000 0.71750  0.52750  0.61510  Biso   1.000  C
  C48      1.0000 0.78250  0.02750  0.88490  Biso   1.000  C
  C49      1.0000 0.27920  0.62510  0.35350  Biso   1.000  C
  C50      1.0000 0.22080  0.12510  0.14650  Biso   1.000  C
  C51      1.0000 0.72080  0.37490  0.64650  Biso   1.000  C
  C52      1.0000 0.77920  0.87490  0.85350  Biso   1.000  C
  C53      1.0000 0.32590  0.72230  0.34280  Biso   1.000  C
  C54      1.0000 0.17410  0.22230  0.15720  Biso   1.000  C
  C55      1.0000 0.67410  0.27770  0.65720  Biso   1.000  C
  C56      1.0000 0.82590  0.77770  0.84280  Biso   1.000  C
  C57      1.0000 0.24530  0.79570  0.35870  Biso   1.000  C
  C58      1.0000 0.25470  0.29570  0.14130  Biso   1.000  C
  C59      1.0000 0.75470  0.20430  0.64130  Biso   1.000  C
  C60      1.0000 0.74530  0.70430  0.85870  Biso   1.000  C
  C61      1.0000 0.27820  0.89010  0.35670  Biso   1.000  C
  C62      1.0000 0.22180  0.39010  0.14330  Biso   1.000  C
  C63      1.0000 0.72180  0.10990  0.64330  Biso   1.000  C
  C64      1.0000 0.77820  0.60990  0.85670  Biso   1.000  C
  C65      1.0000 0.39820  0.91420  0.34010  Biso   1.000  C
  C66      1.0000 0.10180  0.41420  0.15990  Biso   1.000  C
  C67      1.0000 0.60180  0.08580  0.65990  Biso   1.000  C
  C68      1.0000 0.89820  0.58580  0.84010  Biso   1.000  C
  C69      1.0000 0.48050  0.84380  0.32350  Biso   1.000  C
  C70      1.0000 0.01950  0.34380  0.17650  Biso   1.000  C
  C71      1.0000 0.51950  0.15620  0.67650  Biso   1.000  C
  C72      1.0000 0.98050  0.65620  0.82350  Biso   1.000  C
  C73      1.0000 0.44570  0.74790  0.32400  Biso   1.000  C
  C74      1.0000 0.05430  0.24790  0.17600  Biso   1.000  C
  C75      1.0000 0.55430  0.25210  0.67600  Biso   1.000  C
  C76      1.0000 0.94570  0.75210  0.82400  Biso   1.000  C
  N1       1.0000 0.99370  0.29480  0.42900  Biso   1.000  N
  N2       1.0000 0.50630  0.79480  0.07100  Biso   1.000  N
  N3       1.0000 0.00630  0.70520  0.57100  Biso   1.000  N
  N4       1.0000 0.49370  0.20520  0.92900  Biso   1.000  N
  N5       1.0000 0.23370  0.22480  0.44120  Biso   1.000  N
  N6       1.0000 0.26630  0.72480  0.05880  Biso   1.000  N
  N7       1.0000 0.76630  0.77520  0.55880  Biso   1.000  N
  N8       1.0000 0.73370  0.27520  0.94120  Biso   1.000  N
  N9       1.0000 0.15340  0.60570  0.35520  Biso   1.000  N
  N10      1.0000 0.34660  0.10570  0.14480  Biso   1.000  N
  N11      1.0000 0.84660  0.39430  0.64480  Biso   1.000  N
  N12      1.0000 0.65340  0.89430  0.85520  Biso   1.000  N
  N13      1.0000 0.35930  0.54630  0.37080  Biso   1.000  N
  N14      1.0000 0.14070  0.04630  0.12920  Biso   1.000  N
  N15      1.0000 0.64070  0.45370  0.62920  Biso   1.000  N
  N16      1.0000 0.85930  0.95370  0.87080  Biso   1.000  N
  O1       1.0000 0.48460  0.61580  0.21350  Biso   1.000  O
  O2       1.0000 0.01540  0.11580  0.28650  Biso   1.000  O
  O3       1.0000 0.51540  0.38420  0.78650  Biso   1.000  O
  O4       1.0000 0.98460  0.88420  0.71350  Biso   1.000  O
  O5       1.0000 0.61050  0.60166  0.37950  Biso   1.000  O
  O6       1.0000 0.88950  0.10166  0.12050  Biso   1.000  O
  O7       1.0000 0.38950  0.39834  0.62050  Biso   1.000  O
  O8       1.0000 0.11050  0.89834  0.87950  Biso   1.000  O
  O9       1.0000 0.67190  0.72370  0.28720  Biso   1.000  O
  O10      1.0000 0.82810  0.22370  0.21280  Biso   1.000  O
  O11      1.0000 0.32810  0.27630  0.71280  Biso   1.000  O
  O12      1.0000 0.17190  0.77630  0.78720  Biso   1.000  O
  O13      1.0000 0.89800  0.11567  0.46090  Biso   1.000  O
  O14      1.0000 0.60200  0.61567  0.03910  Biso   1.000  O
  O15      1.0000 0.10200  0.88433  0.53910  Biso   1.000  O
  O16      1.0000 0.39800  0.38433  0.96090  Biso   1.000  O
  O17      1.0000 0.86640  0.98120  0.34520  Biso   1.000  O
  O18      1.0000 0.63360  0.48120  0.15480  Biso   1.000  O
  O19      1.0000 0.13360  0.01880  0.65480  Biso   1.000  O
  O20      1.0000 0.36640  0.51880  0.84520  Biso   1.000  O
  O21      1.0000 0.82830  0.95166  0.49930  Biso   1.000  O
  O22      1.0000 0.67170  0.45166  0.00070  Biso   1.000  O
  O23      1.0000 0.17170  0.04834  0.50070  Biso   1.000  O
  O24      1.0000 0.32830  0.54834  0.99930  Biso   1.000  O
  O25      1.0000 0.66490  0.05040  0.38200  Biso   1.000  O
  O26      1.0000 0.83510  0.55040  0.11800  Biso   1.000  O
  O27      1.0000 0.33510  0.94960  0.61800  Biso   1.000  O
  O28      1.0000 0.16490  0.44960  0.88200  Biso   1.000  O
  P1       1.0000 0.81991  0.02570  0.42612  Biso   1.000  P
  P2       1.0000 0.68009  0.52570  0.07388  Biso   1.000  P
  P3       1.0000 0.18009  0.97430  0.57388  Biso   1.000  P
  P4       1.0000 0.31991  0.47430  0.92612  Biso   1.000  P
  S1       1.0000 0.56356  0.66629  0.29958  Biso   1.000  S
  S2       1.0000 0.93644  0.16629  0.20042  Biso   1.000  S
  S3       1.0000 0.43644  0.33371  0.70042  Biso   1.000  S
  S4       1.0000 0.06356  0.83371  0.79958  Biso   1.000  S
  Cu1      1.0000 0.06948  0.16276  0.45635  Biso   1.000  Cu
  Cu2      1.0000 0.43052  0.66276  0.04365  Biso   1.000  Cu
  Cu3      1.0000 0.93052  0.83724  0.54365  Biso   1.000  Cu
  Cu4      1.0000 0.56948  0.33724  0.95635  Biso   1.000  Cu
  H1       1.0000 0.81100  0.27200  0.43000  Biso   1.000  H
  H2       1.0000 0.68900  0.77200  0.07000  Biso   1.000  H
  H3       1.0000 0.18900  0.72800  0.57000  Biso   1.000  H
  H4       1.0000 0.31100  0.22800  0.93000  Biso   1.000  H
  H5       1.0000 0.73200  0.43500  0.39400  Biso   1.000  H
  H6       1.0000 0.76800  0.93500  0.10600  Biso   1.000  H
  H7       1.0000 0.26800  0.56500  0.60600  Biso   1.000  H
  H8       1.0000 0.23200  0.06500  0.89400  Biso   1.000  H
  H9       1.0000 0.88800  0.55300  0.36600  Biso   1.000  H
  H10      1.0000 0.61200  0.05300  0.13400  Biso   1.000  H
  H11      1.0000 0.11200  0.44700  0.63400  Biso   1.000  H
  H12      1.0000 0.38800  0.94700  0.86600  Biso   1.000  H
  H13      1.0000 0.43200  0.55300  0.36700  Biso   1.000  H
  H14      1.0000 0.06800  0.05300  0.13300  Biso   1.000  H
  H15      1.0000 0.56800  0.44700  0.63300  Biso   1.000  H
  H16      1.0000 0.93200  0.94700  0.86700  Biso   1.000  H
  H17      1.0000 0.36700  0.12800  0.45800  Biso   1.000  H
  H18      1.0000 0.13300  0.62800  0.04200  Biso   1.000  H
  H19      1.0000 0.63300  0.87200  0.54200  Biso   1.000  H
  H20      1.0000 0.86700  0.37200  0.95800  Biso   1.000  H
  H21      1.0000 0.54000  0.20200  0.44600  Biso   1.000  H
  H22      1.0000 0.96000  0.70200  0.05400  Biso   1.000  H
  H23      1.0000 0.46000  0.79800  0.55400  Biso   1.000  H
  H24      1.0000 0.04000  0.29800  0.94600  Biso   1.000  H
  H25      1.0000 0.51100  0.35900  0.39800  Biso   1.000  H
  H26      1.0000 0.98900  0.85900  0.10200  Biso   1.000  H
  H27      1.0000 0.48900  0.64100  0.60200  Biso   1.000  H
  H28      1.0000 0.01100  0.14100  0.89800  Biso   1.000  H
  H29      1.0000 0.18500  0.78800  0.37100  Biso   1.000  H
  H30      1.0000 0.31500  0.28800  0.12900  Biso   1.000  H
  H31      1.0000 0.81500  0.21200  0.62900  Biso   1.000  H
  H32      1.0000 0.68500  0.71200  0.87100  Biso   1.000  H
  H33      1.0000 0.22900  0.93200  0.36900  Biso   1.000  H
  H34      1.0000 0.27100  0.43200  0.13100  Biso   1.000  H
  H35      1.0000 0.77100  0.06800  0.63100  Biso   1.000  H
  H36      1.0000 0.72900  0.56800  0.86900  Biso   1.000  H
  H37      1.0000 0.42600  0.97000  0.33200  Biso   1.000  H
  H38      1.0000 0.07400  0.47000  0.16800  Biso   1.000  H
  H39      1.0000 0.57400  0.03000  0.66800  Biso   1.000  H
  H40      1.0000 0.92600  0.53000  0.83200  Biso   1.000  H
  H41      1.0000 0.55100  0.85900  0.31900  Biso   1.000  H
  H42      1.0000 0.94900  0.35900  0.18100  Biso   1.000  H
  H43      1.0000 0.44900  0.14100  0.68100  Biso   1.000  H
  H44      1.0000 0.05100  0.64100  0.81900  Biso   1.000  H
  O29      1.0000 0.59370  0.19280  0.26520  Biso   1.000  O
  O30      1.0000 0.90630  0.69280  0.23480  Biso   1.000  O
  O31      1.0000 0.40630  0.80720  0.73480  Biso   1.000  O
  O32      1.0000 0.09370  0.30720  0.76520  Biso   1.000  O
