data_image0
_cell_length_a       12.017
_cell_length_b       8.7538
_cell_length_c       17.125
_cell_angle_alpha    90
_cell_angle_beta     96.81
_cell_angle_gamma    90

_symmetry_space_group_name_H-M    "P 1"
_symmetry_int_tables_number       1

loop_
  _symmetry_equiv_pos_as_xyz
  'x, y, z'

loop_
  _atom_site_label
  _atom_site_occupancy
  _atom_site_fract_x
  _atom_site_fract_y
  _atom_site_fract_z
  _atom_site_thermal_displace_type
  _atom_site_B_iso_or_equiv
  _atom_site_type_symbol
  Cu1      1.0000 0.38432  0.29582  0.32741  Biso   1.000  Cu
  Cu2      1.0000 0.11568  0.79582  0.17259  Biso   1.000  Cu
  Cu3      1.0000 0.61568  0.70418  0.67259  Biso   1.000  Cu
  Cu4      1.0000 0.88432  0.20418  0.82741  Biso   1.000  Cu
  O1       1.0000 0.50120  0.48941  0.27497  Biso   1.000  O
  O2       1.0000 0.99880  0.98941  0.22503  Biso   1.000  O
  O3       1.0000 0.49880  0.51059  0.72503  Biso   1.000  O
  O4       1.0000 0.00120  0.01059  0.77497  Biso   1.000  O
  C1       1.0000 0.42220  0.58840  0.22902  Biso   1.000  C
  C2       1.0000 0.07780  0.08840  0.27098  Biso   1.000  C
  C3       1.0000 0.57780  0.41160  0.77098  Biso   1.000  C
  C4       1.0000 0.92220  0.91160  0.72902  Biso   1.000  C
  H1       1.0000 0.41220  0.68190  0.25890  Biso   1.000  H
  H2       1.0000 0.08780  0.18190  0.24110  Biso   1.000  H
  H3       1.0000 0.58780  0.31810  0.74110  Biso   1.000  H
  H4       1.0000 0.91220  0.81810  0.75890  Biso   1.000  H
  C5       1.0000 0.47880  0.62850  0.15598  Biso   1.000  C
  C6       1.0000 0.02120  0.12850  0.34402  Biso   1.000  C
  C7       1.0000 0.52120  0.37150  0.84402  Biso   1.000  C
  C8       1.0000 0.97880  0.87150  0.65598  Biso   1.000  C
  H5       1.0000 0.42340  0.65970  0.11220  Biso   1.000  H
  H6       1.0000 0.07660  0.15970  0.38780  Biso   1.000  H
  H7       1.0000 0.57660  0.34030  0.88780  Biso   1.000  H
  H8       1.0000 0.92340  0.84030  0.61220  Biso   1.000  H
  C9       1.0000 0.53020  0.47420  0.13967  Biso   1.000  C
  C10      1.0000 0.96980  0.97420  0.36033  Biso   1.000  C
  C11      1.0000 0.46980  0.52580  0.86033  Biso   1.000  C
  C12      1.0000 0.03020  0.02580  0.63967  Biso   1.000  C
  H9       1.0000 0.46890  0.40890  0.11630  Biso   1.000  H
  H10      1.0000 0.03110  0.90890  0.38370  Biso   1.000  H
  H11      1.0000 0.53110  0.59110  0.88370  Biso   1.000  H
  H12      1.0000 0.96890  0.09110  0.61630  Biso   1.000  H
  C13      1.0000 0.56790  0.41050  0.22280  Biso   1.000  C
  C14      1.0000 0.93210  0.91050  0.27720  Biso   1.000  C
  C15      1.0000 0.43210  0.58950  0.77720  Biso   1.000  C
  C16      1.0000 0.06790  0.08950  0.72280  Biso   1.000  C
  H13      1.0000 0.64720  0.43450  0.23760  Biso   1.000  H
  H14      1.0000 0.85280  0.93450  0.26240  Biso   1.000  H
  H15      1.0000 0.35280  0.56550  0.76240  Biso   1.000  H
  H16      1.0000 0.14720  0.06550  0.73760  Biso   1.000  H
  C17      1.0000 0.30720  0.51140  0.20749  Biso   1.000  C
  C18      1.0000 0.19280  0.01140  0.29251  Biso   1.000  C
  C19      1.0000 0.69280  0.48860  0.79251  Biso   1.000  C
  C20      1.0000 0.80720  0.98860  0.70749  Biso   1.000  C
  O5       1.0000 0.29156  0.37830  0.23452  Biso   1.000  O
  O6       1.0000 0.20844  0.87830  0.26548  Biso   1.000  O
  O7       1.0000 0.70844  0.62170  0.76548  Biso   1.000  O
  O8       1.0000 0.79156  0.12170  0.73452  Biso   1.000  O
  O9       1.0000 0.23678  0.58590  0.16543  Biso   1.000  O
  O10      1.0000 0.26322  0.08590  0.33457  Biso   1.000  O
  O11      1.0000 0.76322  0.41410  0.83457  Biso   1.000  O
  O12      1.0000 0.73678  0.91410  0.66543  Biso   1.000  O
  C21      1.0000 0.56500  0.75300  0.17649  Biso   1.000  C
  C22      1.0000 0.93500  0.25300  0.32351  Biso   1.000  C
  C23      1.0000 0.43500  0.24700  0.82351  Biso   1.000  C
  C24      1.0000 0.06500  0.74700  0.67649  Biso   1.000  C
  O13      1.0000 0.51910  0.88680  0.16380  Biso   1.000  O
  O14      1.0000 0.98090  0.38680  0.33620  Biso   1.000  O
  O15      1.0000 0.48090  0.11320  0.83620  Biso   1.000  O
  O16      1.0000 0.01910  0.61320  0.66380  Biso   1.000  O
  H17      1.0000 0.56230  0.94920  0.18440  Biso   1.000  H
  H18      1.0000 0.93770  0.44920  0.31560  Biso   1.000  H
  H19      1.0000 0.43770  0.05080  0.81560  Biso   1.000  H
  H20      1.0000 0.06230  0.55080  0.68440  Biso   1.000  H
  O17      1.0000 0.66130  0.73360  0.19730  Biso   1.000  O
  O18      1.0000 0.83870  0.23360  0.30270  Biso   1.000  O
  O19      1.0000 0.33870  0.26640  0.80270  Biso   1.000  O
  O20      1.0000 0.16130  0.76640  0.69730  Biso   1.000  O
  C25      1.0000 0.61700  0.47930  0.08155  Biso   1.000  C
  C26      1.0000 0.88300  0.97930  0.41845  Biso   1.000  C
  C27      1.0000 0.38300  0.52070  0.91845  Biso   1.000  C
  C28      1.0000 0.11700  0.02070  0.58155  Biso   1.000  C
  O21      1.0000 0.61900  0.58030  0.03378  Biso   1.000  O
  O22      1.0000 0.88100  0.08030  0.46622  Biso   1.000  O
  O23      1.0000 0.38100  0.41970  0.96622  Biso   1.000  O
  O24      1.0000 0.11900  0.91970  0.53378  Biso   1.000  O
  O25      1.0000 0.68690  0.36260  0.08317  Biso   1.000  O
  O26      1.0000 0.81310  0.86260  0.41683  Biso   1.000  O
  O27      1.0000 0.31310  0.63740  0.91683  Biso   1.000  O
  O28      1.0000 0.18690  0.13740  0.58317  Biso   1.000  O
  H21      1.0000 0.66150  0.29390  0.10690  Biso   1.000  H
  H22      1.0000 0.83850  0.79390  0.39310  Biso   1.000  H
  H23      1.0000 0.33850  0.70610  0.89310  Biso   1.000  H
  H24      1.0000 0.16150  0.20610  0.60690  Biso   1.000  H
  C29      1.0000 0.55130  0.23730  0.22457  Biso   1.000  C
  C30      1.0000 0.94870  0.73730  0.27543  Biso   1.000  C
  C31      1.0000 0.44870  0.76270  0.77543  Biso   1.000  C
  C32      1.0000 0.05130  0.26270  0.72457  Biso   1.000  C
  O29      1.0000 0.61010  0.16340  0.18157  Biso   1.000  O
  O30      1.0000 0.88990  0.66340  0.31843  Biso   1.000  O
  O31      1.0000 0.38990  0.83660  0.81843  Biso   1.000  O
  O32      1.0000 0.11010  0.33660  0.68157  Biso   1.000  O
  O33      1.0000 0.48206  0.17804  0.26422  Biso   1.000  O
  O34      1.0000 0.01794  0.67804  0.23578  Biso   1.000  O
  O35      1.0000 0.51794  0.82196  0.73578  Biso   1.000  O
  O36      1.0000 0.98206  0.32196  0.76422  Biso   1.000  O
  N1       1.0000 0.30206  0.41680  0.40223  Biso   1.000  N
  N2       1.0000 0.19794  0.91680  0.09777  Biso   1.000  N
  N3       1.0000 0.69794  0.58320  0.59777  Biso   1.000  N
  N4       1.0000 0.80206  0.08320  0.90223  Biso   1.000  N
  N5       1.0000 0.47756  0.23940  0.42819  Biso   1.000  N
  N6       1.0000 0.02244  0.73940  0.07181  Biso   1.000  N
  N7       1.0000 0.52244  0.76060  0.57181  Biso   1.000  N
  N8       1.0000 0.97756  0.26060  0.92819  Biso   1.000  N
  C33      1.0000 0.21250  0.50680  0.38350  Biso   1.000  C
  C34      1.0000 0.28750  0.00680  0.11650  Biso   1.000  C
  C35      1.0000 0.78750  0.49320  0.61650  Biso   1.000  C
  C36      1.0000 0.71250  0.99320  0.88350  Biso   1.000  C
  H25      1.0000 0.18320  0.51630  0.33100  Biso   1.000  H
  H26      1.0000 0.31680  0.01630  0.16900  Biso   1.000  H
  H27      1.0000 0.81680  0.48370  0.66900  Biso   1.000  H
  H28      1.0000 0.68320  0.98370  0.83100  Biso   1.000  H
  C37      1.0000 0.16270  0.58540  0.43970  Biso   1.000  C
  C38      1.0000 0.33730  0.08540  0.06030  Biso   1.000  C
  C39      1.0000 0.83730  0.41460  0.56030  Biso   1.000  C
  C40      1.0000 0.66270  0.91460  0.93970  Biso   1.000  C
  H29      1.0000 0.10060  0.64700  0.42530  Biso   1.000  H
  H30      1.0000 0.39940  0.14700  0.07470  Biso   1.000  H
  H31      1.0000 0.89940  0.35300  0.57470  Biso   1.000  H
  H32      1.0000 0.60060  0.85300  0.92530  Biso   1.000  H
  C41      1.0000 0.20570  0.57190  0.51720  Biso   1.000  C
  C42      1.0000 0.29430  0.07190  0.98280  Biso   1.000  C
  C43      1.0000 0.79430  0.42810  0.48280  Biso   1.000  C
  C44      1.0000 0.70570  0.92810  0.01720  Biso   1.000  C
  H33      1.0000 0.17390  0.62580  0.55580  Biso   1.000  H
  H34      1.0000 0.32610  0.12580  0.94420  Biso   1.000  H
  H35      1.0000 0.82610  0.37420  0.44420  Biso   1.000  H
  H36      1.0000 0.67390  0.87420  0.05580  Biso   1.000  H
  C45      1.0000 0.29670  0.47730  0.53746  Biso   1.000  C
  C46      1.0000 0.20330  0.97730  0.96254  Biso   1.000  C
  C47      1.0000 0.70330  0.52270  0.46254  Biso   1.000  C
  C48      1.0000 0.79670  0.02270  0.03746  Biso   1.000  C
  H37      1.0000 0.32600  0.46510  0.58980  Biso   1.000  H
  H38      1.0000 0.17400  0.96510  0.91020  Biso   1.000  H
  H39      1.0000 0.67400  0.53490  0.41020  Biso   1.000  H
  H40      1.0000 0.82600  0.03490  0.08980  Biso   1.000  H
  C49      1.0000 0.34340  0.40110  0.47858  Biso   1.000  C
  C50      1.0000 0.15660  0.90110  0.02142  Biso   1.000  C
  C51      1.0000 0.65660  0.59890  0.52142  Biso   1.000  C
  C52      1.0000 0.84340  0.09890  0.97858  Biso   1.000  C
  C53      1.0000 0.44120  0.29930  0.49336  Biso   1.000  C
  C54      1.0000 0.05880  0.79930  0.00664  Biso   1.000  C
  C55      1.0000 0.55880  0.70070  0.50664  Biso   1.000  C
  C56      1.0000 0.94120  0.20070  0.99336  Biso   1.000  C
  C57      1.0000 0.49370  0.26600  0.56785  Biso   1.000  C
  C58      1.0000 0.00630  0.76600  0.93215  Biso   1.000  C
  C59      1.0000 0.50630  0.73400  0.43215  Biso   1.000  C
  C60      1.0000 0.99370  0.23400  0.06785  Biso   1.000  C
  H41      1.0000 0.46710  0.30690  0.61220  Biso   1.000  H
  H42      1.0000 0.03290  0.80690  0.88780  Biso   1.000  H
  H43      1.0000 0.53290  0.69310  0.38780  Biso   1.000  H
  H44      1.0000 0.96710  0.19310  0.11220  Biso   1.000  H
  C61      1.0000 0.58610  0.17110  0.57524  Biso   1.000  C
  C62      1.0000 0.91390  0.67110  0.92476  Biso   1.000  C
  C63      1.0000 0.41390  0.82890  0.42476  Biso   1.000  C
  C64      1.0000 0.08610  0.32890  0.07524  Biso   1.000  C
  H45      1.0000 0.62260  0.14760  0.62480  Biso   1.000  H
  H46      1.0000 0.87740  0.64760  0.87520  Biso   1.000  H
  H47      1.0000 0.37740  0.85240  0.37520  Biso   1.000  H
  H48      1.0000 0.12260  0.35240  0.12480  Biso   1.000  H
  C65      1.0000 0.62390  0.11140  0.50892  Biso   1.000  C
  C66      1.0000 0.87610  0.61140  0.99108  Biso   1.000  C
  C67      1.0000 0.37610  0.88860  0.49108  Biso   1.000  C
  C68      1.0000 0.12390  0.38860  0.00892  Biso   1.000  C
  H49      1.0000 0.68640  0.04790  0.51300  Biso   1.000  H
  H50      1.0000 0.81360  0.54790  0.98700  Biso   1.000  H
  H51      1.0000 0.31360  0.95210  0.48700  Biso   1.000  H
  H52      1.0000 0.18640  0.45210  0.01300  Biso   1.000  H
  C69      1.0000 0.56770  0.14730  0.43628  Biso   1.000  C
  C70      1.0000 0.93230  0.64730  0.06372  Biso   1.000  C
  C71      1.0000 0.43230  0.85270  0.56372  Biso   1.000  C
  C72      1.0000 0.06770  0.35270  0.93628  Biso   1.000  C
  H53      1.0000 0.59290  0.10640  0.39140  Biso   1.000  H
  H54      1.0000 0.90710  0.60640  0.10860  Biso   1.000  H
  H55      1.0000 0.40710  0.89360  0.60860  Biso   1.000  H
  H56      1.0000 0.09290  0.39360  0.89140  Biso   1.000  H
