data_image0
_cell_length_a       12.977
_cell_length_b       8.5596
_cell_length_c       17.607
_cell_angle_alpha    90
_cell_angle_beta     91.08
_cell_angle_gamma    90

_symmetry_space_group_name_H-M    "P 1"
_symmetry_int_tables_number       1

loop_
  _symmetry_equiv_pos_as_xyz
  'x, y, z'

loop_
  _atom_site_label
  _atom_site_occupancy
  _atom_site_fract_x
  _atom_site_fract_y
  _atom_site_fract_z
  _atom_site_thermal_displace_type
  _atom_site_B_iso_or_equiv
  _atom_site_type_symbol
  Cu1      1.0000 0.37089  0.25389  0.68469  Biso   1.000  Cu
  Cu2      1.0000 0.12911  0.75389  0.81531  Biso   1.000  Cu
  Cu3      1.0000 0.62911  0.74611  0.31531  Biso   1.000  Cu
  Cu4      1.0000 0.87089  0.24611  0.18469  Biso   1.000  Cu
  O1       1.0000 0.46432  0.45399  0.74665  Biso   1.000  O
  O2       1.0000 0.03568  0.95399  0.75335  Biso   1.000  O
  O3       1.0000 0.53568  0.54601  0.25335  Biso   1.000  O
  O4       1.0000 0.96432  0.04601  0.24665  Biso   1.000  O
  C1       1.0000 0.38913  0.54990  0.78453  Biso   1.000  C
  C2       1.0000 0.11087  0.04990  0.71547  Biso   1.000  C
  C3       1.0000 0.61087  0.45010  0.21547  Biso   1.000  C
  C4       1.0000 0.88913  0.95010  0.28453  Biso   1.000  C
  H1       1.0000 0.37530  0.64310  0.75360  Biso   1.000  H
  H2       1.0000 0.12470  0.14310  0.74640  Biso   1.000  H
  H3       1.0000 0.62470  0.35690  0.24640  Biso   1.000  H
  H4       1.0000 0.87530  0.85690  0.25360  Biso   1.000  H
  C5       1.0000 0.44267  0.60030  0.85986  Biso   1.000  C
  C6       1.0000 0.05733  0.10030  0.64014  Biso   1.000  C
  C7       1.0000 0.55733  0.39970  0.14014  Biso   1.000  C
  C8       1.0000 0.94267  0.89970  0.35986  Biso   1.000  C
  H5       1.0000 0.39220  0.62510  0.89880  Biso   1.000  H
  H6       1.0000 0.10780  0.12510  0.60120  Biso   1.000  H
  H7       1.0000 0.60780  0.37490  0.10120  Biso   1.000  H
  H8       1.0000 0.89220  0.87490  0.39880  Biso   1.000  H
  C9       1.0000 0.50279  0.45150  0.87985  Biso   1.000  C
  C10      1.0000 0.99721  0.95150  0.62015  Biso   1.000  C
  C11      1.0000 0.49721  0.54850  0.12015  Biso   1.000  C
  C12      1.0000 0.00279  0.04850  0.37985  Biso   1.000  C
  H9       1.0000 0.45480  0.37930  0.90390  Biso   1.000  H
  H10      1.0000 0.04520  0.87930  0.59610  Biso   1.000  H
  H11      1.0000 0.54520  0.62070  0.09610  Biso   1.000  H
  H12      1.0000 0.95480  0.12070  0.40390  Biso   1.000  H
  C13      1.0000 0.53101  0.38040  0.80177  Biso   1.000  C
  C14      1.0000 0.96899  0.88040  0.69823  Biso   1.000  C
  C15      1.0000 0.46899  0.61960  0.19823  Biso   1.000  C
  C16      1.0000 0.03101  0.11960  0.30177  Biso   1.000  C
  H13      1.0000 0.60280  0.40540  0.79060  Biso   1.000  H
  H14      1.0000 0.89720  0.90540  0.70940  Biso   1.000  H
  H15      1.0000 0.39720  0.59460  0.20940  Biso   1.000  H
  H16      1.0000 0.10280  0.09460  0.29060  Biso   1.000  H
  C17      1.0000 0.28730  0.46150  0.79593  Biso   1.000  C
  C18      1.0000 0.21270  0.96150  0.70407  Biso   1.000  C
  C19      1.0000 0.71270  0.53850  0.20407  Biso   1.000  C
  C20      1.0000 0.78730  0.03850  0.29593  Biso   1.000  C
  O5       1.0000 0.27437  0.33250  0.76118  Biso   1.000  O
  O6       1.0000 0.22563  0.83250  0.73882  Biso   1.000  O
  O7       1.0000 0.72563  0.66750  0.23882  Biso   1.000  O
  O8       1.0000 0.77437  0.16750  0.26118  Biso   1.000  O
  O9       1.0000 0.22256  0.52400  0.83705  Biso   1.000  O
  O10      1.0000 0.27744  0.02400  0.66295  Biso   1.000  O
  O11      1.0000 0.77744  0.47600  0.16295  Biso   1.000  O
  O12      1.0000 0.72256  0.97600  0.33705  Biso   1.000  O
  C21      1.0000 0.51390  0.73800  0.84554  Biso   1.000  C
  C22      1.0000 0.98610  0.23800  0.65446  Biso   1.000  C
  C23      1.0000 0.48610  0.26200  0.15446  Biso   1.000  C
  C24      1.0000 0.01390  0.76200  0.34554  Biso   1.000  C
  O13      1.0000 0.58310  0.73380  0.80181  Biso   1.000  O
  O14      1.0000 0.91690  0.23380  0.69819  Biso   1.000  O
  O15      1.0000 0.41690  0.26620  0.19819  Biso   1.000  O
  O16      1.0000 0.08310  0.76620  0.30181  Biso   1.000  O
  O17      1.0000 0.48775  0.86190  0.88493  Biso   1.000  O
  O18      1.0000 0.01225  0.36190  0.61507  Biso   1.000  O
  O19      1.0000 0.51225  0.13810  0.11507  Biso   1.000  O
  O20      1.0000 0.98775  0.63810  0.38493  Biso   1.000  O
  H17      1.0000 0.51700  0.93770  0.86920  Biso   1.000  H
  H18      1.0000 0.98300  0.43770  0.63080  Biso   1.000  H
  H19      1.0000 0.48300  0.06230  0.13080  Biso   1.000  H
  H20      1.0000 0.01700  0.56230  0.36920  Biso   1.000  H
  C25      1.0000 0.59440  0.47260  0.93417  Biso   1.000  C
  C26      1.0000 0.90560  0.97260  0.56583  Biso   1.000  C
  C27      1.0000 0.40560  0.52740  0.06583  Biso   1.000  C
  C28      1.0000 0.09440  0.02740  0.43417  Biso   1.000  C
  O21      1.0000 0.65427  0.34810  0.94470  Biso   1.000  O
  O22      1.0000 0.84573  0.84810  0.55530  Biso   1.000  O
  O23      1.0000 0.34573  0.65190  0.05530  Biso   1.000  O
  O24      1.0000 0.15427  0.15190  0.44470  Biso   1.000  O
  H21      1.0000 0.62930  0.28290  0.91690  Biso   1.000  H
  H22      1.0000 0.87070  0.78290  0.58310  Biso   1.000  H
  H23      1.0000 0.37070  0.71710  0.08310  Biso   1.000  H
  H24      1.0000 0.12930  0.21710  0.41690  Biso   1.000  H
  O25      1.0000 0.61254  0.59210  0.96761  Biso   1.000  O
  O26      1.0000 0.88746  0.09210  0.53239  Biso   1.000  O
  O27      1.0000 0.38746  0.40790  0.03239  Biso   1.000  O
  O28      1.0000 0.11254  0.90790  0.46761  Biso   1.000  O
  C29      1.0000 0.51750  0.20400  0.80395  Biso   1.000  C
  C30      1.0000 0.98250  0.70400  0.69605  Biso   1.000  C
  C31      1.0000 0.48250  0.79600  0.19605  Biso   1.000  C
  C32      1.0000 0.01750  0.29600  0.30395  Biso   1.000  C
  O29      1.0000 0.57391  0.13470  0.85270  Biso   1.000  O
  O30      1.0000 0.92609  0.63470  0.64730  Biso   1.000  O
  O31      1.0000 0.42609  0.86530  0.14730  Biso   1.000  O
  O32      1.0000 0.07391  0.36530  0.35270  Biso   1.000  O
  O33      1.0000 0.45364  0.13650  0.76167  Biso   1.000  O
  O34      1.0000 0.04636  0.63650  0.73833  Biso   1.000  O
  O35      1.0000 0.54636  0.86350  0.23833  Biso   1.000  O
  O36      1.0000 0.95364  0.36350  0.26167  Biso   1.000  O
  N1       1.0000 0.47196  0.20110  0.60256  Biso   1.000  N
  N2       1.0000 0.02804  0.70110  0.89744  Biso   1.000  N
  N3       1.0000 0.52804  0.79890  0.39744  Biso   1.000  N
  N4       1.0000 0.97196  0.29890  0.10256  Biso   1.000  N
  N5       1.0000 0.30825  0.38460  0.59966  Biso   1.000  N
  N6       1.0000 0.19175  0.88460  0.90034  Biso   1.000  N
  N7       1.0000 0.69175  0.61540  0.40034  Biso   1.000  N
  N8       1.0000 0.80825  0.11540  0.09966  Biso   1.000  N
  C33      1.0000 0.22750  0.48000  0.60029  Biso   1.000  C
  C34      1.0000 0.27250  0.98000  0.89971  Biso   1.000  C
  C35      1.0000 0.77250  0.52000  0.39971  Biso   1.000  C
  C36      1.0000 0.72750  0.02000  0.10029  Biso   1.000  C
  H25      1.0000 0.19240  0.49210  0.64550  Biso   1.000  H
  H26      1.0000 0.30760  0.99210  0.85450  Biso   1.000  H
  H27      1.0000 0.80760  0.50790  0.35450  Biso   1.000  H
  H28      1.0000 0.69240  0.00790  0.14550  Biso   1.000  H
  C37      1.0000 0.19270  0.56310  0.53660  Biso   1.000  C
  C38      1.0000 0.30730  0.06310  0.96340  Biso   1.000  C
  C39      1.0000 0.80730  0.43690  0.46340  Biso   1.000  C
  C40      1.0000 0.69270  0.93690  0.03660  Biso   1.000  C
  H29      1.0000 0.13620  0.62950  0.53990  Biso   1.000  H
  H30      1.0000 0.36380  0.12950  0.96010  Biso   1.000  H
  H31      1.0000 0.86380  0.37050  0.46010  Biso   1.000  H
  H32      1.0000 0.63620  0.87050  0.03990  Biso   1.000  H
  C41      1.0000 0.24170  0.54600  0.47040  Biso   1.000  C
  C42      1.0000 0.25830  0.04600  0.02960  Biso   1.000  C
  C43      1.0000 0.75830  0.45400  0.52960  Biso   1.000  C
  C44      1.0000 0.74170  0.95400  0.97040  Biso   1.000  C
  H33      1.0000 0.21850  0.59990  0.42760  Biso   1.000  H
  H34      1.0000 0.28150  0.09990  0.07240  Biso   1.000  H
  H35      1.0000 0.78150  0.40010  0.57240  Biso   1.000  H
  H36      1.0000 0.71850  0.90010  0.92760  Biso   1.000  H
  C45      1.0000 0.32680  0.44830  0.46574  Biso   1.000  C
  C46      1.0000 0.17320  0.94830  0.03426  Biso   1.000  C
  C47      1.0000 0.67320  0.55170  0.53426  Biso   1.000  C
  C48      1.0000 0.82680  0.05170  0.96574  Biso   1.000  C
  C49      1.0000 0.38550  0.42220  0.39980  Biso   1.000  C
  C50      1.0000 0.11450  0.92220  0.10020  Biso   1.000  C
  C51      1.0000 0.61450  0.57780  0.60020  Biso   1.000  C
  C52      1.0000 0.88550  0.07780  0.89980  Biso   1.000  C
  H37      1.0000 0.36530  0.46990  0.35450  Biso   1.000  H
  H38      1.0000 0.13470  0.96990  0.14550  Biso   1.000  H
  H39      1.0000 0.63470  0.53010  0.64550  Biso   1.000  H
  H40      1.0000 0.86530  0.03010  0.85450  Biso   1.000  H
  C53      1.0000 0.46920  0.33090  0.40109  Biso   1.000  C
  C54      1.0000 0.03080  0.83090  0.09891  Biso   1.000  C
  C55      1.0000 0.53080  0.66910  0.59891  Biso   1.000  C
  C56      1.0000 0.96920  0.16910  0.90109  Biso   1.000  C
  H41      1.0000 0.50540  0.31760  0.35650  Biso   1.000  H
  H42      1.0000 0.99460  0.81760  0.14350  Biso   1.000  H
  H43      1.0000 0.49460  0.68240  0.64350  Biso   1.000  H
  H44      1.0000 0.00540  0.18240  0.85650  Biso   1.000  H
  C57      1.0000 0.50550  0.25170  0.46940  Biso   1.000  C
  C58      1.0000 0.99450  0.75170  0.03060  Biso   1.000  C
  C59      1.0000 0.49450  0.74830  0.53060  Biso   1.000  C
  C60      1.0000 0.00550  0.24830  0.96940  Biso   1.000  C
  C61      1.0000 0.59160  0.16040  0.47500  Biso   1.000  C
  C62      1.0000 0.90840  0.66040  0.02500  Biso   1.000  C
  C63      1.0000 0.40840  0.83960  0.52500  Biso   1.000  C
  C64      1.0000 0.09160  0.33960  0.97500  Biso   1.000  C
  H45      1.0000 0.63220  0.14600  0.43260  Biso   1.000  H
  H46      1.0000 0.86780  0.64600  0.06740  Biso   1.000  H
  H47      1.0000 0.36780  0.85400  0.56740  Biso   1.000  H
  H48      1.0000 0.13220  0.35400  0.93260  Biso   1.000  H
  C65      1.0000 0.61890  0.09040  0.54170  Biso   1.000  C
  C66      1.0000 0.88110  0.59040  0.95830  Biso   1.000  C
  C67      1.0000 0.38110  0.90960  0.45830  Biso   1.000  C
  C68      1.0000 0.11890  0.40960  0.04170  Biso   1.000  C
  H49      1.0000 0.67790  0.02910  0.54530  Biso   1.000  H
  H50      1.0000 0.82210  0.52910  0.95470  Biso   1.000  H
  H51      1.0000 0.32210  0.97090  0.45470  Biso   1.000  H
  H52      1.0000 0.17790  0.47090  0.04530  Biso   1.000  H
  C69      1.0000 0.55510  0.11260  0.60630  Biso   1.000  C
  C70      1.0000 0.94490  0.61260  0.89370  Biso   1.000  C
  C71      1.0000 0.44490  0.88740  0.39370  Biso   1.000  C
  C72      1.0000 0.05510  0.38740  0.10630  Biso   1.000  C
  H53      1.0000 0.57270  0.06360  0.65190  Biso   1.000  H
  H54      1.0000 0.92730  0.56360  0.84810  Biso   1.000  H
  H55      1.0000 0.42730  0.93640  0.34810  Biso   1.000  H
  H56      1.0000 0.07270  0.43640  0.15190  Biso   1.000  H
  C73      1.0000 0.44730  0.27140  0.53510  Biso   1.000  C
  C74      1.0000 0.05270  0.77140  0.96490  Biso   1.000  C
  C75      1.0000 0.55270  0.72860  0.46490  Biso   1.000  C
  C76      1.0000 0.94730  0.22860  0.03510  Biso   1.000  C
  C77      1.0000 0.35850  0.36840  0.53342  Biso   1.000  C
  C78      1.0000 0.14150  0.86840  0.96658  Biso   1.000  C
  C79      1.0000 0.64150  0.63160  0.46658  Biso   1.000  C
  C80      1.0000 0.85850  0.13160  0.03342  Biso   1.000  C
  O37      1.0000 0.77470  0.43640  0.76690  Biso   1.000  O
  O38      1.0000 0.72530  0.93640  0.73310  Biso   1.000  O
  O39      1.0000 0.22530  0.56360  0.23310  Biso   1.000  O
  O40      1.0000 0.27470  0.06360  0.26690  Biso   1.000  O
  H57      1.0000 0.81920  0.37500  0.74690  Biso   1.000  H
  H58      1.0000 0.68080  0.87500  0.75310  Biso   1.000  H
  H59      1.0000 0.18080  0.62500  0.25310  Biso   1.000  H
  H60      1.0000 0.31920  0.12500  0.24690  Biso   1.000  H
  H61      1.0000 0.81460  0.48650  0.73740  Biso   1.000  H
  H62      1.0000 0.68540  0.98650  0.76260  Biso   1.000  H
  H63      1.0000 0.18540  0.51350  0.26260  Biso   1.000  H
  H64      1.0000 0.31460  0.01350  0.23740  Biso   1.000  H
