data_image0
_cell_length_a       7.629
_cell_length_b       15.946
_cell_length_c       16.469
_cell_angle_alpha    92.875
_cell_angle_beta     99.764
_cell_angle_gamma    101.239

_symmetry_space_group_name_H-M    "P 1"
_symmetry_int_tables_number       1

loop_
  _symmetry_equiv_pos_as_xyz
  'x, y, z'

loop_
  _atom_site_label
  _atom_site_occupancy
  _atom_site_fract_x
  _atom_site_fract_y
  _atom_site_fract_z
  _atom_site_thermal_displace_type
  _atom_site_B_iso_or_equiv
  _atom_site_type_symbol
  C1       1.0000 0.72890  0.13420  0.24610  Biso   1.000  C
  C2       1.0000 0.27110  0.86580  0.75390  Biso   1.000  C
  C3       1.0000 0.76150  0.07140  0.30020  Biso   1.000  C
  C4       1.0000 0.23850  0.92860  0.69980  Biso   1.000  C
  H1       1.0000 0.84610  0.08640  0.34900  Biso   1.000  H
  H2       1.0000 0.15390  0.91360  0.65100  Biso   1.000  H
  C5       1.0000 0.67080  0.98950  0.28180  Biso   1.000  C
  C6       1.0000 0.32920  0.01050  0.71820  Biso   1.000  C
  C7       1.0000 0.54030  0.96950  0.20890  Biso   1.000  C
  C8       1.0000 0.45970  0.03050  0.79110  Biso   1.000  C
  C9       1.0000 0.51020  0.03520  0.15870  Biso   1.000  C
  C10      1.0000 0.48980  0.96480  0.84130  Biso   1.000  C
  C11      1.0000 0.25440  0.07740  0.96570  Biso   1.000  C
  C12      1.0000 0.74560  0.92260  0.03430  Biso   1.000  C
  C13      1.0000 0.14910  0.99750  0.93240  Biso   1.000  C
  C14      1.0000 0.85090  0.00250  0.06760  Biso   1.000  C
  C15      1.0000 0.16130  0.92720  0.97660  Biso   1.000  C
  C16      1.0000 0.83870  0.07280  0.02340  Biso   1.000  C
  C17      1.0000 0.27300  0.93640  0.05390  Biso   1.000  C
  C18      1.0000 0.72700  0.06360  0.94610  Biso   1.000  C
  C19      1.0000 0.37700  0.01950  0.08210  Biso   1.000  C
  C20      1.0000 0.62300  0.98050  0.91790  Biso   1.000  C
  C21      1.0000 0.43570  0.88730  0.17880  Biso   1.000  C
  C22      1.0000 0.56430  0.11270  0.82120  Biso   1.000  C
  C23      1.0000 0.30190  0.86990  0.10620  Biso   1.000  C
  C24      1.0000 0.69810  0.13010  0.89380  Biso   1.000  C
  C25      1.0000 0.31290  0.74850  0.16080  Biso   1.000  C
  C26      1.0000 0.68710  0.25150  0.83920  Biso   1.000  C
  C27      1.0000 0.27480  0.65540  0.16950  Biso   1.000  C
  C28      1.0000 0.72520  0.34460  0.83050  Biso   1.000  C
  C29      1.0000 0.29120  0.61760  0.24470  Biso   1.000  C
  C30      1.0000 0.70880  0.38240  0.75530  Biso   1.000  C
  C31      1.0000 0.25170  0.52860  0.24510  Biso   1.000  C
  C32      1.0000 0.74830  0.47140  0.75490  Biso   1.000  C
  H3       1.0000 0.26680  0.50380  0.29500  Biso   1.000  H
  H4       1.0000 0.73320  0.49620  0.70500  Biso   1.000  H
  C33      1.0000 0.19020  0.47680  0.17210  Biso   1.000  C
  C34      1.0000 0.80980  0.52320  0.82790  Biso   1.000  C
  C35      1.0000 0.17560  0.51220  0.09760  Biso   1.000  C
  C36      1.0000 0.82440  0.48780  0.90240  Biso   1.000  C
  H5       1.0000 0.13830  0.47710  0.04840  Biso   1.000  H
  H6       1.0000 0.86170  0.52290  0.95160  Biso   1.000  H
  C37      1.0000 0.21620  0.59980  0.09610  Biso   1.000  C
  C38      1.0000 0.78380  0.40020  0.90390  Biso   1.000  C
  H7       1.0000 0.20480  0.62330  0.04540  Biso   1.000  H
  H8       1.0000 0.79520  0.37670  0.95460  Biso   1.000  H
  N1       1.0000 0.60700  0.11790  0.17760  Biso   1.000  N
  N2       1.0000 0.39300  0.88210  0.82240  Biso   1.000  N
  N3       1.0000 0.36680  0.08980  0.03820  Biso   1.000  N
  N4       1.0000 0.63320  0.91020  0.96180  Biso   1.000  N
  N5       1.0000 0.43470  0.80780  0.20990  Biso   1.000  N
  N6       1.0000 0.56530  0.19220  0.79010  Biso   1.000  N
  N7       1.0000 0.23210  0.78470  0.09650  Biso   1.000  N
  N8       1.0000 0.76790  0.21530  0.90350  Biso   1.000  N
  O1       1.0000 0.36810  0.61530  0.40320  Biso   1.000  O
  O2       1.0000 0.63190  0.38470  0.59680  Biso   1.000  O
  O3       1.0000 0.23420  0.73210  0.34910  Biso   1.000  O
  O4       1.0000 0.76580  0.26790  0.65090  Biso   1.000  O
  O5       1.0000 0.54470  0.72820  0.34150  Biso   1.000  O
  O6       1.0000 0.45530  0.27180  0.65850  Biso   1.000  O
  S1       1.0000 0.36330  0.67894  0.34245  Biso   1.000  S
  S2       1.0000 0.63670  0.32106  0.65755  Biso   1.000  S
  Cu1      1.0000 0.53383  0.19975  0.09359  Biso   1.000  Cu
  Cu2      1.0000 0.46617  0.80025  0.90641  Biso   1.000  Cu
  Cl1      1.0000 0.78170  0.30300  0.14201  Biso   1.000  Cl
  Cl2      1.0000 0.21830  0.69700  0.85799  Biso   1.000  Cl
  Cl3      1.0000 0.43790  0.27882  0.99179  Biso   1.000  Cl
  Cl4      1.0000 0.56210  0.72118  0.00821  Biso   1.000  Cl
  H9       1.0000 0.81400  0.19400  0.25700  Biso   1.000  H
  H10      1.0000 0.18600  0.80600  0.74300  Biso   1.000  H
  H11      1.0000 0.70000  0.94500  0.32200  Biso   1.000  H
  H12      1.0000 0.30000  0.05500  0.67800  Biso   1.000  H
  H13      1.0000 0.23600  0.12100  0.93000  Biso   1.000  H
  H14      1.0000 0.76400  0.87900  0.07000  Biso   1.000  H
  H15      1.0000 0.05400  0.98900  0.87300  Biso   1.000  H
  H16      1.0000 0.94600  0.01100  0.12700  Biso   1.000  H
  H17      1.0000 0.09400  0.88300  0.95400  Biso   1.000  H
  H18      1.0000 0.90600  0.11700  0.04600  Biso   1.000  H
  H19      1.0000 0.17400  0.42100  0.17400  Biso   1.000  H
  H20      1.0000 0.82600  0.57900  0.82600  Biso   1.000  H
  H21      1.0000 0.50300  0.79100  0.25500  Biso   1.000  H
  H22      1.0000 0.49700  0.20900  0.74500  Biso   1.000  H
  C39      1.0000 0.92810  0.70950  0.50670  Biso   1.000  C
  C40      1.0000 0.07190  0.29050  0.49330  Biso   1.000  C
  H23      1.0000 0.97400  0.76600  0.52850  Biso   1.000  H
  H24      1.0000 0.02600  0.23400  0.47150  Biso   1.000  H
  C41      1.0000 0.89490  0.64700  0.56070  Biso   1.000  C
  C42      1.0000 0.10510  0.35300  0.43930  Biso   1.000  C
  C43      1.0000 0.82140  0.56340  0.53100  Biso   1.000  C
  C44      1.0000 0.17860  0.43660  0.46900  Biso   1.000  C
  C45      1.0000 0.78430  0.54410  0.44510  Biso   1.000  C
  C46      1.0000 0.21570  0.45590  0.55490  Biso   1.000  C
  C47      1.0000 0.82920  0.61080  0.39520  Biso   1.000  C
  C48      1.0000 0.17080  0.38920  0.60480  Biso   1.000  C
  C49      1.0000 0.80160  0.65360  0.18130  Biso   1.000  C
  C50      1.0000 0.19840  0.34640  0.81870  Biso   1.000  C
  C51      1.0000 0.72440  0.57470  0.13720  Biso   1.000  C
  C52      1.0000 0.27560  0.42530  0.86280  Biso   1.000  C
  H25      1.0000 0.70120  0.56980  0.07970  Biso   1.000  H
  H26      1.0000 0.29880  0.43020  0.92030  Biso   1.000  H
  C53      1.0000 0.68340  0.50490  0.17940  Biso   1.000  C
  C54      1.0000 0.31660  0.49510  0.82060  Biso   1.000  C
  H27      1.0000 0.63310  0.45140  0.15090  Biso   1.000  H
  H28      1.0000 0.36690  0.54860  0.84910  Biso   1.000  H
  C55      1.0000 0.71710  0.51360  0.26610  Biso   1.000  C
  C56      1.0000 0.28290  0.48640  0.73390  Biso   1.000  C
  C57      1.0000 0.79030  0.59320  0.30480  Biso   1.000  C
  C58      1.0000 0.20970  0.40680  0.69520  Biso   1.000  C
  C59      1.0000 0.70650  0.46230  0.40380  Biso   1.000  C
  C60      1.0000 0.29350  0.53770  0.59620  Biso   1.000  C
  C61      1.0000 0.67390  0.44780  0.31870  Biso   1.000  C
  C62      1.0000 0.32610  0.55220  0.68130  Biso   1.000  C
  C63      1.0000 0.56810  0.32470  0.37010  Biso   1.000  C
  C64      1.0000 0.43190  0.67530  0.62990  Biso   1.000  C
  C65      1.0000 0.49720  0.23720  0.38080  Biso   1.000  C
  C66      1.0000 0.50280  0.76280  0.61920  Biso   1.000  C
  C67      1.0000 0.56460  0.20280  0.45190  Biso   1.000  C
  C68      1.0000 0.43540  0.79720  0.54810  Biso   1.000  C
  C69      1.0000 0.49460  0.11930  0.46830  Biso   1.000  C
  C70      1.0000 0.50540  0.88070  0.53170  Biso   1.000  C
  H29      1.0000 0.54210  0.09780  0.51680  Biso   1.000  H
  H30      1.0000 0.45790  0.90220  0.48320  Biso   1.000  H
  C71      1.0000 0.35910  0.07060  0.41410  Biso   1.000  C
  C72      1.0000 0.64090  0.92940  0.58590  Biso   1.000  C
  C73      1.0000 0.28880  0.09950  0.34090  Biso   1.000  C
  C74      1.0000 0.71120  0.90050  0.65910  Biso   1.000  C
  H31      1.0000 0.19800  0.06290  0.30330  Biso   1.000  H
  H32      1.0000 0.80200  0.93710  0.69670  Biso   1.000  H
  C75      1.0000 0.35120  0.18240  0.32230  Biso   1.000  C
  C76      1.0000 0.64880  0.81760  0.67770  Biso   1.000  C
  N9       1.0000 0.89770  0.69250  0.42560  Biso   1.000  N
  N10      1.0000 0.10230  0.30750  0.57440  Biso   1.000  N
  N11      1.0000 0.83990  0.66590  0.26360  Biso   1.000  N
  N12      1.0000 0.16010  0.33410  0.73640  Biso   1.000  N
  N13      1.0000 0.64100  0.38500  0.43470  Biso   1.000  N
  N14      1.0000 0.35900  0.61500  0.56530  Biso   1.000  N
  N15      1.0000 0.58950  0.36190  0.30040  Biso   1.000  N
  N16      1.0000 0.41050  0.63810  0.69960  Biso   1.000  N
  O7       1.0000 0.37330  0.25050  0.18250  Biso   1.000  O
  O8       1.0000 0.62670  0.74950  0.81750  Biso   1.000  O
  O9       1.0000 0.16630  0.28990  0.26400  Biso   1.000  O
  O10      1.0000 0.83370  0.71010  0.73600  Biso   1.000  O
  O11      1.0000 0.10670  0.14740  0.18990  Biso   1.000  O
  O12      1.0000 0.89330  0.85260  0.81010  Biso   1.000  O
  S3       1.0000 0.23680  0.21937  0.23232  Biso   1.000  S
  S4       1.0000 0.76320  0.78063  0.76768  Biso   1.000  S
  Cu3      1.0000 0.93631  0.77722  0.33729  Biso   1.000  Cu
  Cu4      1.0000 0.06369  0.22278  0.66271  Biso   1.000  Cu
  Cl5      1.0000 0.95670  0.85655  0.22894  Biso   1.000  Cl
  Cl6      1.0000 0.04330  0.14345  0.77106  Biso   1.000  Cl
  Cl7      1.0000 0.99340  0.89064  0.42888  Biso   1.000  Cl
  Cl8      1.0000 0.00660  0.10936  0.57112  Biso   1.000  Cl
  H33      1.0000 0.52600  0.33200  0.25300  Biso   1.000  H
  H34      1.0000 0.47400  0.66800  0.74700  Biso   1.000  H
  H35      1.0000 0.89300  0.65900  0.60700  Biso   1.000  H
  H36      1.0000 0.10700  0.34100  0.39300  Biso   1.000  H
  H37      1.0000 0.80500  0.52700  0.56700  Biso   1.000  H
  H38      1.0000 0.19500  0.47300  0.43300  Biso   1.000  H
  H39      1.0000 0.87600  0.70400  0.15900  Biso   1.000  H
  H40      1.0000 0.12400  0.29600  0.84100  Biso   1.000  H
  H41      1.0000 0.66100  0.23800  0.48700  Biso   1.000  H
  H42      1.0000 0.33900  0.76200  0.51300  Biso   1.000  H
  H43      1.0000 0.31300  0.01900  0.41900  Biso   1.000  H
  H44      1.0000 0.68700  0.98100  0.58100  Biso   1.000  H
  O13      1.0000 0.94820  0.70810  0.97730  Biso   1.000  O
  O14      1.0000 0.05180  0.29190  0.02270  Biso   1.000  O
