data_image0
_cell_length_a       16.8821
_cell_length_b       19.0164
_cell_length_c       7.3418
_cell_angle_alpha    90
_cell_angle_beta     90
_cell_angle_gamma    90

_symmetry_space_group_name_H-M    "P 1"
_symmetry_int_tables_number       1

loop_
  _symmetry_equiv_pos_as_xyz
  'x, y, z'

loop_
  _atom_site_label
  _atom_site_occupancy
  _atom_site_fract_x
  _atom_site_fract_y
  _atom_site_fract_z
  _atom_site_thermal_displace_type
  _atom_site_B_iso_or_equiv
  _atom_site_type_symbol
  C1       1.0000 0.34420  0.22660  0.97020  Biso   1.000  C
  C2       1.0000 0.84420  0.27340  0.02980  Biso   1.000  C
  C3       1.0000 0.65580  0.72660  0.52980  Biso   1.000  C
  C4       1.0000 0.15580  0.77340  0.47020  Biso   1.000  C
  C5       1.0000 0.65580  0.77340  0.02980  Biso   1.000  C
  C6       1.0000 0.15580  0.72660  0.97020  Biso   1.000  C
  C7       1.0000 0.34420  0.27340  0.47020  Biso   1.000  C
  C8       1.0000 0.84420  0.22660  0.52980  Biso   1.000  C
  C9       1.0000 0.31120  0.16120  0.00520  Biso   1.000  C
  C10      1.0000 0.81120  0.33880  0.99480  Biso   1.000  C
  C11      1.0000 0.68880  0.66120  0.49480  Biso   1.000  C
  C12      1.0000 0.18880  0.83880  0.50520  Biso   1.000  C
  C13      1.0000 0.68880  0.83880  0.99480  Biso   1.000  C
  C14      1.0000 0.18880  0.66120  0.00520  Biso   1.000  C
  C15      1.0000 0.31120  0.33880  0.50520  Biso   1.000  C
  C16      1.0000 0.81120  0.16120  0.49480  Biso   1.000  C
  C17      1.0000 0.01660  0.89460  0.24200  Biso   1.000  C
  C18      1.0000 0.51660  0.60540  0.75800  Biso   1.000  C
  C19      1.0000 0.98340  0.39460  0.25800  Biso   1.000  C
  C20      1.0000 0.48340  0.10540  0.74200  Biso   1.000  C
  C21      1.0000 0.98340  0.10540  0.75800  Biso   1.000  C
  C22      1.0000 0.48340  0.39460  0.24200  Biso   1.000  C
  C23      1.0000 0.01660  0.60540  0.74200  Biso   1.000  C
  C24      1.0000 0.51660  0.89460  0.25800  Biso   1.000  C
  C25      1.0000 0.08190  0.93200  0.18570  Biso   1.000  C
  C26      1.0000 0.58190  0.56800  0.81430  Biso   1.000  C
  C27      1.0000 0.91810  0.43200  0.31430  Biso   1.000  C
  C28      1.0000 0.41810  0.06800  0.68570  Biso   1.000  C
  C29      1.0000 0.91810  0.06800  0.81430  Biso   1.000  C
  C30      1.0000 0.41810  0.43200  0.18570  Biso   1.000  C
  C31      1.0000 0.08190  0.56800  0.68570  Biso   1.000  C
  C32      1.0000 0.58190  0.93200  0.31430  Biso   1.000  C
  C33      1.0000 0.94680  0.92870  0.28540  Biso   1.000  C
  C34      1.0000 0.44680  0.57130  0.71460  Biso   1.000  C
  C35      1.0000 0.05320  0.42870  0.21460  Biso   1.000  C
  C36      1.0000 0.55320  0.07130  0.78540  Biso   1.000  C
  C37      1.0000 0.05320  0.07130  0.71460  Biso   1.000  C
  C38      1.0000 0.55320  0.42870  0.28540  Biso   1.000  C
  C39      1.0000 0.94680  0.57130  0.78540  Biso   1.000  C
  C40      1.0000 0.44680  0.92870  0.21460  Biso   1.000  C
  Cu1      1.0000 0.17175  0.06769  0.12180  Biso   1.000  Cu
  Cu2      1.0000 0.67175  0.43231  0.87820  Biso   1.000  Cu
  Cu3      1.0000 0.82825  0.56769  0.37820  Biso   1.000  Cu
  Cu4      1.0000 0.32825  0.93231  0.62180  Biso   1.000  Cu
  Cu5      1.0000 0.82825  0.93231  0.87820  Biso   1.000  Cu
  Cu6      1.0000 0.32825  0.56769  0.12180  Biso   1.000  Cu
  Cu7      1.0000 0.17175  0.43231  0.62180  Biso   1.000  Cu
  Cu8      1.0000 0.67175  0.06769  0.37820  Biso   1.000  Cu
  N1       1.0000 0.23390  0.15810  0.05170  Biso   1.000  N
  N2       1.0000 0.73390  0.34190  0.94830  Biso   1.000  N
  N3       1.0000 0.76610  0.65810  0.44830  Biso   1.000  N
  N4       1.0000 0.26610  0.84190  0.55170  Biso   1.000  N
  N5       1.0000 0.76610  0.84190  0.94830  Biso   1.000  N
  N6       1.0000 0.26610  0.65810  0.05170  Biso   1.000  N
  N7       1.0000 0.23390  0.34190  0.55170  Biso   1.000  N
  N8       1.0000 0.73390  0.15810  0.44830  Biso   1.000  N
  C41      1.0000 0.94480  0.00170  0.28510  Biso   1.000  C
  C42      1.0000 0.44480  0.49830  0.71490  Biso   1.000  C
  C43      1.0000 0.05520  0.50170  0.21490  Biso   1.000  C
  C44      1.0000 0.55520  0.99830  0.78510  Biso   1.000  C
  C45      1.0000 0.05520  0.99830  0.71490  Biso   1.000  C
  C46      1.0000 0.55520  0.50170  0.28510  Biso   1.000  C
  C47      1.0000 0.94480  0.49830  0.78510  Biso   1.000  C
  C48      1.0000 0.44480  0.00170  0.21490  Biso   1.000  C
  C49      1.0000 0.29600  0.28550  0.96100  Biso   1.000  C
  C50      1.0000 0.79600  0.21450  0.03900  Biso   1.000  C
  C51      1.0000 0.70400  0.78550  0.53900  Biso   1.000  C
  C52      1.0000 0.20400  0.71450  0.46100  Biso   1.000  C
  C53      1.0000 0.70400  0.71450  0.03900  Biso   1.000  C
  C54      1.0000 0.20400  0.78550  0.96100  Biso   1.000  C
  C55      1.0000 0.29600  0.21450  0.46100  Biso   1.000  C
  C56      1.0000 0.79600  0.28550  0.53900  Biso   1.000  C
  N9       1.0000 0.07800  0.00400  0.19110  Biso   1.000  N
  N10      1.0000 0.57800  0.49600  0.80890  Biso   1.000  N
  N11      1.0000 0.92200  0.50400  0.30890  Biso   1.000  N
  N12      1.0000 0.42200  0.99600  0.69110  Biso   1.000  N
  N13      1.0000 0.92200  0.99600  0.80890  Biso   1.000  N
  N14      1.0000 0.42200  0.50400  0.19110  Biso   1.000  N
  N15      1.0000 0.07800  0.49600  0.69110  Biso   1.000  N
  N16      1.0000 0.57800  0.00400  0.30890  Biso   1.000  N
  C57      1.0000 0.01030  0.03870  0.22590  Biso   1.000  C
  C58      1.0000 0.51030  0.46130  0.77410  Biso   1.000  C
  C59      1.0000 0.98970  0.53870  0.27410  Biso   1.000  C
  C60      1.0000 0.48970  0.96130  0.72590  Biso   1.000  C
  C61      1.0000 0.98970  0.96130  0.77410  Biso   1.000  C
  C62      1.0000 0.48970  0.53870  0.22590  Biso   1.000  C
  C63      1.0000 0.01030  0.46130  0.72590  Biso   1.000  C
  C64      1.0000 0.51030  0.03870  0.27410  Biso   1.000  C
  N17      1.0000 0.08620  0.13760  0.16360  Biso   1.000  N
  N18      1.0000 0.58620  0.36240  0.83640  Biso   1.000  N
  N19      1.0000 0.91380  0.63760  0.33640  Biso   1.000  N
  N20      1.0000 0.41380  0.86240  0.66360  Biso   1.000  N
  N21      1.0000 0.91380  0.86240  0.83640  Biso   1.000  N
  N22      1.0000 0.41380  0.63760  0.16360  Biso   1.000  N
  N23      1.0000 0.08620  0.36240  0.66360  Biso   1.000  N
  N24      1.0000 0.58620  0.13760  0.33640  Biso   1.000  N
  C65      1.0000 0.21780  0.28050  0.01960  Biso   1.000  C
  C66      1.0000 0.71780  0.21950  0.98040  Biso   1.000  C
  C67      1.0000 0.78220  0.78050  0.48040  Biso   1.000  C
  C68      1.0000 0.28220  0.71950  0.51960  Biso   1.000  C
  C69      1.0000 0.78220  0.71950  0.98040  Biso   1.000  C
  C70      1.0000 0.28220  0.78050  0.01960  Biso   1.000  C
  C71      1.0000 0.21780  0.21950  0.51960  Biso   1.000  C
  C72      1.0000 0.71780  0.28050  0.48040  Biso   1.000  C
  C73      1.0000 0.18640  0.21610  0.06020  Biso   1.000  C
  C74      1.0000 0.68640  0.28390  0.93980  Biso   1.000  C
  C75      1.0000 0.81360  0.71610  0.43980  Biso   1.000  C
  C76      1.0000 0.31360  0.78390  0.56020  Biso   1.000  C
  C77      1.0000 0.81360  0.78390  0.93980  Biso   1.000  C
  C78      1.0000 0.31360  0.71610  0.06020  Biso   1.000  C
  C79      1.0000 0.18640  0.28390  0.56020  Biso   1.000  C
  C80      1.0000 0.68640  0.21610  0.43980  Biso   1.000  C
  C81      1.0000 0.01400  0.11550  0.22080  Biso   1.000  C
  C82      1.0000 0.51400  0.38450  0.77920  Biso   1.000  C
  C83      1.0000 0.98600  0.61550  0.27920  Biso   1.000  C
  C84      1.0000 0.48600  0.88450  0.72080  Biso   1.000  C
  C85      1.0000 0.98600  0.88450  0.77920  Biso   1.000  C
  C86      1.0000 0.48600  0.61550  0.22080  Biso   1.000  C
  C87      1.0000 0.01400  0.38450  0.72080  Biso   1.000  C
  C88      1.0000 0.51400  0.11550  0.27920  Biso   1.000  C
  O1       1.0000 0.95250  0.14960  0.23920  Biso   1.000  O
  O2       1.0000 0.45250  0.35040  0.76080  Biso   1.000  O
  O3       1.0000 0.04750  0.64960  0.26080  Biso   1.000  O
  O4       1.0000 0.54750  0.85040  0.73920  Biso   1.000  O
  O5       1.0000 0.04750  0.85040  0.76080  Biso   1.000  O
  O6       1.0000 0.54750  0.64960  0.23920  Biso   1.000  O
  O7       1.0000 0.95250  0.35040  0.73920  Biso   1.000  O
  O8       1.0000 0.45250  0.14960  0.26080  Biso   1.000  O
  C89      1.0000 0.10450  0.20480  0.11610  Biso   1.000  C
  C90      1.0000 0.60450  0.29520  0.88390  Biso   1.000  C
  C91      1.0000 0.89550  0.70480  0.38390  Biso   1.000  C
  C92      1.0000 0.39550  0.79520  0.61610  Biso   1.000  C
  C93      1.0000 0.89550  0.79520  0.88390  Biso   1.000  C
  C94      1.0000 0.39550  0.70480  0.11610  Biso   1.000  C
  C95      1.0000 0.10450  0.29520  0.61610  Biso   1.000  C
  C96      1.0000 0.60450  0.20480  0.38390  Biso   1.000  C
  O9       1.0000 0.06080  0.25610  0.13560  Biso   1.000  O
  O10      1.0000 0.56080  0.24390  0.86440  Biso   1.000  O
  O11      1.0000 0.93920  0.75610  0.36440  Biso   1.000  O
  O12      1.0000 0.43920  0.74390  0.63560  Biso   1.000  O
  O13      1.0000 0.93920  0.74390  0.86440  Biso   1.000  O
  O14      1.0000 0.43920  0.75610  0.13560  Biso   1.000  O
  O15      1.0000 0.06080  0.24390  0.63560  Biso   1.000  O
  O16      1.0000 0.56080  0.25610  0.36440  Biso   1.000  O
  C97      1.0000 0.23620  0.99830  0.97670  Biso   1.000  C
  C98      1.0000 0.73620  0.50170  0.02330  Biso   1.000  C
  C99      1.0000 0.76380  0.49830  0.52330  Biso   1.000  C
  C100     1.0000 0.26380  0.00170  0.47670  Biso   1.000  C
  C101     1.0000 0.76380  0.00170  0.02330  Biso   1.000  C
  C102     1.0000 0.26380  0.49830  0.97670  Biso   1.000  C
  C103     1.0000 0.23620  0.50170  0.47670  Biso   1.000  C
  C104     1.0000 0.73620  0.99830  0.52330  Biso   1.000  C
  N25      1.0000 0.27160  0.95890  0.89460  Biso   1.000  N
  N26      1.0000 0.77160  0.54110  0.10540  Biso   1.000  N
  N27      1.0000 0.72840  0.45890  0.60540  Biso   1.000  N
  N28      1.0000 0.22840  0.04110  0.39460  Biso   1.000  N
  N29      1.0000 0.72840  0.04110  0.10540  Biso   1.000  N
  N30      1.0000 0.22840  0.45890  0.89460  Biso   1.000  N
  N31      1.0000 0.27160  0.54110  0.39460  Biso   1.000  N
  N32      1.0000 0.77160  0.95890  0.60540  Biso   1.000  N
  H1       1.0000 0.34894  0.12388  0.99492  Biso   1.000  H
  H2       1.0000 0.84894  0.37612  0.00508  Biso   1.000  H
  H3       1.0000 0.65106  0.62388  0.50508  Biso   1.000  H
  H4       1.0000 0.15106  0.87612  0.49492  Biso   1.000  H
  H5       1.0000 0.65106  0.87612  0.00508  Biso   1.000  H
  H6       1.0000 0.15106  0.62388  0.99492  Biso   1.000  H
  H7       1.0000 0.34894  0.37612  0.49492  Biso   1.000  H
  H8       1.0000 0.84894  0.12388  0.50508  Biso   1.000  H
  H9       1.0000 0.40221  0.23433  0.94405  Biso   1.000  H
  H10      1.0000 0.90221  0.26567  0.05595  Biso   1.000  H
  H11      1.0000 0.59779  0.73433  0.55595  Biso   1.000  H
  H12      1.0000 0.09779  0.76567  0.44405  Biso   1.000  H
  H13      1.0000 0.59779  0.76567  0.05595  Biso   1.000  H
  H14      1.0000 0.09779  0.73433  0.94405  Biso   1.000  H
  H15      1.0000 0.40221  0.26567  0.44405  Biso   1.000  H
  H16      1.0000 0.90221  0.23433  0.55595  Biso   1.000  H
  H17      1.0000 0.32022  0.33248  0.93439  Biso   1.000  H
  H18      1.0000 0.82022  0.16752  0.06561  Biso   1.000  H
  H19      1.0000 0.67978  0.83248  0.56561  Biso   1.000  H
  H20      1.0000 0.17978  0.66752  0.43439  Biso   1.000  H
  H21      1.0000 0.67978  0.66752  0.06561  Biso   1.000  H
  H22      1.0000 0.17978  0.83248  0.93439  Biso   1.000  H
  H23      1.0000 0.32022  0.16752  0.43439  Biso   1.000  H
  H24      1.0000 0.82022  0.33248  0.56561  Biso   1.000  H
  H25      1.0000 0.18861  0.32115  0.02639  Biso   1.000  H
  H26      1.0000 0.68861  0.17885  0.97361  Biso   1.000  H
  H27      1.0000 0.81139  0.82115  0.47361  Biso   1.000  H
  H28      1.0000 0.31139  0.67885  0.52639  Biso   1.000  H
  H29      1.0000 0.81139  0.67885  0.97361  Biso   1.000  H
  H30      1.0000 0.31139  0.82115  0.02639  Biso   1.000  H
  H31      1.0000 0.18861  0.17885  0.52639  Biso   1.000  H
  H32      1.0000 0.68861  0.32115  0.47361  Biso   1.000  H
  H33      1.0000 0.01458  0.84354  0.24545  Biso   1.000  H
  H34      1.0000 0.51458  0.65646  0.75455  Biso   1.000  H
  H35      1.0000 0.98542  0.34354  0.25455  Biso   1.000  H
  H36      1.0000 0.48542  0.15646  0.74545  Biso   1.000  H
  H37      1.0000 0.98542  0.15646  0.75455  Biso   1.000  H
  H38      1.0000 0.48542  0.34354  0.24545  Biso   1.000  H
  H39      1.0000 0.01458  0.65646  0.74545  Biso   1.000  H
  H40      1.0000 0.51458  0.84354  0.25455  Biso   1.000  H
  H41      1.0000 0.89753  0.02547  0.30868  Biso   1.000  H
  H42      1.0000 0.39753  0.47453  0.69132  Biso   1.000  H
  H43      1.0000 0.10247  0.52547  0.19132  Biso   1.000  H
  H44      1.0000 0.60247  0.97453  0.80868  Biso   1.000  H
  H45      1.0000 0.10247  0.97453  0.69132  Biso   1.000  H
  H46      1.0000 0.60247  0.52547  0.30868  Biso   1.000  H
  H47      1.0000 0.89753  0.47453  0.80868  Biso   1.000  H
  H48      1.0000 0.39753  0.02547  0.19132  Biso   1.000  H
  H49      1.0000 0.90003  0.90293  0.32202  Biso   1.000  H
  H50      1.0000 0.40003  0.59707  0.67798  Biso   1.000  H
  H51      1.0000 0.09997  0.40293  0.17798  Biso   1.000  H
  H52      1.0000 0.59997  0.09707  0.82202  Biso   1.000  H
  H53      1.0000 0.09997  0.09707  0.67798  Biso   1.000  H
  H54      1.0000 0.59997  0.40293  0.32202  Biso   1.000  H
  H55      1.0000 0.90003  0.59707  0.82202  Biso   1.000  H
  H56      1.0000 0.40003  0.90293  0.17798  Biso   1.000  H
  H57      1.0000 0.12735  0.90388  0.16325  Biso   1.000  H
  H58      1.0000 0.62735  0.59612  0.83675  Biso   1.000  H
  H59      1.0000 0.87265  0.40388  0.33675  Biso   1.000  H
  H60      1.0000 0.37265  0.09612  0.66325  Biso   1.000  H
  H61      1.0000 0.87265  0.09612  0.83675  Biso   1.000  H
  H62      1.0000 0.37265  0.40388  0.16325  Biso   1.000  H
  H63      1.0000 0.12735  0.59612  0.66325  Biso   1.000  H
  H64      1.0000 0.62735  0.90388  0.33675  Biso   1.000  H
