data_image0
_cell_length_a       6.6691
_cell_length_b       7.8721
_cell_length_c       9.7547
_cell_angle_alpha    90
_cell_angle_beta     94.404
_cell_angle_gamma    90

_symmetry_space_group_name_H-M    "P 1"
_symmetry_int_tables_number       1

loop_
  _symmetry_equiv_pos_as_xyz
  'x, y, z'

loop_
  _atom_site_label
  _atom_site_occupancy
  _atom_site_fract_x
  _atom_site_fract_y
  _atom_site_fract_z
  _atom_site_thermal_displace_type
  _atom_site_B_iso_or_equiv
  _atom_site_type_symbol
  Cu1      1.0000 0.75000  0.61798  0.75000  Biso   1.000  Cu
  Cu2      1.0000 0.25000  0.38202  0.25000  Biso   1.000  Cu
  O1       1.0000 0.72090  0.44470  0.60160  Biso   1.000  O
  O2       1.0000 0.77910  0.44470  0.89840  Biso   1.000  O
  O3       1.0000 0.27910  0.55530  0.39840  Biso   1.000  O
  O4       1.0000 0.22090  0.55530  0.10160  Biso   1.000  O
  O5       1.0000 0.04800  0.40570  0.65650  Biso   1.000  O
  O6       1.0000 0.45200  0.40570  0.84350  Biso   1.000  O
  O7       1.0000 0.95200  0.59430  0.34350  Biso   1.000  O
  O8       1.0000 0.54800  0.59430  0.15650  Biso   1.000  O
  C1       1.0000 0.88900  0.36610  0.58860  Biso   1.000  C
  C2       1.0000 0.61100  0.36610  0.91140  Biso   1.000  C
  C3       1.0000 0.11100  0.63390  0.41140  Biso   1.000  C
  C4       1.0000 0.38900  0.63390  0.08860  Biso   1.000  C
  C5       1.0000 0.88280  0.22220  0.48780  Biso   1.000  C
  C6       1.0000 0.61720  0.22220  0.01220  Biso   1.000  C
  C7       1.0000 0.11720  0.77780  0.51220  Biso   1.000  C
  C8       1.0000 0.38280  0.77780  0.98780  Biso   1.000  C
  H1       1.0000 0.02020  0.18620  0.47350  Biso   1.000  H
  H2       1.0000 0.47980  0.18620  0.02650  Biso   1.000  H
  H3       1.0000 0.97980  0.81380  0.52650  Biso   1.000  H
  H4       1.0000 0.52020  0.81380  0.97350  Biso   1.000  H
  H5       1.0000 0.81540  0.25960  0.40020  Biso   1.000  H
  H6       1.0000 0.68460  0.25960  0.09980  Biso   1.000  H
  H7       1.0000 0.18460  0.74040  0.59980  Biso   1.000  H
  H8       1.0000 0.31540  0.74040  0.90020  Biso   1.000  H
  H9       1.0000 0.80850  0.12680  0.52390  Biso   1.000  H
  H10      1.0000 0.69150  0.12680  0.97610  Biso   1.000  H
  H11      1.0000 0.19150  0.87320  0.47610  Biso   1.000  H
  H12      1.0000 0.30850  0.87320  0.02390  Biso   1.000  H
  N1       1.0000 0.61840  0.78050  0.62230  Biso   1.000  N
  N2       1.0000 0.88160  0.78050  0.87770  Biso   1.000  N
  N3       1.0000 0.38160  0.21950  0.37770  Biso   1.000  N
  N4       1.0000 0.11840  0.21950  0.12230  Biso   1.000  N
  N5       1.0000 0.55940  0.91770  0.65540  Biso   1.000  N
  N6       1.0000 0.94060  0.91770  0.84460  Biso   1.000  N
  N7       1.0000 0.44060  0.08230  0.34460  Biso   1.000  N
  N8       1.0000 0.05940  0.08230  0.15540  Biso   1.000  N
  N9       1.0000 0.49840  0.04970  0.68120  Biso   1.000  N
  N10      1.0000 0.00160  0.04970  0.81880  Biso   1.000  N
  N11      1.0000 0.50160  0.95030  0.31880  Biso   1.000  N
  N12      1.0000 0.99840  0.95030  0.18120  Biso   1.000  N
  Na1      1.0000 0.38410  0.34543  0.60652  Biso   1.000  Na
  Na2      1.0000 0.11590  0.34543  0.89348  Biso   1.000  Na
  Na3      1.0000 0.61590  0.65457  0.39348  Biso   1.000  Na
  Na4      1.0000 0.88410  0.65457  0.10652  Biso   1.000  Na
