data_image0
_cell_length_a       9.1896
_cell_length_b       9.6453
_cell_length_c       15.5482
_cell_angle_alpha    90
_cell_angle_beta     90
_cell_angle_gamma    90

_symmetry_space_group_name_H-M    "P 1"
_symmetry_int_tables_number       1

loop_
  _symmetry_equiv_pos_as_xyz
  'x, y, z'

loop_
  _atom_site_label
  _atom_site_occupancy
  _atom_site_fract_x
  _atom_site_fract_y
  _atom_site_fract_z
  _atom_site_thermal_displace_type
  _atom_site_B_iso_or_equiv
  _atom_site_type_symbol
  Cu1      1.0000 0.26556  0.46207  0.44325  Biso   1.000  Cu
  Cu2      1.0000 0.73444  0.53793  0.94325  Biso   1.000  Cu
  Cu3      1.0000 0.23444  0.96207  0.94325  Biso   1.000  Cu
  Cu4      1.0000 0.76556  0.03793  0.44325  Biso   1.000  Cu
  O1       1.0000 0.37700  0.25062  0.43871  Biso   1.000  O
  O2       1.0000 0.62300  0.74938  0.93871  Biso   1.000  O
  O3       1.0000 0.12300  0.75062  0.93871  Biso   1.000  O
  O4       1.0000 0.87700  0.24938  0.43871  Biso   1.000  O
  O5       1.0000 0.55804  0.09920  0.44413  Biso   1.000  O
  O6       1.0000 0.44196  0.90080  0.94413  Biso   1.000  O
  O7       1.0000 0.94196  0.59920  0.94413  Biso   1.000  O
  O8       1.0000 0.05804  0.40080  0.44413  Biso   1.000  O
  O9       1.0000 0.31660  0.74580  0.41927  Biso   1.000  O
  O10      1.0000 0.68340  0.25420  0.91927  Biso   1.000  O
  O11      1.0000 0.18340  0.24580  0.91927  Biso   1.000  O
  O12      1.0000 0.81660  0.75420  0.41927  Biso   1.000  O
  O13      1.0000 0.45604  0.56350  0.44908  Biso   1.000  O
  O14      1.0000 0.54396  0.43650  0.94908  Biso   1.000  O
  O15      1.0000 0.04396  0.06350  0.94908  Biso   1.000  O
  O16      1.0000 0.95604  0.93650  0.44908  Biso   1.000  O
  N1       1.0000 0.26360  0.47220  0.31450  Biso   1.000  N
  N2       1.0000 0.73640  0.52780  0.81450  Biso   1.000  N
  N3       1.0000 0.23640  0.97220  0.81450  Biso   1.000  N
  N4       1.0000 0.76360  0.02780  0.31450  Biso   1.000  N
  N5       1.0000 0.26700  0.49830  0.04750  Biso   1.000  N
  N6       1.0000 0.73300  0.50170  0.54750  Biso   1.000  N
  N7       1.0000 0.23300  0.99830  0.54750  Biso   1.000  N
  N8       1.0000 0.76700  0.00170  0.04750  Biso   1.000  N
  N9       1.0000 0.25240  0.47730  0.57010  Biso   1.000  N
  N10      1.0000 0.74760  0.52270  0.07010  Biso   1.000  N
  N11      1.0000 0.24760  0.97730  0.07010  Biso   1.000  N
  N12      1.0000 0.75240  0.02270  0.57010  Biso   1.000  N
  N13      1.0000 0.23050  0.50570  0.83720  Biso   1.000  N
  N14      1.0000 0.76950  0.49430  0.33720  Biso   1.000  N
  N15      1.0000 0.26950  0.00570  0.33720  Biso   1.000  N
  N16      1.0000 0.73050  0.99430  0.83720  Biso   1.000  N
  C1       1.0000 0.50850  0.22050  0.44330  Biso   1.000  C
  C2       1.0000 0.49150  0.77950  0.94330  Biso   1.000  C
  C3       1.0000 0.99150  0.72050  0.94330  Biso   1.000  C
  C4       1.0000 0.00850  0.27950  0.44330  Biso   1.000  C
  C5       1.0000 0.43610  0.69110  0.43159  Biso   1.000  C
  C6       1.0000 0.56390  0.30890  0.93159  Biso   1.000  C
  C7       1.0000 0.06390  0.19110  0.93159  Biso   1.000  C
  C8       1.0000 0.93610  0.80890  0.43159  Biso   1.000  C
  C9       1.0000 0.14150  0.49490  0.26942  Biso   1.000  C
  C10      1.0000 0.85850  0.50510  0.76942  Biso   1.000  C
  C11      1.0000 0.35850  0.99490  0.76942  Biso   1.000  C
  C12      1.0000 0.64150  0.00510  0.26942  Biso   1.000  C
  C13      1.0000 0.13680  0.50430  0.18133  Biso   1.000  C
  C14      1.0000 0.86320  0.49570  0.68133  Biso   1.000  C
  C15      1.0000 0.36320  0.00430  0.68133  Biso   1.000  C
  C16      1.0000 0.63680  0.99570  0.18133  Biso   1.000  C
  C17      1.0000 0.26530  0.48980  0.13390  Biso   1.000  C
  C18      1.0000 0.73470  0.51020  0.63390  Biso   1.000  C
  C19      1.0000 0.23470  0.98980  0.63390  Biso   1.000  C
  C20      1.0000 0.76530  0.01020  0.13390  Biso   1.000  C
  C21      1.0000 0.39400  0.46980  0.18120  Biso   1.000  C
  C22      1.0000 0.60600  0.53020  0.68120  Biso   1.000  C
  C23      1.0000 0.10600  0.96980  0.68120  Biso   1.000  C
  C24      1.0000 0.89400  0.03020  0.18120  Biso   1.000  C
  C25      1.0000 0.38840  0.46310  0.26867  Biso   1.000  C
  C26      1.0000 0.61160  0.53690  0.76867  Biso   1.000  C
  C27      1.0000 0.11160  0.96310  0.76867  Biso   1.000  C
  C28      1.0000 0.88840  0.03690  0.26867  Biso   1.000  C
  C29      1.0000 0.25320  0.36400  0.62157  Biso   1.000  C
  C30      1.0000 0.74680  0.63600  0.12157  Biso   1.000  C
  C31      1.0000 0.24680  0.86400  0.12157  Biso   1.000  C
  C32      1.0000 0.75320  0.13600  0.62157  Biso   1.000  C
  C33      1.0000 0.24590  0.36900  0.70885  Biso   1.000  C
  C34      1.0000 0.75410  0.63100  0.20885  Biso   1.000  C
  C35      1.0000 0.25410  0.86900  0.20885  Biso   1.000  C
  C36      1.0000 0.74590  0.13100  0.70885  Biso   1.000  C
  C37      1.0000 0.23590  0.49800  0.75070  Biso   1.000  C
  C38      1.0000 0.76410  0.50200  0.25070  Biso   1.000  C
  C39      1.0000 0.26410  0.99800  0.25070  Biso   1.000  C
  C40      1.0000 0.73590  0.00200  0.75070  Biso   1.000  C
  C41      1.0000 0.23240  0.61550  0.69780  Biso   1.000  C
  C42      1.0000 0.76760  0.38450  0.19780  Biso   1.000  C
  C43      1.0000 0.26760  0.11550  0.19780  Biso   1.000  C
  C44      1.0000 0.73240  0.88450  0.69780  Biso   1.000  C
  C45      1.0000 0.24060  0.60080  0.61041  Biso   1.000  C
  C46      1.0000 0.75940  0.39920  0.11041  Biso   1.000  C
  C47      1.0000 0.25940  0.10080  0.11041  Biso   1.000  C
  C48      1.0000 0.74060  0.89920  0.61041  Biso   1.000  C
  H1       1.0000 0.57630  0.29470  0.44630  Biso   1.000  H
  H2       1.0000 0.42370  0.70530  0.94630  Biso   1.000  H
  H3       1.0000 0.92370  0.79470  0.94630  Biso   1.000  H
  H4       1.0000 0.07630  0.20530  0.44630  Biso   1.000  H
  H5       1.0000 0.51980  0.74860  0.42770  Biso   1.000  H
  H6       1.0000 0.48020  0.25140  0.92770  Biso   1.000  H
  H7       1.0000 0.98020  0.24860  0.92770  Biso   1.000  H
  H8       1.0000 0.01980  0.75140  0.42770  Biso   1.000  H
  H9       1.0000 0.05290  0.50500  0.30030  Biso   1.000  H
  H10      1.0000 0.94710  0.49500  0.80030  Biso   1.000  H
  H11      1.0000 0.44710  0.00500  0.80030  Biso   1.000  H
  H12      1.0000 0.55290  0.99500  0.30030  Biso   1.000  H
  H13      1.0000 0.18560  0.51340  0.01910  Biso   1.000  H
  H14      1.0000 0.81440  0.48660  0.51910  Biso   1.000  H
  H15      1.0000 0.31440  0.01340  0.51910  Biso   1.000  H
  H16      1.0000 0.68560  0.98660  0.01910  Biso   1.000  H
  H17      1.0000 0.34940  0.48880  0.01930  Biso   1.000  H
  H18      1.0000 0.65060  0.51120  0.51930  Biso   1.000  H
  H19      1.0000 0.15060  0.98880  0.51930  Biso   1.000  H
  H20      1.0000 0.84940  0.01120  0.01930  Biso   1.000  H
  H21      1.0000 0.04690  0.52060  0.15280  Biso   1.000  H
  H22      1.0000 0.95310  0.47940  0.65280  Biso   1.000  H
  H23      1.0000 0.45310  0.02060  0.65280  Biso   1.000  H
  H24      1.0000 0.54690  0.97940  0.15280  Biso   1.000  H
  H25      1.0000 0.48450  0.46090  0.15230  Biso   1.000  H
  H26      1.0000 0.51550  0.53910  0.65230  Biso   1.000  H
  H27      1.0000 0.01550  0.96090  0.65230  Biso   1.000  H
  H28      1.0000 0.98450  0.03910  0.15230  Biso   1.000  H
  H29      1.0000 0.47710  0.45140  0.29920  Biso   1.000  H
  H30      1.0000 0.52290  0.54860  0.79920  Biso   1.000  H
  H31      1.0000 0.02290  0.95140  0.79920  Biso   1.000  H
  H32      1.0000 0.97710  0.04860  0.29920  Biso   1.000  H
  H33      1.0000 0.25920  0.27550  0.59500  Biso   1.000  H
  H34      1.0000 0.74080  0.72450  0.09500  Biso   1.000  H
  H35      1.0000 0.24080  0.77550  0.09500  Biso   1.000  H
  H36      1.0000 0.75920  0.22450  0.59500  Biso   1.000  H
  H37      1.0000 0.22440  0.58700  0.86260  Biso   1.000  H
  H38      1.0000 0.77560  0.41300  0.36260  Biso   1.000  H
  H39      1.0000 0.27560  0.08700  0.36260  Biso   1.000  H
  H40      1.0000 0.72440  0.91300  0.86260  Biso   1.000  H
  H41      1.0000 0.23300  0.42940  0.86820  Biso   1.000  H
  H42      1.0000 0.76700  0.57060  0.36820  Biso   1.000  H
  H43      1.0000 0.26700  0.92940  0.36820  Biso   1.000  H
  H44      1.0000 0.73300  0.07060  0.86820  Biso   1.000  H
  H45      1.0000 0.24750  0.28570  0.74140  Biso   1.000  H
  H46      1.0000 0.75250  0.71430  0.24140  Biso   1.000  H
  H47      1.0000 0.25250  0.78570  0.24140  Biso   1.000  H
  H48      1.0000 0.74750  0.21430  0.74140  Biso   1.000  H
  H49      1.0000 0.22430  0.70530  0.72250  Biso   1.000  H
  H50      1.0000 0.77570  0.29470  0.22250  Biso   1.000  H
  H51      1.0000 0.27570  0.20530  0.22250  Biso   1.000  H
  H52      1.0000 0.72430  0.79470  0.72250  Biso   1.000  H
  H53      1.0000 0.23780  0.68230  0.57610  Biso   1.000  H
  H54      1.0000 0.76220  0.31770  0.07610  Biso   1.000  H
  H55      1.0000 0.26220  0.18230  0.07610  Biso   1.000  H
  H56      1.0000 0.73780  0.81770  0.57610  Biso   1.000  H
