data_image0
_cell_length_a       14.554
_cell_length_b       6.9698
_cell_length_c       16.962
_cell_angle_alpha    90
_cell_angle_beta     95.409
_cell_angle_gamma    90

_symmetry_space_group_name_H-M    "P 1"
_symmetry_int_tables_number       1

loop_
  _symmetry_equiv_pos_as_xyz
  'x, y, z'

loop_
  _atom_site_label
  _atom_site_occupancy
  _atom_site_fract_x
  _atom_site_fract_y
  _atom_site_fract_z
  _atom_site_thermal_displace_type
  _atom_site_B_iso_or_equiv
  _atom_site_type_symbol
  C1       1.0000 0.04180  0.49230  0.27640  Biso   1.000  C
  C2       1.0000 0.95820  0.49230  0.72360  Biso   1.000  C
  C3       1.0000 0.54180  0.99230  0.27640  Biso   1.000  C
  C4       1.0000 0.45820  0.99230  0.72360  Biso   1.000  C
  H1       1.0000 0.05010  0.48350  0.33130  Biso   1.000  H
  H2       1.0000 0.94990  0.48350  0.66870  Biso   1.000  H
  H3       1.0000 0.55010  0.98350  0.33130  Biso   1.000  H
  H4       1.0000 0.44990  0.98350  0.66870  Biso   1.000  H
  C5       1.0000 0.11790  0.50510  0.23380  Biso   1.000  C
  C6       1.0000 0.88210  0.50510  0.76620  Biso   1.000  C
  C7       1.0000 0.61790  0.00510  0.23380  Biso   1.000  C
  C8       1.0000 0.38210  0.00510  0.76620  Biso   1.000  C
  H5       1.0000 0.17640  0.50670  0.26100  Biso   1.000  H
  H6       1.0000 0.82360  0.50670  0.73900  Biso   1.000  H
  H7       1.0000 0.67640  0.00670  0.26100  Biso   1.000  H
  H8       1.0000 0.32360  0.00670  0.73900  Biso   1.000  H
  C9       1.0000 0.02520  0.51480  0.11940  Biso   1.000  C
  C10      1.0000 0.97480  0.51480  0.88060  Biso   1.000  C
  C11      1.0000 0.52520  0.01480  0.11940  Biso   1.000  C
  C12      1.0000 0.47480  0.01480  0.88060  Biso   1.000  C
  H9       1.0000 0.01760  0.52180  0.06440  Biso   1.000  H
  H10      1.0000 0.98240  0.52180  0.93560  Biso   1.000  H
  H11      1.0000 0.51760  0.02180  0.06440  Biso   1.000  H
  H12      1.0000 0.48240  0.02180  0.93560  Biso   1.000  H
  C13      1.0000 0.94720  0.50430  0.16020  Biso   1.000  C
  C14      1.0000 0.05280  0.50430  0.83980  Biso   1.000  C
  C15      1.0000 0.44720  0.00430  0.16020  Biso   1.000  C
  C16      1.0000 0.55280  0.00430  0.83980  Biso   1.000  C
  C17      1.0000 0.85110  0.51010  0.12410  Biso   1.000  C
  C18      1.0000 0.14890  0.51010  0.87590  Biso   1.000  C
  C19      1.0000 0.35110  0.01010  0.12410  Biso   1.000  C
  C20      1.0000 0.64890  0.01010  0.87590  Biso   1.000  C
  C21      1.0000 0.74690  0.51940  0.01810  Biso   1.000  C
  C22      1.0000 0.25310  0.51940  0.98190  Biso   1.000  C
  C23      1.0000 0.24690  0.01940  0.01810  Biso   1.000  C
  C24      1.0000 0.75310  0.01940  0.98190  Biso   1.000  C
  C25      1.0000 0.69760  0.51370  0.14100  Biso   1.000  C
  C26      1.0000 0.30240  0.51370  0.85900  Biso   1.000  C
  C27      1.0000 0.19760  0.01370  0.14100  Biso   1.000  C
  C28      1.0000 0.80240  0.01370  0.85900  Biso   1.000  C
  C29      1.0000 0.72420  0.40520  0.40560  Biso   1.000  C
  C30      1.0000 0.27580  0.40520  0.59440  Biso   1.000  C
  C31      1.0000 0.22420  0.90520  0.40560  Biso   1.000  C
  C32      1.0000 0.77580  0.90520  0.59440  Biso   1.000  C
  C33      1.0000 0.81770  0.32770  0.44130  Biso   1.000  C
  C34      1.0000 0.18230  0.32770  0.55870  Biso   1.000  C
  C35      1.0000 0.31770  0.82770  0.44130  Biso   1.000  C
  C36      1.0000 0.68230  0.82770  0.55870  Biso   1.000  C
  H13      1.0000 0.81880  0.18940  0.43110  Biso   1.000  H
  H14      1.0000 0.18120  0.18940  0.56890  Biso   1.000  H
  H15      1.0000 0.31880  0.68940  0.43110  Biso   1.000  H
  H16      1.0000 0.68120  0.68940  0.56890  Biso   1.000  H
  C37      1.0000 0.83170  0.35690  0.53090  Biso   1.000  C
  C38      1.0000 0.16830  0.35690  0.46910  Biso   1.000  C
  C39      1.0000 0.33170  0.85690  0.53090  Biso   1.000  C
  C40      1.0000 0.66830  0.85690  0.46910  Biso   1.000  C
  H17      1.0000 0.83320  0.49320  0.54260  Biso   1.000  H
  H18      1.0000 0.16680  0.49320  0.45740  Biso   1.000  H
  H19      1.0000 0.33320  0.99320  0.54260  Biso   1.000  H
  H20      1.0000 0.66680  0.99320  0.45740  Biso   1.000  H
  H21      1.0000 0.78010  0.30130  0.55510  Biso   1.000  H
  H22      1.0000 0.21990  0.30130  0.44490  Biso   1.000  H
  H23      1.0000 0.28010  0.80130  0.55510  Biso   1.000  H
  H24      1.0000 0.71990  0.80130  0.44490  Biso   1.000  H
  N1       1.0000 0.95720  0.49240  0.23990  Biso   1.000  N
  N2       1.0000 0.04280  0.49240  0.76010  Biso   1.000  N
  N3       1.0000 0.45720  0.99240  0.23990  Biso   1.000  N
  N4       1.0000 0.54280  0.99240  0.76010  Biso   1.000  N
  N5       1.0000 0.11010  0.51510  0.15530  Biso   1.000  N
  N6       1.0000 0.88990  0.51510  0.84470  Biso   1.000  N
  N7       1.0000 0.61010  0.01510  0.15530  Biso   1.000  N
  N8       1.0000 0.38990  0.01510  0.84470  Biso   1.000  N
  N9       1.0000 0.83840  0.51730  0.04660  Biso   1.000  N
  N10      1.0000 0.16160  0.51730  0.95340  Biso   1.000  N
  N11      1.0000 0.33840  0.01730  0.04660  Biso   1.000  N
  N12      1.0000 0.66160  0.01730  0.95340  Biso   1.000  N
  N13      1.0000 0.67590  0.51870  0.06320  Biso   1.000  N
  N14      1.0000 0.32410  0.51870  0.93680  Biso   1.000  N
  N15      1.0000 0.17590  0.01870  0.06320  Biso   1.000  N
  N16      1.0000 0.82410  0.01870  0.93680  Biso   1.000  N
  N17      1.0000 0.78670  0.50960  0.17558  Biso   1.000  N
  N18      1.0000 0.21330  0.50960  0.82442  Biso   1.000  N
  N19      1.0000 0.28670  0.00960  0.17558  Biso   1.000  N
  N20      1.0000 0.71330  0.00960  0.82442  Biso   1.000  N
  N21      1.0000 0.72960  0.52400  0.94040  Biso   1.000  N
  N22      1.0000 0.27040  0.52400  0.05960  Biso   1.000  N
  N23      1.0000 0.22960  0.02400  0.94040  Biso   1.000  N
  N24      1.0000 0.77040  0.02400  0.05960  Biso   1.000  N
  H25      1.0000 0.67350  0.52640  0.91930  Biso   1.000  H
  H26      1.0000 0.32650  0.52640  0.08070  Biso   1.000  H
  H27      1.0000 0.17350  0.02640  0.91930  Biso   1.000  H
  H28      1.0000 0.82650  0.02640  0.08070  Biso   1.000  H
  H29      1.0000 0.77440  0.52450  0.91080  Biso   1.000  H
  H30      1.0000 0.22560  0.52450  0.08920  Biso   1.000  H
  H31      1.0000 0.27440  0.02450  0.91080  Biso   1.000  H
  H32      1.0000 0.72560  0.02450  0.08920  Biso   1.000  H
  N25      1.0000 0.62940  0.51420  0.18780  Biso   1.000  N
  N26      1.0000 0.37060  0.51420  0.81220  Biso   1.000  N
  N27      1.0000 0.12940  0.01420  0.18780  Biso   1.000  N
  N28      1.0000 0.87060  0.01420  0.81220  Biso   1.000  N
  H33      1.0000 0.57300  0.51770  0.16750  Biso   1.000  H
  H34      1.0000 0.42700  0.51770  0.83250  Biso   1.000  H
  H35      1.0000 0.07300  0.01770  0.16750  Biso   1.000  H
  H36      1.0000 0.92700  0.01770  0.83250  Biso   1.000  H
  H37      1.0000 0.64160  0.51110  0.23840  Biso   1.000  H
  H38      1.0000 0.35840  0.51110  0.76160  Biso   1.000  H
  H39      1.0000 0.14160  0.01110  0.23840  Biso   1.000  H
  H40      1.0000 0.85840  0.01110  0.76160  Biso   1.000  H
  N29      1.0000 0.89150  0.41710  0.39950  Biso   1.000  N
  N30      1.0000 0.10850  0.41710  0.60050  Biso   1.000  N
  N31      1.0000 0.39150  0.91710  0.39950  Biso   1.000  N
  N32      1.0000 0.60850  0.91710  0.60050  Biso   1.000  N
  H41      1.0000 0.93890  0.33680  0.39840  Biso   1.000  H
  H42      1.0000 0.06110  0.33680  0.60160  Biso   1.000  H
  H43      1.0000 0.43890  0.83680  0.39840  Biso   1.000  H
  H44      1.0000 0.56110  0.83680  0.60160  Biso   1.000  H
  H45      1.0000 0.91150  0.52380  0.42430  Biso   1.000  H
  H46      1.0000 0.08850  0.52380  0.57570  Biso   1.000  H
  H47      1.0000 0.41150  0.02380  0.42430  Biso   1.000  H
  H48      1.0000 0.58850  0.02380  0.57570  Biso   1.000  H
  O1       1.0000 0.72313  0.47870  0.33682  Biso   1.000  O
  O2       1.0000 0.27687  0.47870  0.66318  Biso   1.000  O
  O3       1.0000 0.22313  0.97870  0.33682  Biso   1.000  O
  O4       1.0000 0.77687  0.97870  0.66318  Biso   1.000  O
  O5       1.0000 0.65650  0.39490  0.44416  Biso   1.000  O
  O6       1.0000 0.34350  0.39490  0.55584  Biso   1.000  O
  O7       1.0000 0.15650  0.89490  0.44416  Biso   1.000  O
  O8       1.0000 0.84350  0.89490  0.55584  Biso   1.000  O
  O9       1.0000 0.91440  0.27150  0.56355  Biso   1.000  O
  O10      1.0000 0.08560  0.27150  0.43645  Biso   1.000  O
  O11      1.0000 0.41440  0.77150  0.56355  Biso   1.000  O
  O12      1.0000 0.58560  0.77150  0.43645  Biso   1.000  O
  H49      1.0000 0.90740  0.15500  0.56620  Biso   1.000  H
  H50      1.0000 0.09260  0.15500  0.43380  Biso   1.000  H
  H51      1.0000 0.40740  0.65500  0.56620  Biso   1.000  H
  H52      1.0000 0.59260  0.65500  0.43380  Biso   1.000  H
  O13      1.0000 0.97400  0.05310  0.31850  Biso   1.000  O
  O14      1.0000 0.02600  0.05310  0.68150  Biso   1.000  O
  O15      1.0000 0.47400  0.55310  0.31850  Biso   1.000  O
  O16      1.0000 0.52600  0.55310  0.68150  Biso   1.000  O
  O17      1.0000 0.82840  0.13350  0.25620  Biso   1.000  O
  O18      1.0000 0.17160  0.13350  0.74380  Biso   1.000  O
  O19      1.0000 0.32840  0.63350  0.25620  Biso   1.000  O
  O20      1.0000 0.67160  0.63350  0.74380  Biso   1.000  O
  O21      1.0000 0.92270  0.91510  0.19650  Biso   1.000  O
  O22      1.0000 0.07730  0.91510  0.80350  Biso   1.000  O
  O23      1.0000 0.42270  0.41510  0.19650  Biso   1.000  O
  O24      1.0000 0.57730  0.41510  0.80350  Biso   1.000  O
  O25      1.0000 0.85230  0.82880  0.31160  Biso   1.000  O
  O26      1.0000 0.14770  0.82880  0.68840  Biso   1.000  O
  O27      1.0000 0.35230  0.32880  0.31160  Biso   1.000  O
  O28      1.0000 0.64770  0.32880  0.68840  Biso   1.000  O
  Cl1      1.0000 0.89536  0.98140  0.27143  Biso   1.000  Cl
  Cl2      1.0000 0.10464  0.98140  0.72857  Biso   1.000  Cl
  Cl3      1.0000 0.39536  0.48140  0.27143  Biso   1.000  Cl
  Cl4      1.0000 0.60464  0.48140  0.72857  Biso   1.000  Cl
  Cu1      1.0000 0.83890  0.47786  0.28950  Biso   1.000  Cu
  Cu2      1.0000 0.16110  0.47786  0.71050  Biso   1.000  Cu
  Cu3      1.0000 0.33890  0.97786  0.28950  Biso   1.000  Cu
  Cu4      1.0000 0.66110  0.97786  0.71050  Biso   1.000  Cu
  O29      1.0000 0.00000  0.71600  0.50000  Biso   1.000  O
  O30      1.0000 0.50000  0.21600  0.50000  Biso   1.000  O
  H53      1.0000 0.98120  0.83100  0.49390  Biso   1.000  H
  H54      1.0000 0.01880  0.83100  0.50610  Biso   1.000  H
  H55      1.0000 0.48120  0.33100  0.49390  Biso   1.000  H
  H56      1.0000 0.51880  0.33100  0.50610  Biso   1.000  H
  H57      1.0000 0.04790  0.69960  0.47580  Biso   1.000  H
  H58      1.0000 0.95210  0.69960  0.52420  Biso   1.000  H
  H59      1.0000 0.54790  0.19960  0.47580  Biso   1.000  H
  H60      1.0000 0.45210  0.19960  0.52420  Biso   1.000  H
  O31      1.0000 0.48690  0.61800  0.03710  Biso   1.000  O
  O32      1.0000 0.51310  0.61800  0.96290  Biso   1.000  O
  O33      1.0000 0.98690  0.11800  0.03710  Biso   1.000  O
  O34      1.0000 0.01310  0.11800  0.96290  Biso   1.000  O
  H61      1.0000 0.51490  0.61660  0.99540  Biso   1.000  H
  H62      1.0000 0.48510  0.61660  0.00460  Biso   1.000  H
  H63      1.0000 0.01490  0.11660  0.99540  Biso   1.000  H
  H64      1.0000 0.98510  0.11660  0.00460  Biso   1.000  H
  H65      1.0000 0.46530  0.72900  0.04420  Biso   1.000  H
  H66      1.0000 0.53470  0.72900  0.95580  Biso   1.000  H
  H67      1.0000 0.96530  0.22900  0.04420  Biso   1.000  H
  H68      1.0000 0.03470  0.22900  0.95580  Biso   1.000  H
