data_image0
_cell_length_a       8.712
_cell_length_b       6.055
_cell_length_c       8.187
_cell_angle_alpha    90
_cell_angle_beta     109.83
_cell_angle_gamma    90

_symmetry_space_group_name_H-M    "P 1"
_symmetry_int_tables_number       1

loop_
  _symmetry_equiv_pos_as_xyz
  'x, y, z'

loop_
  _atom_site_label
  _atom_site_occupancy
  _atom_site_fract_x
  _atom_site_fract_y
  _atom_site_fract_z
  _atom_site_thermal_displace_type
  _atom_site_B_iso_or_equiv
  _atom_site_type_symbol
  Cu1      1.0000 0.81269  0.25000  0.51924  Biso   1.000  Cu
  Cu2      1.0000 0.18731  0.75000  0.48076  Biso   1.000  Cu
  Cl1      1.0000 0.69590  0.94600  0.66270  Biso   1.000  Cl
  Cl2      1.0000 0.30410  0.44600  0.33730  Biso   1.000  Cl
  O1       1.0000 0.03310  0.55580  0.53030  Biso   1.000  O
  O2       1.0000 0.96690  0.05580  0.46970  Biso   1.000  O
  O3       1.0000 0.98420  0.36110  0.73440  Biso   1.000  O
  O4       1.0000 0.01580  0.86110  0.26560  Biso   1.000  O
  O5       1.0000 0.41700  0.89560  0.11450  Biso   1.000  O
  O6       1.0000 0.58300  0.39560  0.88550  Biso   1.000  O
  O7       1.0000 0.65830  0.46090  0.56470  Biso   1.000  O
  O8       1.0000 0.34170  0.96090  0.43530  Biso   1.000  O
  N1       1.0000 0.30450  0.74490  0.74060  Biso   1.000  N
  N2       1.0000 0.69550  0.24490  0.25940  Biso   1.000  N
  C1       1.0000 0.06610  0.50130  0.68820  Biso   1.000  C
  C2       1.0000 0.93390  0.00130  0.31180  Biso   1.000  C
  C3       1.0000 0.20520  0.61680  0.82410  Biso   1.000  C
  C4       1.0000 0.79480  0.11680  0.17590  Biso   1.000  C
  C5       1.0000 0.14300  0.78600  0.92580  Biso   1.000  C
  C6       1.0000 0.85700  0.28600  0.07420  Biso   1.000  C
  C7       1.0000 0.27500  0.96230  0.97370  Biso   1.000  C
  C8       1.0000 0.72500  0.46230  0.02630  Biso   1.000  C
  C9       1.0000 0.32270  0.97530  0.81190  Biso   1.000  C
  C10      1.0000 0.67730  0.47530  0.18810  Biso   1.000  C
  H1       1.0000 0.26800  0.49800  0.90400  Biso   1.000  H
  H2       1.0000 0.73200  0.99800  0.09600  Biso   1.000  H
  H3       1.0000 0.15300  0.71600  0.00000  Biso   1.000  H
  H4       1.0000 0.84700  0.21600  0.00000  Biso   1.000  H
  H5       1.0000 0.05500  0.82000  0.85200  Biso   1.000  H
  H6       1.0000 0.94500  0.32000  0.14800  Biso   1.000  H
  H7       1.0000 0.22900  0.10300  0.99100  Biso   1.000  H
  H8       1.0000 0.77100  0.60300  0.00900  Biso   1.000  H
  H9       1.0000 0.24700  0.05600  0.72500  Biso   1.000  H
  H10      1.0000 0.75300  0.55600  0.27500  Biso   1.000  H
  H11      1.0000 0.47700  0.94500  0.83700  Biso   1.000  H
  H12      1.0000 0.52300  0.44500  0.16300  Biso   1.000  H
  H13      1.0000 0.39000  0.67000  0.77500  Biso   1.000  H
  H14      1.0000 0.61000  0.17000  0.22500  Biso   1.000  H
