data_image0
_cell_length_a       5.593
_cell_length_b       10.364
_cell_length_c       10.948
_cell_angle_alpha    74.003
_cell_angle_beta     81.9
_cell_angle_gamma    78.447

_symmetry_space_group_name_H-M    "P 1"
_symmetry_int_tables_number       1

loop_
  _symmetry_equiv_pos_as_xyz
  'x, y, z'

loop_
  _atom_site_label
  _atom_site_occupancy
  _atom_site_fract_x
  _atom_site_fract_y
  _atom_site_fract_z
  _atom_site_thermal_displace_type
  _atom_site_B_iso_or_equiv
  _atom_site_type_symbol
  Cu1      1.0000 0.50000  0.00000  0.50000  Biso   1.000  Cu
  O1       1.0000 0.59460  0.00660  0.66110  Biso   1.000  O
  O2       1.0000 0.40540  0.99340  0.33890  Biso   1.000  O
  C1       1.0000 0.45790  0.94720  0.75690  Biso   1.000  C
  C2       1.0000 0.54210  0.05280  0.24310  Biso   1.000  C
  O3       1.0000 0.31060  0.87670  0.74760  Biso   1.000  O
  O4       1.0000 0.68940  0.12330  0.25240  Biso   1.000  O
  C3       1.0000 0.48250  0.97330  0.88270  Biso   1.000  C
  C4       1.0000 0.51750  0.02670  0.11730  Biso   1.000  C
  C5       1.0000 0.32550  0.92660  0.98860  Biso   1.000  C
  C6       1.0000 0.67450  0.07340  0.01140  Biso   1.000  C
  C7       1.0000 0.65560  0.04660  0.89460  Biso   1.000  C
  C8       1.0000 0.34440  0.95340  0.10540  Biso   1.000  C
  H1       1.0000 0.20770  0.87750  0.98220  Biso   1.000  H
  H2       1.0000 0.79230  0.12250  0.01780  Biso   1.000  H
  H3       1.0000 0.76110  0.07870  0.82390  Biso   1.000  H
  H4       1.0000 0.23890  0.92130  0.17610  Biso   1.000  H
  N1       1.0000 0.79400  0.84480  0.48840  Biso   1.000  N
  N2       1.0000 0.20600  0.15520  0.51160  Biso   1.000  N
  C9       1.0000 0.98800  0.82330  0.55520  Biso   1.000  C
  C10      1.0000 0.01200  0.17670  0.44480  Biso   1.000  C
  C11      1.0000 0.80390  0.76660  0.40670  Biso   1.000  C
  C12      1.0000 0.19610  0.23340  0.59330  Biso   1.000  C
  H5       1.0000 0.98290  0.87450  0.61360  Biso   1.000  H
  H6       1.0000 0.01710  0.12550  0.38640  Biso   1.000  H
  C13      1.0000 0.19580  0.72810  0.54100  Biso   1.000  C
  C14      1.0000 0.80420  0.27190  0.45900  Biso   1.000  C
  C15      1.0000 0.00250  0.66930  0.38620  Biso   1.000  C
  C16      1.0000 0.99750  0.33070  0.61380  Biso   1.000  C
  H7       1.0000 0.66870  0.77920  0.36150  Biso   1.000  H
  H8       1.0000 0.33130  0.22080  0.63850  Biso   1.000  H
  C17      1.0000 0.20470  0.65140  0.45410  Biso   1.000  C
  C18      1.0000 0.79530  0.34860  0.54590  Biso   1.000  C
  H9       1.0000 0.32710  0.71580  0.58890  Biso   1.000  H
  H10      1.0000 0.67290  0.28420  0.41110  Biso   1.000  H
  C19      1.0000 0.98300  0.59400  0.29000  Biso   1.000  C
  C20      1.0000 0.01700  0.40600  0.71000  Biso   1.000  C
  H11      1.0000 0.34400  0.58880  0.44130  Biso   1.000  H
  H12      1.0000 0.65600  0.41120  0.55870  Biso   1.000  H
  N3       1.0000 0.15700  0.50400  0.25420  Biso   1.000  N
  N4       1.0000 0.84300  0.49600  0.74580  Biso   1.000  N
  N5       1.0000 0.76500  0.60200  0.23700  Biso   1.000  N
  N6       1.0000 0.23500  0.39800  0.76300  Biso   1.000  N
  N7       1.0000 0.04400  0.45810  0.17790  Biso   1.000  N
  N8       1.0000 0.95600  0.54190  0.82210  Biso   1.000  N
  N9       1.0000 0.81600  0.51610  0.16440  Biso   1.000  N
  N10      1.0000 0.18400  0.48390  0.83560  Biso   1.000  N
  C21      1.0000 0.18500  0.36260  0.10310  Biso   1.000  C
  C22      1.0000 0.81500  0.63740  0.89690  Biso   1.000  C
  C23      1.0000 0.36000  0.43340  0.99880  Biso   1.000  C
  C24      1.0000 0.64000  0.56660  0.00120  Biso   1.000  C
  H13      1.0000 0.07220  0.32860  0.06500  Biso   1.000  H
  H14      1.0000 0.92780  0.67140  0.93500  Biso   1.000  H
  H15      1.0000 0.27700  0.28550  0.15980  Biso   1.000  H
  H16      1.0000 0.72300  0.71450  0.84020  Biso   1.000  H
  C25      1.0000 0.23600  0.55110  0.90030  Biso   1.000  C
  C26      1.0000 0.76400  0.44890  0.09970  Biso   1.000  C
  H17      1.0000 0.47230  0.46670  0.03810  Biso   1.000  H
  H18      1.0000 0.52770  0.53330  0.96190  Biso   1.000  H
  H19      1.0000 0.45660  0.36710  0.95600  Biso   1.000  H
  H20      1.0000 0.54340  0.63290  0.04400  Biso   1.000  H
  N11      1.0000 0.08200  0.51190  0.82270  Biso   1.000  N
  N12      1.0000 0.91800  0.48810  0.17730  Biso   1.000  N
  H21      1.0000 0.36020  0.59700  0.84400  Biso   1.000  H
  H22      1.0000 0.63980  0.40300  0.15600  Biso   1.000  H
  H23      1.0000 0.13430  0.61570  0.94360  Biso   1.000  H
  H24      1.0000 0.86570  0.38430  0.05640  Biso   1.000  H
  N13      1.0000 0.85200  0.56880  0.80250  Biso   1.000  N
  N14      1.0000 0.14800  0.43120  0.19750  Biso   1.000  N
  N15      1.0000 0.17200  0.41580  0.75800  Biso   1.000  N
  N16      1.0000 0.82800  0.58420  0.24200  Biso   1.000  N
  N17      1.0000 0.79000  0.51200  0.72100  Biso   1.000  N
  N18      1.0000 0.21000  0.48800  0.27900  Biso   1.000  N
  C27      1.0000 0.98800  0.42100  0.69400  Biso   1.000  C
  C28      1.0000 0.01200  0.57900  0.30600  Biso   1.000  C
