data_image0
_cell_length_a       8.068
_cell_length_b       8.068
_cell_length_c       21.13
_cell_angle_alpha    90
_cell_angle_beta     90
_cell_angle_gamma    90

_symmetry_space_group_name_H-M    "P 1"
_symmetry_int_tables_number       1

loop_
  _symmetry_equiv_pos_as_xyz
  'x, y, z'

loop_
  _atom_site_label
  _atom_site_occupancy
  _atom_site_fract_x
  _atom_site_fract_y
  _atom_site_fract_z
  _atom_site_thermal_displace_type
  _atom_site_B_iso_or_equiv
  _atom_site_type_symbol
  C1       1.0000 0.12620  0.06260  0.23130  Biso   1.000  C
  C2       1.0000 0.87380  0.93740  0.73130  Biso   1.000  C
  C3       1.0000 0.93740  0.12620  0.98130  Biso   1.000  C
  C4       1.0000 0.06260  0.87380  0.48130  Biso   1.000  C
  C5       1.0000 0.85920  0.92820  0.22910  Biso   1.000  C
  C6       1.0000 0.14080  0.07180  0.72910  Biso   1.000  C
  C7       1.0000 0.07180  0.85920  0.97910  Biso   1.000  C
  C8       1.0000 0.92820  0.14080  0.47910  Biso   1.000  C
  C9       1.0000 0.40370  0.18470  0.20750  Biso   1.000  C
  C10      1.0000 0.59630  0.81530  0.70750  Biso   1.000  C
  C11      1.0000 0.81530  0.40370  0.95750  Biso   1.000  C
  C12      1.0000 0.18470  0.59630  0.45750  Biso   1.000  C
  H1       1.0000 0.42010  0.20490  0.25040  Biso   1.000  H
  H2       1.0000 0.57990  0.79510  0.75040  Biso   1.000  H
  H3       1.0000 0.79510  0.42010  0.00040  Biso   1.000  H
  H4       1.0000 0.20490  0.57990  0.50040  Biso   1.000  H
  C13      1.0000 0.59100  0.79000  0.20250  Biso   1.000  C
  C14      1.0000 0.40900  0.21000  0.70250  Biso   1.000  C
  C15      1.0000 0.21000  0.59100  0.95250  Biso   1.000  C
  C16      1.0000 0.79000  0.40900  0.45250  Biso   1.000  C
  H5       1.0000 0.56390  0.78450  0.24520  Biso   1.000  H
  H6       1.0000 0.43610  0.21550  0.74520  Biso   1.000  H
  H7       1.0000 0.21550  0.56390  0.99520  Biso   1.000  H
  H8       1.0000 0.78450  0.43610  0.49520  Biso   1.000  H
  N1       1.0000 0.98860  0.99610  0.20070  Biso   1.000  N
  N2       1.0000 0.01140  0.00390  0.70070  Biso   1.000  N
  N3       1.0000 0.00390  0.98860  0.95070  Biso   1.000  N
  N4       1.0000 0.99610  0.01140  0.45070  Biso   1.000  N
  C17      1.0000 0.26030  0.10930  0.18630  Biso   1.000  C
  C18      1.0000 0.73970  0.89070  0.68630  Biso   1.000  C
  C19      1.0000 0.89070  0.26030  0.93630  Biso   1.000  C
  C20      1.0000 0.10930  0.73970  0.43630  Biso   1.000  C
  C21      1.0000 0.73830  0.86100  0.18300  Biso   1.000  C
  C22      1.0000 0.26170  0.13900  0.68300  Biso   1.000  C
  C23      1.0000 0.13900  0.73830  0.93300  Biso   1.000  C
  C24      1.0000 0.86100  0.26170  0.43300  Biso   1.000  C
  C25      1.0000 0.52280  0.22950  0.16330  Biso   1.000  C
  C26      1.0000 0.47720  0.77050  0.66330  Biso   1.000  C
  C27      1.0000 0.77050  0.52280  0.91330  Biso   1.000  C
  C28      1.0000 0.22950  0.47720  0.41330  Biso   1.000  C
  H9       1.0000 0.62050  0.28070  0.17610  Biso   1.000  H
  H10      1.0000 0.37950  0.71930  0.67610  Biso   1.000  H
  H11      1.0000 0.71930  0.62050  0.92610  Biso   1.000  H
  H12      1.0000 0.28070  0.37950  0.42610  Biso   1.000  H
  C29      1.0000 0.48590  0.72800  0.15740  Biso   1.000  C
  C30      1.0000 0.51410  0.27200  0.65740  Biso   1.000  C
  C31      1.0000 0.27200  0.48590  0.90740  Biso   1.000  C
  C32      1.0000 0.72800  0.51410  0.40740  Biso   1.000  C
  H13      1.0000 0.38580  0.67980  0.16910  Biso   1.000  H
  H14      1.0000 0.61420  0.32020  0.66910  Biso   1.000  H
  H15      1.0000 0.32020  0.38580  0.91910  Biso   1.000  H
  H16      1.0000 0.67980  0.61420  0.41910  Biso   1.000  H
  N5       1.0000 0.23190  0.07650  0.12520  Biso   1.000  N
  N6       1.0000 0.76810  0.92350  0.62520  Biso   1.000  N
  N7       1.0000 0.92350  0.23190  0.87520  Biso   1.000  N
  N8       1.0000 0.07650  0.76810  0.37520  Biso   1.000  N
  N9       1.0000 0.78380  0.87150  0.12120  Biso   1.000  N
  N10      1.0000 0.21620  0.12850  0.62120  Biso   1.000  N
  N11      1.0000 0.12850  0.78380  0.87120  Biso   1.000  N
  N12      1.0000 0.87150  0.21620  0.37120  Biso   1.000  N
  C33      1.0000 0.49410  0.19690  0.09990  Biso   1.000  C
  C34      1.0000 0.50590  0.80310  0.59990  Biso   1.000  C
  C35      1.0000 0.80310  0.49410  0.84990  Biso   1.000  C
  C36      1.0000 0.19690  0.50590  0.34990  Biso   1.000  C
  H17      1.0000 0.57070  0.22620  0.06900  Biso   1.000  H
  H18      1.0000 0.42930  0.77380  0.56900  Biso   1.000  H
  H19      1.0000 0.77380  0.57070  0.81900  Biso   1.000  H
  H20      1.0000 0.22620  0.42930  0.31900  Biso   1.000  H
  Cu1      1.0000 0.01080  0.96956  0.11086  Biso   1.000  Cu
  Cu2      1.0000 0.98920  0.03044  0.61086  Biso   1.000  Cu
  Cu3      1.0000 0.03044  0.01080  0.86086  Biso   1.000  Cu
  Cu4      1.0000 0.96956  0.98920  0.36086  Biso   1.000  Cu
  C37      1.0000 0.53070  0.73780  0.09340  Biso   1.000  C
  C38      1.0000 0.46930  0.26220  0.59340  Biso   1.000  C
  C39      1.0000 0.26220  0.53070  0.84340  Biso   1.000  C
  C40      1.0000 0.73780  0.46930  0.34340  Biso   1.000  C
  H21      1.0000 0.46170  0.69640  0.06180  Biso   1.000  H
  H22      1.0000 0.53830  0.30360  0.56180  Biso   1.000  H
  H23      1.0000 0.30360  0.46170  0.81180  Biso   1.000  H
  H24      1.0000 0.69640  0.53830  0.31180  Biso   1.000  H
  C41      1.0000 0.34470  0.11800  0.08420  Biso   1.000  C
  C42      1.0000 0.65530  0.88200  0.58420  Biso   1.000  C
  C43      1.0000 0.88200  0.34470  0.83420  Biso   1.000  C
  C44      1.0000 0.11800  0.65530  0.33420  Biso   1.000  C
  H25      1.0000 0.32510  0.09370  0.04180  Biso   1.000  H
  H26      1.0000 0.67490  0.90630  0.54180  Biso   1.000  H
  H27      1.0000 0.90630  0.32510  0.79180  Biso   1.000  H
  H28      1.0000 0.09370  0.67490  0.29180  Biso   1.000  H
  C45      1.0000 0.68410  0.81280  0.07840  Biso   1.000  C
  C46      1.0000 0.31590  0.18720  0.57840  Biso   1.000  C
  C47      1.0000 0.18720  0.68410  0.82840  Biso   1.000  C
  C48      1.0000 0.81280  0.31590  0.32840  Biso   1.000  C
  H29      1.0000 0.71500  0.82040  0.03620  Biso   1.000  H
  H30      1.0000 0.28500  0.17960  0.53620  Biso   1.000  H
  H31      1.0000 0.17960  0.71500  0.78620  Biso   1.000  H
  H32      1.0000 0.82040  0.28500  0.28620  Biso   1.000  H
  O1       1.0000 0.14380  0.08010  0.28860  Biso   1.000  O
  O2       1.0000 0.85620  0.91990  0.78860  Biso   1.000  O
  O3       1.0000 0.91990  0.14380  0.03860  Biso   1.000  O
  O4       1.0000 0.08010  0.85620  0.53860  Biso   1.000  O
  O5       1.0000 0.83260  0.91620  0.28620  Biso   1.000  O
  O6       1.0000 0.16740  0.08380  0.78620  Biso   1.000  O
  O7       1.0000 0.08380  0.83260  0.03620  Biso   1.000  O
  O8       1.0000 0.91620  0.16740  0.53620  Biso   1.000  O
  O9       1.0000 0.01600  0.38130  0.19960  Biso   1.000  O
  O10      1.0000 0.98400  0.61870  0.69960  Biso   1.000  O
  O11      1.0000 0.61870  0.01600  0.94960  Biso   1.000  O
  O12      1.0000 0.38130  0.98400  0.44960  Biso   1.000  O
  O13      1.0000 0.06430  0.65780  0.17410  Biso   1.000  O
  O14      1.0000 0.93570  0.34220  0.67410  Biso   1.000  O
  O15      1.0000 0.34220  0.06430  0.92410  Biso   1.000  O
  O16      1.0000 0.65780  0.93570  0.42410  Biso   1.000  O
  Cl1      1.0000 0.02460  0.49540  0.14896  Biso   1.000  Cl
  Cl2      1.0000 0.97540  0.50460  0.64896  Biso   1.000  Cl
  Cl3      1.0000 0.50460  0.02460  0.89896  Biso   1.000  Cl
  Cl4      1.0000 0.49540  0.97540  0.39896  Biso   1.000  Cl
  O17      1.0000 0.87000  0.50430  0.11730  Biso   1.000  O
  O18      1.0000 0.13000  0.49570  0.61730  Biso   1.000  O
  O19      1.0000 0.49570  0.87000  0.86730  Biso   1.000  O
  O20      1.0000 0.50430  0.13000  0.36730  Biso   1.000  O
  O21      1.0000 0.15200  0.44500  0.10780  Biso   1.000  O
  O22      1.0000 0.84800  0.55500  0.60780  Biso   1.000  O
  O23      1.0000 0.55500  0.15200  0.85780  Biso   1.000  O
  O24      1.0000 0.44500  0.84800  0.35780  Biso   1.000  O
