data_image0
_cell_length_a       15.432
_cell_length_b       15.17
_cell_length_c       22.6
_cell_angle_alpha    90
_cell_angle_beta     93.411
_cell_angle_gamma    90

_symmetry_space_group_name_H-M    "P 1"
_symmetry_int_tables_number       1

loop_
  _symmetry_equiv_pos_as_xyz
  'x, y, z'

loop_
  _atom_site_label
  _atom_site_occupancy
  _atom_site_fract_x
  _atom_site_fract_y
  _atom_site_fract_z
  _atom_site_thermal_displace_type
  _atom_site_B_iso_or_equiv
  _atom_site_type_symbol
  Cu1      1.0000 0.41354  0.33035  0.88061  Biso   1.000  Cu
  Cu2      1.0000 0.08646  0.83035  0.11939  Biso   1.000  Cu
  Cu3      1.0000 0.58646  0.66965  0.11939  Biso   1.000  Cu
  Cu4      1.0000 0.91354  0.16965  0.88061  Biso   1.000  Cu
  Cu5      1.0000 0.62185  0.18108  0.17512  Biso   1.000  Cu
  Cu6      1.0000 0.87815  0.68108  0.82488  Biso   1.000  Cu
  Cu7      1.0000 0.37815  0.81892  0.82488  Biso   1.000  Cu
  Cu8      1.0000 0.12185  0.31892  0.17512  Biso   1.000  Cu
  Cu9      1.0000 0.76186  0.06121  0.51092  Biso   1.000  Cu
  Cu10     1.0000 0.73814  0.56121  0.48908  Biso   1.000  Cu
  Cu11     1.0000 0.23814  0.93879  0.48908  Biso   1.000  Cu
  Cu12     1.0000 0.26186  0.43879  0.51092  Biso   1.000  Cu
  N1       1.0000 0.47010  0.41400  0.82340  Biso   1.000  N
  N2       1.0000 0.02990  0.91400  0.17660  Biso   1.000  N
  N3       1.0000 0.52990  0.58600  0.17660  Biso   1.000  N
  N4       1.0000 0.97010  0.08600  0.82340  Biso   1.000  N
  C1       1.0000 0.51760  0.35280  0.78510  Biso   1.000  C
  C2       1.0000 0.98240  0.85280  0.21490  Biso   1.000  C
  C3       1.0000 0.48240  0.64720  0.21490  Biso   1.000  C
  C4       1.0000 0.01760  0.14720  0.78510  Biso   1.000  C
  H1       1.0000 0.47650  0.32640  0.75620  Biso   1.000  H
  H2       1.0000 0.02350  0.82640  0.24380  Biso   1.000  H
  H3       1.0000 0.52350  0.67360  0.24380  Biso   1.000  H
  H4       1.0000 0.97650  0.17360  0.75620  Biso   1.000  H
  H5       1.0000 0.55890  0.38660  0.76350  Biso   1.000  H
  H6       1.0000 0.94110  0.88660  0.23650  Biso   1.000  H
  H7       1.0000 0.44110  0.61340  0.23650  Biso   1.000  H
  H8       1.0000 0.05890  0.11340  0.76350  Biso   1.000  H
  C5       1.0000 0.56300  0.28440  0.81710  Biso   1.000  C
  C6       1.0000 0.93700  0.78440  0.18290  Biso   1.000  C
  C7       1.0000 0.43700  0.71560  0.18290  Biso   1.000  C
  C8       1.0000 0.06300  0.21560  0.81710  Biso   1.000  C
  H9       1.0000 0.61270  0.30890  0.83960  Biso   1.000  H
  H10      1.0000 0.88730  0.80890  0.16040  Biso   1.000  H
  H11      1.0000 0.38730  0.69110  0.16040  Biso   1.000  H
  H12      1.0000 0.11270  0.19110  0.83960  Biso   1.000  H
  H13      1.0000 0.58380  0.24130  0.78960  Biso   1.000  H
  H14      1.0000 0.91620  0.74130  0.21040  Biso   1.000  H
  H15      1.0000 0.41620  0.75870  0.21040  Biso   1.000  H
  H16      1.0000 0.08380  0.25870  0.78960  Biso   1.000  H
  N5       1.0000 0.50420  0.24080  0.85810  Biso   1.000  N
  N6       1.0000 0.99580  0.74080  0.14190  Biso   1.000  N
  N7       1.0000 0.49580  0.75920  0.14190  Biso   1.000  N
  N8       1.0000 0.00420  0.25920  0.85810  Biso   1.000  N
  C9       1.0000 0.40750  0.46460  0.78470  Biso   1.000  C
  C10      1.0000 0.09250  0.96460  0.21530  Biso   1.000  C
  C11      1.0000 0.59250  0.53540  0.21530  Biso   1.000  C
  C12      1.0000 0.90750  0.03540  0.78470  Biso   1.000  C
  H17      1.0000 0.38050  0.50900  0.80770  Biso   1.000  H
  H18      1.0000 0.11950  0.00900  0.19230  Biso   1.000  H
  H19      1.0000 0.61950  0.49100  0.19230  Biso   1.000  H
  H20      1.0000 0.88050  0.99100  0.80770  Biso   1.000  H
  H21      1.0000 0.36380  0.42550  0.76780  Biso   1.000  H
  H22      1.0000 0.13620  0.92550  0.23220  Biso   1.000  H
  H23      1.0000 0.63620  0.57450  0.23220  Biso   1.000  H
  H24      1.0000 0.86380  0.07450  0.76780  Biso   1.000  H
  H25      1.0000 0.43740  0.49220  0.75360  Biso   1.000  H
  H26      1.0000 0.06260  0.99220  0.24640  Biso   1.000  H
  H27      1.0000 0.56260  0.50780  0.24640  Biso   1.000  H
  H28      1.0000 0.93740  0.00780  0.75360  Biso   1.000  H
  C13      1.0000 0.52760  0.47390  0.85710  Biso   1.000  C
  C14      1.0000 0.97240  0.97390  0.14290  Biso   1.000  C
  C15      1.0000 0.47240  0.52610  0.14290  Biso   1.000  C
  C16      1.0000 0.02760  0.02610  0.85710  Biso   1.000  C
  H29      1.0000 0.56640  0.50140  0.83100  Biso   1.000  H
  H30      1.0000 0.93360  0.00140  0.16900  Biso   1.000  H
  H31      1.0000 0.43360  0.49860  0.16900  Biso   1.000  H
  H32      1.0000 0.06640  0.99860  0.83100  Biso   1.000  H
  H33      1.0000 0.56060  0.44160  0.88720  Biso   1.000  H
  H34      1.0000 0.93940  0.94160  0.11280  Biso   1.000  H
  H35      1.0000 0.43940  0.55840  0.11280  Biso   1.000  H
  H36      1.0000 0.06060  0.05840  0.88720  Biso   1.000  H
  H37      1.0000 0.49380  0.51830  0.87530  Biso   1.000  H
  H38      1.0000 0.00620  0.01830  0.12470  Biso   1.000  H
  H39      1.0000 0.50620  0.48170  0.12470  Biso   1.000  H
  H40      1.0000 0.99380  0.98170  0.87530  Biso   1.000  H
  C17      1.0000 0.55840  0.20470  0.90960  Biso   1.000  C
  C18      1.0000 0.94160  0.70470  0.09040  Biso   1.000  C
  C19      1.0000 0.44160  0.79530  0.09040  Biso   1.000  C
  C20      1.0000 0.05840  0.29530  0.90960  Biso   1.000  C
  H41      1.0000 0.52400  0.16540  0.93190  Biso   1.000  H
  H42      1.0000 0.97600  0.66540  0.06810  Biso   1.000  H
  H43      1.0000 0.47600  0.83460  0.06810  Biso   1.000  H
  H44      1.0000 0.02400  0.33460  0.93190  Biso   1.000  H
  H45      1.0000 0.57910  0.25230  0.93460  Biso   1.000  H
  H46      1.0000 0.92090  0.75230  0.06540  Biso   1.000  H
  H47      1.0000 0.42090  0.74770  0.06540  Biso   1.000  H
  H48      1.0000 0.07910  0.24770  0.93460  Biso   1.000  H
  H49      1.0000 0.60700  0.17310  0.89550  Biso   1.000  H
  H50      1.0000 0.89300  0.67310  0.10450  Biso   1.000  H
  H51      1.0000 0.39300  0.82690  0.10450  Biso   1.000  H
  H52      1.0000 0.10700  0.32690  0.89550  Biso   1.000  H
  C21      1.0000 0.46350  0.16660  0.82730  Biso   1.000  C
  C22      1.0000 0.03650  0.66660  0.17270  Biso   1.000  C
  C23      1.0000 0.53650  0.83340  0.17270  Biso   1.000  C
  C24      1.0000 0.96350  0.33340  0.82730  Biso   1.000  C
  H53      1.0000 0.41650  0.18710  0.80120  Biso   1.000  H
  H54      1.0000 0.08350  0.68710  0.19880  Biso   1.000  H
  H55      1.0000 0.58350  0.81290  0.19880  Biso   1.000  H
  H56      1.0000 0.91650  0.31290  0.80120  Biso   1.000  H
  H57      1.0000 0.44170  0.12630  0.85560  Biso   1.000  H
  H58      1.0000 0.05830  0.62630  0.14440  Biso   1.000  H
  H59      1.0000 0.55830  0.87370  0.14440  Biso   1.000  H
  H60      1.0000 0.94170  0.37370  0.85560  Biso   1.000  H
  H61      1.0000 0.50550  0.13700  0.80460  Biso   1.000  H
  H62      1.0000 0.99450  0.63700  0.19540  Biso   1.000  H
  H63      1.0000 0.49450  0.86300  0.19540  Biso   1.000  H
  H64      1.0000 0.00550  0.36300  0.80460  Biso   1.000  H
  N9       1.0000 0.74610  0.20180  0.20760  Biso   1.000  N
  N10      1.0000 0.75390  0.70180  0.79240  Biso   1.000  N
  N11      1.0000 0.25390  0.79820  0.79240  Biso   1.000  N
  N12      1.0000 0.24610  0.29820  0.20760  Biso   1.000  N
  C25      1.0000 0.79810  0.19780  0.15300  Biso   1.000  C
  C26      1.0000 0.70190  0.69780  0.84700  Biso   1.000  C
  C27      1.0000 0.20190  0.80220  0.84700  Biso   1.000  C
  C28      1.0000 0.29810  0.30220  0.15300  Biso   1.000  C
  H65      1.0000 0.78870  0.25070  0.12950  Biso   1.000  H
  H66      1.0000 0.71130  0.75070  0.87050  Biso   1.000  H
  H67      1.0000 0.21130  0.74930  0.87050  Biso   1.000  H
  H68      1.0000 0.28870  0.24930  0.12950  Biso   1.000  H
  H69      1.0000 0.85950  0.19310  0.16440  Biso   1.000  H
  H70      1.0000 0.64050  0.69310  0.83560  Biso   1.000  H
  H71      1.0000 0.14050  0.80690  0.83560  Biso   1.000  H
  H72      1.0000 0.35950  0.30690  0.16440  Biso   1.000  H
  C29      1.0000 0.76860  0.11920  0.11840  Biso   1.000  C
  C30      1.0000 0.73140  0.61920  0.88160  Biso   1.000  C
  C31      1.0000 0.23140  0.88080  0.88160  Biso   1.000  C
  C32      1.0000 0.26860  0.38080  0.11840  Biso   1.000  C
  H73      1.0000 0.79820  0.11740  0.08170  Biso   1.000  H
  H74      1.0000 0.70180  0.61740  0.91830  Biso   1.000  H
  H75      1.0000 0.20180  0.88260  0.91830  Biso   1.000  H
  H76      1.0000 0.29820  0.38260  0.08170  Biso   1.000  H
  H77      1.0000 0.78420  0.06640  0.14080  Biso   1.000  H
  H78      1.0000 0.71580  0.56640  0.85920  Biso   1.000  H
  H79      1.0000 0.21580  0.93360  0.85920  Biso   1.000  H
  H80      1.0000 0.28420  0.43360  0.14080  Biso   1.000  H
  N13      1.0000 0.67730  0.12000  0.10510  Biso   1.000  N
  N14      1.0000 0.82270  0.62000  0.89490  Biso   1.000  N
  N15      1.0000 0.32270  0.88000  0.89490  Biso   1.000  N
  N16      1.0000 0.17730  0.38000  0.10510  Biso   1.000  N
  C33      1.0000 0.75910  0.29060  0.22870  Biso   1.000  C
  C34      1.0000 0.74090  0.79060  0.77130  Biso   1.000  C
  C35      1.0000 0.24090  0.70940  0.77130  Biso   1.000  C
  C36      1.0000 0.25910  0.20940  0.22870  Biso   1.000  C
  H81      1.0000 0.72840  0.29900  0.26400  Biso   1.000  H
  H82      1.0000 0.77160  0.79900  0.73600  Biso   1.000  H
  H83      1.0000 0.27160  0.70100  0.73600  Biso   1.000  H
  H84      1.0000 0.22840  0.20100  0.26400  Biso   1.000  H
  H85      1.0000 0.73770  0.33140  0.19880  Biso   1.000  H
  H86      1.0000 0.76230  0.83140  0.80120  Biso   1.000  H
  H87      1.0000 0.26230  0.66860  0.80120  Biso   1.000  H
  H88      1.0000 0.23770  0.16860  0.19880  Biso   1.000  H
  H89      1.0000 0.81990  0.30070  0.23750  Biso   1.000  H
  H90      1.0000 0.68010  0.80070  0.76250  Biso   1.000  H
  H91      1.0000 0.18010  0.69930  0.76250  Biso   1.000  H
  H92      1.0000 0.31990  0.19930  0.23750  Biso   1.000  H
  C37      1.0000 0.77420  0.13600  0.25100  Biso   1.000  C
  C38      1.0000 0.72580  0.63600  0.74900  Biso   1.000  C
  C39      1.0000 0.22580  0.86400  0.74900  Biso   1.000  C
  C40      1.0000 0.27420  0.36400  0.25100  Biso   1.000  C
  H93      1.0000 0.83640  0.13650  0.25610  Biso   1.000  H
  H94      1.0000 0.66360  0.63650  0.74390  Biso   1.000  H
  H95      1.0000 0.16360  0.86350  0.74390  Biso   1.000  H
  H96      1.0000 0.33640  0.36350  0.25610  Biso   1.000  H
  H97      1.0000 0.75500  0.07890  0.23750  Biso   1.000  H
  H98      1.0000 0.74500  0.57890  0.76250  Biso   1.000  H
  H99      1.0000 0.24500  0.92110  0.76250  Biso   1.000  H
  H100     1.0000 0.25500  0.42110  0.23750  Biso   1.000  H
  H101     1.0000 0.74980  0.14900  0.28810  Biso   1.000  H
  H102     1.0000 0.75020  0.64900  0.71190  Biso   1.000  H
  H103     1.0000 0.25020  0.85100  0.71190  Biso   1.000  H
  H104     1.0000 0.24980  0.35100  0.28810  Biso   1.000  H
  C41      1.0000 0.66060  0.17090  0.05140  Biso   1.000  C
  C42      1.0000 0.83940  0.67090  0.94860  Biso   1.000  C
  C43      1.0000 0.33940  0.82910  0.94860  Biso   1.000  C
  C44      1.0000 0.16060  0.32910  0.05140  Biso   1.000  C
  H105     1.0000 0.69040  0.22640  0.05520  Biso   1.000  H
  H106     1.0000 0.80960  0.72640  0.94480  Biso   1.000  H
  H107     1.0000 0.30960  0.77360  0.94480  Biso   1.000  H
  H108     1.0000 0.19040  0.27360  0.05520  Biso   1.000  H
  H109     1.0000 0.59930  0.18120  0.04530  Biso   1.000  H
  H110     1.0000 0.90070  0.68120  0.95470  Biso   1.000  H
  H111     1.0000 0.40070  0.81880  0.95470  Biso   1.000  H
  H112     1.0000 0.09930  0.31880  0.04530  Biso   1.000  H
  H113     1.0000 0.68090  0.13900  0.01830  Biso   1.000  H
  H114     1.0000 0.81910  0.63900  0.98170  Biso   1.000  H
  H115     1.0000 0.31910  0.86100  0.98170  Biso   1.000  H
  H116     1.0000 0.18090  0.36100  0.01830  Biso   1.000  H
  C45      1.0000 0.64510  0.02860  0.09770  Biso   1.000  C
  C46      1.0000 0.85490  0.52860  0.90230  Biso   1.000  C
  C47      1.0000 0.35490  0.97140  0.90230  Biso   1.000  C
  C48      1.0000 0.14510  0.47140  0.09770  Biso   1.000  C
  H117     1.0000 0.69130  0.99120  0.08610  Biso   1.000  H
  H118     1.0000 0.80870  0.49120  0.91390  Biso   1.000  H
  H119     1.0000 0.30870  0.00880  0.91390  Biso   1.000  H
  H120     1.0000 0.19130  0.50880  0.08610  Biso   1.000  H
  H121     1.0000 0.59840  0.02720  0.06770  Biso   1.000  H
  H122     1.0000 0.90160  0.52720  0.93230  Biso   1.000  H
  H123     1.0000 0.40160  0.97280  0.93230  Biso   1.000  H
  H124     1.0000 0.09840  0.47280  0.06770  Biso   1.000  H
  H125     1.0000 0.62460  0.00790  0.13450  Biso   1.000  H
  H126     1.0000 0.87540  0.50790  0.86550  Biso   1.000  H
  H127     1.0000 0.37540  0.99210  0.86550  Biso   1.000  H
  H128     1.0000 0.12460  0.49210  0.13450  Biso   1.000  H
  N17      1.0000 0.70300  0.94420  0.52360  Biso   1.000  N
  N18      1.0000 0.79700  0.44420  0.47640  Biso   1.000  N
  N19      1.0000 0.29700  0.05580  0.47640  Biso   1.000  N
  N20      1.0000 0.20300  0.55580  0.52360  Biso   1.000  N
  C49      1.0000 0.75410  0.90440  0.57830  Biso   1.000  C
  C50      1.0000 0.74590  0.40440  0.42170  Biso   1.000  C
  C51      1.0000 0.24590  0.09560  0.42170  Biso   1.000  C
  C52      1.0000 0.25410  0.59560  0.57830  Biso   1.000  C
  H129     1.0000 0.80580  0.87530  0.56560  Biso   1.000  H
  H130     1.0000 0.69420  0.37530  0.43440  Biso   1.000  H
  H131     1.0000 0.19420  0.12470  0.43440  Biso   1.000  H
  H132     1.0000 0.30580  0.62470  0.56560  Biso   1.000  H
  H133     1.0000 0.71850  0.86040  0.59630  Biso   1.000  H
  H134     1.0000 0.78150  0.36040  0.40370  Biso   1.000  H
  H135     1.0000 0.28150  0.13960  0.40370  Biso   1.000  H
  H136     1.0000 0.21850  0.63960  0.59630  Biso   1.000  H
  C53      1.0000 0.77900  0.97100  0.62180  Biso   1.000  C
  C54      1.0000 0.72100  0.47100  0.37820  Biso   1.000  C
  C55      1.0000 0.22100  0.02900  0.37820  Biso   1.000  C
  C56      1.0000 0.27900  0.52900  0.62180  Biso   1.000  C
  H137     1.0000 0.72800  0.99610  0.63840  Biso   1.000  H
  H138     1.0000 0.77200  0.49610  0.36160  Biso   1.000  H
  H139     1.0000 0.27200  0.00390  0.36160  Biso   1.000  H
  H140     1.0000 0.22800  0.50390  0.63840  Biso   1.000  H
  H141     1.0000 0.81570  0.94560  0.65380  Biso   1.000  H
  H142     1.0000 0.68430  0.44560  0.34620  Biso   1.000  H
  H143     1.0000 0.18430  0.05440  0.34620  Biso   1.000  H
  H144     1.0000 0.31570  0.55440  0.65380  Biso   1.000  H
  N21      1.0000 0.82710  0.03970  0.59040  Biso   1.000  N
  N22      1.0000 0.67290  0.53970  0.40960  Biso   1.000  N
  N23      1.0000 0.17290  0.96030  0.40960  Biso   1.000  N
  N24      1.0000 0.32710  0.46030  0.59040  Biso   1.000  N
  C57      1.0000 0.61200  0.95190  0.52700  Biso   1.000  C
  C58      1.0000 0.88800  0.45190  0.47300  Biso   1.000  C
  C59      1.0000 0.38800  0.04810  0.47300  Biso   1.000  C
  C60      1.0000 0.11200  0.54810  0.52700  Biso   1.000  C
  H145     1.0000 0.59040  0.90140  0.54710  Biso   1.000  H
  H146     1.0000 0.90960  0.40140  0.45290  Biso   1.000  H
  H147     1.0000 0.40960  0.09860  0.45290  Biso   1.000  H
  H148     1.0000 0.09040  0.59860  0.54710  Biso   1.000  H
  H149     1.0000 0.59900  0.00440  0.54850  Biso   1.000  H
  H150     1.0000 0.90100  0.50440  0.45150  Biso   1.000  H
  H151     1.0000 0.40100  0.99560  0.45150  Biso   1.000  H
  H152     1.0000 0.09900  0.49560  0.54850  Biso   1.000  H
  H153     1.0000 0.58480  0.95520  0.48770  Biso   1.000  H
  H154     1.0000 0.91520  0.45520  0.51230  Biso   1.000  H
  H155     1.0000 0.41520  0.04480  0.51230  Biso   1.000  H
  H156     1.0000 0.08480  0.54480  0.48770  Biso   1.000  H
  C61      1.0000 0.72460  0.88600  0.47630  Biso   1.000  C
  C62      1.0000 0.77540  0.38600  0.52370  Biso   1.000  C
  C63      1.0000 0.27540  0.11400  0.52370  Biso   1.000  C
  C64      1.0000 0.22460  0.61400  0.47630  Biso   1.000  C
  H157     1.0000 0.67280  0.87130  0.45280  Biso   1.000  H
  H158     1.0000 0.82720  0.37130  0.54720  Biso   1.000  H
  H159     1.0000 0.32720  0.12870  0.54720  Biso   1.000  H
  H160     1.0000 0.17280  0.62870  0.45280  Biso   1.000  H
  H161     1.0000 0.76490  0.91470  0.45200  Biso   1.000  H
  H162     1.0000 0.73510  0.41470  0.54800  Biso   1.000  H
  H163     1.0000 0.23510  0.08530  0.54800  Biso   1.000  H
  H164     1.0000 0.26490  0.58530  0.45200  Biso   1.000  H
  H165     1.0000 0.75040  0.83320  0.49280  Biso   1.000  H
  H166     1.0000 0.74960  0.33320  0.50720  Biso   1.000  H
  H167     1.0000 0.24960  0.16680  0.50720  Biso   1.000  H
  H168     1.0000 0.25040  0.66680  0.49280  Biso   1.000  H
  C65      1.0000 0.92120  0.03190  0.58500  Biso   1.000  C
  C66      1.0000 0.57880  0.53190  0.41500  Biso   1.000  C
  C67      1.0000 0.07880  0.96810  0.41500  Biso   1.000  C
  C68      1.0000 0.42120  0.46810  0.58500  Biso   1.000  C
  H169     1.0000 0.93310  0.98110  0.56150  Biso   1.000  H
  H170     1.0000 0.56690  0.48110  0.43850  Biso   1.000  H
  H171     1.0000 0.06690  0.01890  0.43850  Biso   1.000  H
  H172     1.0000 0.43310  0.51890  0.56150  Biso   1.000  H
  H173     1.0000 0.94230  0.08380  0.56620  Biso   1.000  H
  H174     1.0000 0.55770  0.58380  0.43380  Biso   1.000  H
  H175     1.0000 0.05770  0.91620  0.43380  Biso   1.000  H
  H176     1.0000 0.44230  0.41620  0.56620  Biso   1.000  H
  H177     1.0000 0.94970  0.02570  0.62370  Biso   1.000  H
  H178     1.0000 0.55030  0.52570  0.37630  Biso   1.000  H
  H179     1.0000 0.05030  0.97430  0.37630  Biso   1.000  H
  H180     1.0000 0.44970  0.47430  0.62370  Biso   1.000  H
  C69      1.0000 0.80950  0.12230  0.62560  Biso   1.000  C
  C70      1.0000 0.69050  0.62230  0.37440  Biso   1.000  C
  C71      1.0000 0.19050  0.87770  0.37440  Biso   1.000  C
  C72      1.0000 0.30950  0.37770  0.62560  Biso   1.000  C
  H181     1.0000 0.84670  0.16890  0.61380  Biso   1.000  H
  H182     1.0000 0.65330  0.66890  0.38620  Biso   1.000  H
  H183     1.0000 0.15330  0.83110  0.38620  Biso   1.000  H
  H184     1.0000 0.34670  0.33110  0.61380  Biso   1.000  H
  H185     1.0000 0.75000  0.13950  0.61830  Biso   1.000  H
  H186     1.0000 0.75000  0.63950  0.38170  Biso   1.000  H
  H187     1.0000 0.25000  0.86050  0.38170  Biso   1.000  H
  H188     1.0000 0.25000  0.36050  0.61830  Biso   1.000  H
  H189     1.0000 0.82070  0.11060  0.66710  Biso   1.000  H
  H190     1.0000 0.67930  0.61060  0.33290  Biso   1.000  H
  H191     1.0000 0.17930  0.88940  0.33290  Biso   1.000  H
  H192     1.0000 0.32070  0.38940  0.66710  Biso   1.000  H
  C73      1.0000 0.31280  0.15020  0.00340  Biso   1.000  C
  C74      1.0000 0.18720  0.65020  0.99660  Biso   1.000  C
  C75      1.0000 0.68720  0.84980  0.99660  Biso   1.000  C
  C76      1.0000 0.81280  0.34980  0.00340  Biso   1.000  C
  C77      1.0000 0.24410  0.09150  0.00840  Biso   1.000  C
  C78      1.0000 0.25590  0.59150  0.99160  Biso   1.000  C
  C79      1.0000 0.75590  0.90850  0.99160  Biso   1.000  C
  C80      1.0000 0.74410  0.40850  0.00840  Biso   1.000  C
  H193     1.0000 0.19860  0.09130  0.97950  Biso   1.000  H
  H194     1.0000 0.30140  0.59130  0.02050  Biso   1.000  H
  H195     1.0000 0.80140  0.90870  0.02050  Biso   1.000  H
  H196     1.0000 0.69860  0.40870  0.97950  Biso   1.000  H
  C81      1.0000 0.24250  0.03340  0.05590  Biso   1.000  C
  C82      1.0000 0.25750  0.53340  0.94410  Biso   1.000  C
  C83      1.0000 0.75750  0.96660  0.94410  Biso   1.000  C
  C84      1.0000 0.74250  0.46660  0.05590  Biso   1.000  C
  C85      1.0000 0.30860  0.03640  0.09900  Biso   1.000  C
  C86      1.0000 0.19140  0.53640  0.90100  Biso   1.000  C
  C87      1.0000 0.69140  0.96360  0.90100  Biso   1.000  C
  C88      1.0000 0.80860  0.46360  0.09900  Biso   1.000  C
  H197     1.0000 0.30760  0.99860  0.13130  Biso   1.000  H
  H198     1.0000 0.19240  0.49860  0.86870  Biso   1.000  H
  H199     1.0000 0.69240  0.00140  0.86870  Biso   1.000  H
  H200     1.0000 0.80760  0.50140  0.13130  Biso   1.000  H
  C89      1.0000 0.37760  0.09550  0.09510  Biso   1.000  C
  C90      1.0000 0.12240  0.59550  0.90490  Biso   1.000  C
  C91      1.0000 0.62240  0.90450  0.90490  Biso   1.000  C
  C92      1.0000 0.87760  0.40450  0.09510  Biso   1.000  C
  C93      1.0000 0.37880  0.15060  0.04700  Biso   1.000  C
  C94      1.0000 0.12120  0.65060  0.95300  Biso   1.000  C
  C95      1.0000 0.62120  0.84940  0.95300  Biso   1.000  C
  C96      1.0000 0.87880  0.34940  0.04700  Biso   1.000  C
  H201     1.0000 0.42530  0.18900  0.04380  Biso   1.000  H
  H202     1.0000 0.07470  0.68900  0.95620  Biso   1.000  H
  H203     1.0000 0.57470  0.81100  0.95620  Biso   1.000  H
  H204     1.0000 0.92530  0.31100  0.04380  Biso   1.000  H
  C97      1.0000 0.31730  0.20580  0.94800  Biso   1.000  C
  C98      1.0000 0.18270  0.70580  0.05200  Biso   1.000  C
  C99      1.0000 0.68270  0.79420  0.05200  Biso   1.000  C
  C100     1.0000 0.81730  0.29420  0.94800  Biso   1.000  C
  O1       1.0000 0.38300  0.25700  0.94660  Biso   1.000  O
  O2       1.0000 0.11700  0.75700  0.05340  Biso   1.000  O
  O3       1.0000 0.61700  0.74300  0.05340  Biso   1.000  O
  O4       1.0000 0.88300  0.24300  0.94660  Biso   1.000  O
  O5       1.0000 0.25920  0.19830  0.90710  Biso   1.000  O
  O6       1.0000 0.24080  0.69830  0.09290  Biso   1.000  O
  O7       1.0000 0.74080  0.80170  0.09290  Biso   1.000  O
  O8       1.0000 0.75920  0.30170  0.90710  Biso   1.000  O
  C101     1.0000 0.16910  0.96800  0.05950  Biso   1.000  C
  C102     1.0000 0.33090  0.46800  0.94050  Biso   1.000  C
  C103     1.0000 0.83090  0.03200  0.94050  Biso   1.000  C
  C104     1.0000 0.66910  0.53200  0.05950  Biso   1.000  C
  O9       1.0000 0.10980  0.96870  0.02140  Biso   1.000  O
  O10      1.0000 0.39020  0.46870  0.97860  Biso   1.000  O
  O11      1.0000 0.89020  0.03130  0.97860  Biso   1.000  O
  O12      1.0000 0.60980  0.53130  0.02140  Biso   1.000  O
  O13      1.0000 0.17530  0.91690  0.10410  Biso   1.000  O
  O14      1.0000 0.32470  0.41690  0.89590  Biso   1.000  O
  O15      1.0000 0.82470  0.08310  0.89590  Biso   1.000  O
  O16      1.0000 0.67530  0.58310  0.10410  Biso   1.000  O
  C105     1.0000 0.45190  0.09910  0.14500  Biso   1.000  C
  C106     1.0000 0.04810  0.59910  0.85500  Biso   1.000  C
  C107     1.0000 0.54810  0.90090  0.85500  Biso   1.000  C
  C108     1.0000 0.95190  0.40090  0.14500  Biso   1.000  C
  O17      1.0000 0.45060  0.04480  0.18570  Biso   1.000  O
  O18      1.0000 0.04940  0.54480  0.81430  Biso   1.000  O
  O19      1.0000 0.54940  0.95520  0.81430  Biso   1.000  O
  O20      1.0000 0.95060  0.45520  0.18570  Biso   1.000  O
  O21      1.0000 0.58350  0.20410  0.25330  Biso   1.000  O
  O22      1.0000 0.91650  0.70410  0.74670  Biso   1.000  O
  O23      1.0000 0.41650  0.79590  0.74670  Biso   1.000  O
  O24      1.0000 0.08350  0.29590  0.25330  Biso   1.000  O
  C109     1.0000 0.56880  0.21620  0.43580  Biso   1.000  C
  C110     1.0000 0.93120  0.71620  0.56420  Biso   1.000  C
  C111     1.0000 0.43120  0.78380  0.56420  Biso   1.000  C
  C112     1.0000 0.06880  0.28380  0.43580  Biso   1.000  C
  C113     1.0000 0.50500  0.26700  0.45930  Biso   1.000  C
  C114     1.0000 0.99500  0.76700  0.54070  Biso   1.000  C
  C115     1.0000 0.49500  0.73300  0.54070  Biso   1.000  C
  C116     1.0000 0.00500  0.23300  0.45930  Biso   1.000  C
  H205     1.0000 0.49690  0.26420  0.49970  Biso   1.000  H
  H206     1.0000 0.00310  0.76420  0.50030  Biso   1.000  H
  H207     1.0000 0.50310  0.73580  0.50030  Biso   1.000  H
  H208     1.0000 0.99690  0.23580  0.49970  Biso   1.000  H
  C117     1.0000 0.45300  0.32200  0.42360  Biso   1.000  C
  C118     1.0000 0.04700  0.82200  0.57640  Biso   1.000  C
  C119     1.0000 0.54700  0.67800  0.57640  Biso   1.000  C
  C120     1.0000 0.95300  0.17800  0.42360  Biso   1.000  C
  C121     1.0000 0.46540  0.32510  0.36230  Biso   1.000  C
  C122     1.0000 0.03460  0.82510  0.63770  Biso   1.000  C
  C123     1.0000 0.53460  0.67490  0.63770  Biso   1.000  C
  C124     1.0000 0.96540  0.17490  0.36230  Biso   1.000  C
  H209     1.0000 0.43360  0.36410  0.33790  Biso   1.000  H
  H210     1.0000 0.06640  0.86410  0.66210  Biso   1.000  H
  H211     1.0000 0.56640  0.63590  0.66210  Biso   1.000  H
  H212     1.0000 0.93360  0.13590  0.33790  Biso   1.000  H
  C125     1.0000 0.52630  0.26860  0.33860  Biso   1.000  C
  C126     1.0000 0.97370  0.76860  0.66140  Biso   1.000  C
  C127     1.0000 0.47370  0.73140  0.66140  Biso   1.000  C
  C128     1.0000 0.02630  0.23140  0.33860  Biso   1.000  C
  C129     1.0000 0.57750  0.21580  0.37590  Biso   1.000  C
  C130     1.0000 0.92250  0.71580  0.62410  Biso   1.000  C
  C131     1.0000 0.42250  0.78420  0.62410  Biso   1.000  C
  C132     1.0000 0.07750  0.28420  0.37590  Biso   1.000  C
  H213     1.0000 0.61860  0.17910  0.36020  Biso   1.000  H
  H214     1.0000 0.88140  0.67910  0.63980  Biso   1.000  H
  H215     1.0000 0.38140  0.82090  0.63980  Biso   1.000  H
  H216     1.0000 0.11860  0.32090  0.36020  Biso   1.000  H
  C133     1.0000 0.63090  0.16100  0.47750  Biso   1.000  C
  C134     1.0000 0.86910  0.66100  0.52250  Biso   1.000  C
  C135     1.0000 0.36910  0.83900  0.52250  Biso   1.000  C
  C136     1.0000 0.13090  0.33900  0.47750  Biso   1.000  C
  O25      1.0000 0.63480  0.17260  0.53050  Biso   1.000  O
  O26      1.0000 0.86520  0.67260  0.46950  Biso   1.000  O
  O27      1.0000 0.36520  0.82740  0.46950  Biso   1.000  O
  O28      1.0000 0.13480  0.32740  0.53050  Biso   1.000  O
  O29      1.0000 0.67620  0.10410  0.45030  Biso   1.000  O
  O30      1.0000 0.82380  0.60410  0.54970  Biso   1.000  O
  O31      1.0000 0.32380  0.89590  0.54970  Biso   1.000  O
  O32      1.0000 0.17620  0.39590  0.45030  Biso   1.000  O
  C137     1.0000 0.38310  0.37780  0.44860  Biso   1.000  C
  C138     1.0000 0.11690  0.87780  0.55140  Biso   1.000  C
  C139     1.0000 0.61690  0.62220  0.55140  Biso   1.000  C
  C140     1.0000 0.88310  0.12220  0.44860  Biso   1.000  C
  O33      1.0000 0.36640  0.45260  0.42810  Biso   1.000  O
  O34      1.0000 0.13360  0.95260  0.57190  Biso   1.000  O
  O35      1.0000 0.63360  0.54740  0.57190  Biso   1.000  O
  O36      1.0000 0.86640  0.04740  0.42810  Biso   1.000  O
  O37      1.0000 0.34420  0.34590  0.49120  Biso   1.000  O
  O38      1.0000 0.15580  0.84590  0.50880  Biso   1.000  O
  O39      1.0000 0.65580  0.65410  0.50880  Biso   1.000  O
  O40      1.0000 0.84420  0.15410  0.49120  Biso   1.000  O
  C141     1.0000 0.53720  0.26820  0.27190  Biso   1.000  C
  C142     1.0000 0.96280  0.76820  0.72810  Biso   1.000  C
  C143     1.0000 0.46280  0.73180  0.72810  Biso   1.000  C
  C144     1.0000 0.03720  0.23180  0.27190  Biso   1.000  C
  O41      1.0000 0.50450  0.32790  0.24080  Biso   1.000  O
  O42      1.0000 0.99550  0.82790  0.75920  Biso   1.000  O
  O43      1.0000 0.49550  0.67210  0.75920  Biso   1.000  O
  O44      1.0000 0.00450  0.17210  0.24080  Biso   1.000  O
  O45      1.0000 0.50780  0.15640  0.13690  Biso   1.000  O
  O46      1.0000 0.99220  0.65640  0.86310  Biso   1.000  O
  O47      1.0000 0.49220  0.84360  0.86310  Biso   1.000  O
  O48      1.0000 0.00780  0.34360  0.13690  Biso   1.000  O
  O49      1.0000 0.59760  0.32390  0.13940  Biso   1.000  O
  O50      1.0000 0.90240  0.82390  0.86060  Biso   1.000  O
  O51      1.0000 0.40240  0.67610  0.86060  Biso   1.000  O
  O52      1.0000 0.09760  0.17610  0.13940  Biso   1.000  O
  O53      1.0000 0.28750  0.27930  0.80370  Biso   1.000  O
  O54      1.0000 0.21250  0.77930  0.19630  Biso   1.000  O
  O55      1.0000 0.71250  0.72070  0.19630  Biso   1.000  O
  O56      1.0000 0.78750  0.22070  0.80370  Biso   1.000  O
  O57      1.0000 0.52450  0.35970  0.02390  Biso   1.000  O
  O58      1.0000 0.97550  0.85970  0.97610  Biso   1.000  O
  O59      1.0000 0.47550  0.64030  0.97610  Biso   1.000  O
  O60      1.0000 0.02450  0.14030  0.02390  Biso   1.000  O
  O61      1.0000 0.37200  0.57630  0.33620  Biso   1.000  O
  O62      1.0000 0.12800  0.07630  0.66380  Biso   1.000  O
  O63      1.0000 0.62800  0.42370  0.66380  Biso   1.000  O
  O64      1.0000 0.87200  0.92370  0.33620  Biso   1.000  O
  O65      1.0000 0.17530  0.43030  0.75840  Biso   1.000  O
  O66      1.0000 0.32470  0.93030  0.24160  Biso   1.000  O
  O67      1.0000 0.82470  0.56970  0.24160  Biso   1.000  O
  O68      1.0000 0.67530  0.06970  0.75840  Biso   1.000  O
  O69      1.0000 0.27470  0.11670  0.73440  Biso   1.000  O
  O70      1.0000 0.22530  0.61670  0.26560  Biso   1.000  O
  O71      1.0000 0.72530  0.88330  0.26560  Biso   1.000  O
  O72      1.0000 0.77470  0.38330  0.73440  Biso   1.000  O
  O73      1.0000 0.04890  0.23430  0.61640  Biso   1.000  O
  O74      1.0000 0.45110  0.73430  0.38360  Biso   1.000  O
  O75      1.0000 0.95110  0.76570  0.38360  Biso   1.000  O
  O76      1.0000 0.54890  0.26570  0.61640  Biso   1.000  O
  O77      1.0000 0.56870  0.01200  0.27620  Biso   1.000  O
  O78      1.0000 0.93130  0.51200  0.72380  Biso   1.000  O
  O79      1.0000 0.43130  0.98800  0.72380  Biso   1.000  O
  O80      1.0000 0.06870  0.48800  0.27620  Biso   1.000  O
  O81      1.0000 0.09090  0.25390  0.63580  Biso   1.000  O
  O82      1.0000 0.40910  0.75390  0.36420  Biso   1.000  O
  O83      1.0000 0.90910  0.74610  0.36420  Biso   1.000  O
  O84      1.0000 0.59090  0.24610  0.63580  Biso   1.000  O
  O85      1.0000 0.16820  0.37490  0.73150  Biso   1.000  O
  O86      1.0000 0.33180  0.87490  0.26850  Biso   1.000  O
  O87      1.0000 0.83180  0.62510  0.26850  Biso   1.000  O
  O88      1.0000 0.66820  0.12510  0.73150  Biso   1.000  O
  O89      1.0000 0.60440  0.01290  0.24560  Biso   1.000  O
  O90      1.0000 0.89560  0.51290  0.75440  Biso   1.000  O
  O91      1.0000 0.39560  0.98710  0.75440  Biso   1.000  O
  O92      1.0000 0.10440  0.48710  0.24560  Biso   1.000  O
  O93      1.0000 0.04600  0.40200  0.66690  Biso   1.000  O
  O94      1.0000 0.45400  0.90200  0.33310  Biso   1.000  O
  O95      1.0000 0.95400  0.59800  0.33310  Biso   1.000  O
  O96      1.0000 0.54600  0.09800  0.66690  Biso   1.000  O
  O97      1.0000 0.93800  0.32900  0.64900  Biso   1.000  O
  O98      1.0000 0.56200  0.82900  0.35100  Biso   1.000  O
  O99      1.0000 0.06200  0.67100  0.35100  Biso   1.000  O
  O100     1.0000 0.43800  0.17100  0.64900  Biso   1.000  O
  O101     1.0000 0.09700  0.52700  0.69700  Biso   1.000  O
  O102     1.0000 0.40300  0.02700  0.30300  Biso   1.000  O
  O103     1.0000 0.90300  0.47300  0.30300  Biso   1.000  O
  O104     1.0000 0.59700  0.97300  0.69700  Biso   1.000  O
