data_image0
_cell_length_a       17.197
_cell_length_b       7.2931
_cell_length_c       14.06
_cell_angle_alpha    90
_cell_angle_beta     93.554
_cell_angle_gamma    90

_symmetry_space_group_name_H-M    "P 1"
_symmetry_int_tables_number       1

loop_
  _symmetry_equiv_pos_as_xyz
  'x, y, z'

loop_
  _atom_site_label
  _atom_site_occupancy
  _atom_site_fract_x
  _atom_site_fract_y
  _atom_site_fract_z
  _atom_site_thermal_displace_type
  _atom_site_B_iso_or_equiv
  _atom_site_type_symbol
  C1       1.0000 0.30232  0.17540  0.76066  Biso   1.000  C
  C2       1.0000 0.69768  0.67540  0.73934  Biso   1.000  C
  C3       1.0000 0.69768  0.82460  0.23934  Biso   1.000  C
  C4       1.0000 0.30232  0.32460  0.26066  Biso   1.000  C
  H1       1.0000 0.31790  0.07830  0.80720  Biso   1.000  H
  H2       1.0000 0.68210  0.57830  0.69280  Biso   1.000  H
  H3       1.0000 0.68210  0.92170  0.19280  Biso   1.000  H
  H4       1.0000 0.31790  0.42170  0.30720  Biso   1.000  H
  H5       1.0000 0.35040  0.22810  0.73650  Biso   1.000  H
  H6       1.0000 0.64960  0.72810  0.76350  Biso   1.000  H
  H7       1.0000 0.64960  0.77190  0.26350  Biso   1.000  H
  H8       1.0000 0.35040  0.27190  0.23650  Biso   1.000  H
  C5       1.0000 0.25940  0.32210  0.80980  Biso   1.000  C
  C6       1.0000 0.74060  0.82210  0.69020  Biso   1.000  C
  C7       1.0000 0.74060  0.67790  0.19020  Biso   1.000  C
  C8       1.0000 0.25940  0.17790  0.30980  Biso   1.000  C
  H9       1.0000 0.23830  0.41080  0.76270  Biso   1.000  H
  H10      1.0000 0.76170  0.91080  0.73730  Biso   1.000  H
  H11      1.0000 0.76170  0.58920  0.23730  Biso   1.000  H
  H12      1.0000 0.23830  0.08920  0.26270  Biso   1.000  H
  H13      1.0000 0.29520  0.38460  0.85610  Biso   1.000  H
  H14      1.0000 0.70480  0.88460  0.64390  Biso   1.000  H
  H15      1.0000 0.70480  0.61540  0.14390  Biso   1.000  H
  H16      1.0000 0.29520  0.11540  0.35610  Biso   1.000  H
  H17      1.0000 0.21670  0.26710  0.84290  Biso   1.000  H
  H18      1.0000 0.78330  0.76710  0.65710  Biso   1.000  H
  H19      1.0000 0.78330  0.73290  0.15710  Biso   1.000  H
  H20      1.0000 0.21670  0.23290  0.34290  Biso   1.000  H
  C9       1.0000 0.18503  0.98490  0.70959  Biso   1.000  C
  C10      1.0000 0.81497  0.48490  0.79041  Biso   1.000  C
  C11      1.0000 0.81497  0.01510  0.29041  Biso   1.000  C
  C12      1.0000 0.18503  0.51510  0.20959  Biso   1.000  C
  H21      1.0000 0.15560  0.06170  0.75300  Biso   1.000  H
  H22      1.0000 0.84440  0.56170  0.74700  Biso   1.000  H
  H23      1.0000 0.84440  0.93830  0.24700  Biso   1.000  H
  H24      1.0000 0.15560  0.43830  0.25300  Biso   1.000  H
  H25      1.0000 0.15020  0.95820  0.65250  Biso   1.000  H
  H26      1.0000 0.84980  0.45820  0.84750  Biso   1.000  H
  H27      1.0000 0.84980  0.04180  0.34750  Biso   1.000  H
  H28      1.0000 0.15020  0.54180  0.15250  Biso   1.000  H
  C13      1.0000 0.20648  0.80710  0.75897  Biso   1.000  C
  C14      1.0000 0.79352  0.30710  0.74103  Biso   1.000  C
  C15      1.0000 0.79352  0.19290  0.24103  Biso   1.000  C
  C16      1.0000 0.20648  0.69290  0.25897  Biso   1.000  C
  H29      1.0000 0.22790  0.72220  0.71330  Biso   1.000  H
  H30      1.0000 0.77210  0.22220  0.78670  Biso   1.000  H
  H31      1.0000 0.77210  0.27780  0.28670  Biso   1.000  H
  H32      1.0000 0.22790  0.77780  0.21330  Biso   1.000  H
  H33      1.0000 0.15990  0.75290  0.78440  Biso   1.000  H
  H34      1.0000 0.84010  0.25290  0.71560  Biso   1.000  H
  H35      1.0000 0.84010  0.24710  0.21560  Biso   1.000  H
  H36      1.0000 0.15990  0.74710  0.28440  Biso   1.000  H
  H37      1.0000 0.24560  0.83050  0.81130  Biso   1.000  H
  H38      1.0000 0.75440  0.33050  0.68870  Biso   1.000  H
  H39      1.0000 0.75440  0.16950  0.18870  Biso   1.000  H
  H40      1.0000 0.24560  0.66950  0.31130  Biso   1.000  H
  C17      1.0000 0.30540  0.98450  0.61740  Biso   1.000  C
  C18      1.0000 0.69460  0.48450  0.88260  Biso   1.000  C
  C19      1.0000 0.69460  0.01550  0.38260  Biso   1.000  C
  C20      1.0000 0.30540  0.51550  0.11740  Biso   1.000  C
  H41      1.0000 0.34950  0.06230  0.60010  Biso   1.000  H
  H42      1.0000 0.65050  0.56230  0.89990  Biso   1.000  H
  H43      1.0000 0.65050  0.93770  0.39990  Biso   1.000  H
  H44      1.0000 0.34950  0.43770  0.10010  Biso   1.000  H
  H45      1.0000 0.32710  0.87770  0.65350  Biso   1.000  H
  H46      1.0000 0.67290  0.37770  0.84650  Biso   1.000  H
  H47      1.0000 0.67290  0.12230  0.34650  Biso   1.000  H
  H48      1.0000 0.32710  0.62230  0.15350  Biso   1.000  H
  C21      1.0000 0.26218  0.91850  0.52837  Biso   1.000  C
  C22      1.0000 0.73782  0.41850  0.97163  Biso   1.000  C
  C23      1.0000 0.73782  0.08150  0.47163  Biso   1.000  C
  C24      1.0000 0.26218  0.58150  0.02837  Biso   1.000  C
  H49      1.0000 0.29910  0.86660  0.48540  Biso   1.000  H
  H50      1.0000 0.70090  0.36660  0.01460  Biso   1.000  H
  H51      1.0000 0.70090  0.13340  0.51460  Biso   1.000  H
  H52      1.0000 0.29910  0.63340  0.98540  Biso   1.000  H
  H53      1.0000 0.23450  0.02150  0.49690  Biso   1.000  H
  H54      1.0000 0.76550  0.52150  0.00310  Biso   1.000  H
  H55      1.0000 0.76550  0.97850  0.50310  Biso   1.000  H
  H56      1.0000 0.23450  0.47850  0.99690  Biso   1.000  H
  H57      1.0000 0.22460  0.82420  0.54450  Biso   1.000  H
  H58      1.0000 0.77540  0.32420  0.95550  Biso   1.000  H
  H59      1.0000 0.77540  0.17580  0.45550  Biso   1.000  H
  H60      1.0000 0.22460  0.67580  0.04450  Biso   1.000  H
  N1       1.0000 0.25440  0.09210  0.67948  Biso   1.000  N
  N2       1.0000 0.74560  0.59210  0.82052  Biso   1.000  N
  N3       1.0000 0.74560  0.90790  0.32052  Biso   1.000  N
  N4       1.0000 0.25440  0.40790  0.17948  Biso   1.000  N
  H61      1.0000 0.23310  0.19650  0.63980  Biso   1.000  H
  H62      1.0000 0.76690  0.69650  0.86020  Biso   1.000  H
  H63      1.0000 0.76690  0.80350  0.36020  Biso   1.000  H
  H64      1.0000 0.23310  0.30350  0.13980  Biso   1.000  H
  C25      1.0000 0.01147  0.36000  0.33817  Biso   1.000  C
  C26      1.0000 0.98853  0.86000  0.16183  Biso   1.000  C
  C27      1.0000 0.98853  0.64000  0.66183  Biso   1.000  C
  C28      1.0000 0.01147  0.14000  0.83817  Biso   1.000  C
  H65      1.0000 0.01580  0.30500  0.27750  Biso   1.000  H
  H66      1.0000 0.98420  0.80500  0.22250  Biso   1.000  H
  H67      1.0000 0.98420  0.69500  0.72250  Biso   1.000  H
  H68      1.0000 0.01580  0.19500  0.77750  Biso   1.000  H
  C29      1.0000 0.95407  0.19580  0.55905  Biso   1.000  C
  C30      1.0000 0.04593  0.69580  0.94095  Biso   1.000  C
  C31      1.0000 0.04593  0.80420  0.44095  Biso   1.000  C
  C32      1.0000 0.95407  0.30420  0.05905  Biso   1.000  C
  H69      1.0000 0.93460  0.08160  0.57970  Biso   1.000  H
  H70      1.0000 0.06540  0.58160  0.92030  Biso   1.000  H
  H71      1.0000 0.06540  0.91840  0.42030  Biso   1.000  H
  H72      1.0000 0.93460  0.41840  0.07970  Biso   1.000  H
  C33      1.0000 0.24899  0.44070  0.53179  Biso   1.000  C
  C34      1.0000 0.75101  0.94070  0.96821  Biso   1.000  C
  C35      1.0000 0.75101  0.55930  0.46821  Biso   1.000  C
  C36      1.0000 0.24899  0.05930  0.03179  Biso   1.000  C
  H73      1.0000 0.24310  0.52000  0.47820  Biso   1.000  H
  H74      1.0000 0.75690  0.02000  0.02180  Biso   1.000  H
  H75      1.0000 0.75690  0.48000  0.52180  Biso   1.000  H
  H76      1.0000 0.24310  0.98000  0.97820  Biso   1.000  H
  C37      1.0000 0.44830  0.69940  0.36399  Biso   1.000  C
  C38      1.0000 0.55170  0.19940  0.13601  Biso   1.000  C
  C39      1.0000 0.55170  0.30060  0.63601  Biso   1.000  C
  C40      1.0000 0.44830  0.80060  0.86399  Biso   1.000  C
  H77      1.0000 0.42750  0.77360  0.31300  Biso   1.000  H
  H78      1.0000 0.57250  0.27360  0.18700  Biso   1.000  H
  H79      1.0000 0.57250  0.22640  0.68700  Biso   1.000  H
  H80      1.0000 0.42750  0.72640  0.81300  Biso   1.000  H
  C41      1.0000 0.49263  0.22520  0.39273  Biso   1.000  C
  C42      1.0000 0.50737  0.72520  0.10727  Biso   1.000  C
  C43      1.0000 0.50737  0.77480  0.60727  Biso   1.000  C
  C44      1.0000 0.49263  0.27480  0.89273  Biso   1.000  C
  H81      1.0000 0.48980  0.12030  0.35260  Biso   1.000  H
  H82      1.0000 0.51020  0.62030  0.14740  Biso   1.000  H
  H83      1.0000 0.51020  0.87970  0.64740  Biso   1.000  H
  H84      1.0000 0.48980  0.37970  0.85260  Biso   1.000  H
  O1       1.0000 0.94874  0.43740  0.35105  Biso   1.000  O
  O2       1.0000 0.05126  0.93740  0.14895  Biso   1.000  O
  O3       1.0000 0.05126  0.56260  0.64895  Biso   1.000  O
  O4       1.0000 0.94874  0.06260  0.85105  Biso   1.000  O
  O5       1.0000 0.90479  0.30680  0.52449  Biso   1.000  O
  O6       1.0000 0.09521  0.80680  0.97551  Biso   1.000  O
  O7       1.0000 0.09521  0.69320  0.47551  Biso   1.000  O
  O8       1.0000 0.90479  0.19320  0.02449  Biso   1.000  O
  O9       1.0000 0.06963  0.34590  0.39564  Biso   1.000  O
  O10      1.0000 0.93037  0.84590  0.10436  Biso   1.000  O
  O11      1.0000 0.93037  0.65410  0.60436  Biso   1.000  O
  O12      1.0000 0.06963  0.15410  0.89564  Biso   1.000  O
  O13      1.0000 0.02584  0.21800  0.56955  Biso   1.000  O
  O14      1.0000 0.97416  0.71800  0.93045  Biso   1.000  O
  O15      1.0000 0.97416  0.78200  0.43045  Biso   1.000  O
  O16      1.0000 0.02584  0.28200  0.06955  Biso   1.000  O
  O17      1.0000 0.18870  0.37349  0.56397  Biso   1.000  O
  O18      1.0000 0.81130  0.87349  0.93603  Biso   1.000  O
  O19      1.0000 0.81130  0.62651  0.43603  Biso   1.000  O
  O20      1.0000 0.18870  0.12651  0.06397  Biso   1.000  O
  O21      1.0000 0.31549  0.40930  0.56600  Biso   1.000  O
  O22      1.0000 0.68451  0.90930  0.93400  Biso   1.000  O
  O23      1.0000 0.68451  0.59070  0.43400  Biso   1.000  O
  O24      1.0000 0.31549  0.09070  0.06600  Biso   1.000  O
  O25      1.0000 0.55409  0.31520  0.39257  Biso   1.000  O
  O26      1.0000 0.44591  0.81520  0.10743  Biso   1.000  O
  O27      1.0000 0.44591  0.68480  0.60743  Biso   1.000  O
  O28      1.0000 0.55409  0.18480  0.89257  Biso   1.000  O
  O29      1.0000 0.52063  0.68490  0.37148  Biso   1.000  O
  O30      1.0000 0.47937  0.18490  0.12852  Biso   1.000  O
  O31      1.0000 0.47937  0.31510  0.62852  Biso   1.000  O
  O32      1.0000 0.52063  0.81510  0.87148  Biso   1.000  O
  O33      1.0000 0.39966  0.62810  0.41551  Biso   1.000  O
  O34      1.0000 0.60034  0.12810  0.08449  Biso   1.000  O
  O35      1.0000 0.60034  0.37190  0.58449  Biso   1.000  O
  O36      1.0000 0.39966  0.87190  0.91551  Biso   1.000  O
  O37      1.0000 0.43424  0.25520  0.43897  Biso   1.000  O
  O38      1.0000 0.56576  0.75520  0.06103  Biso   1.000  O
  O39      1.0000 0.56576  0.74480  0.56103  Biso   1.000  O
  O40      1.0000 0.43424  0.24480  0.93897  Biso   1.000  O
  Cu1      1.0000 0.07218  0.44809  0.52565  Biso   1.000  Cu
  Cu2      1.0000 0.92782  0.94809  0.97435  Biso   1.000  Cu
  Cu3      1.0000 0.92782  0.55191  0.47435  Biso   1.000  Cu
  Cu4      1.0000 0.07218  0.05191  0.02565  Biso   1.000  Cu
  Cu5      1.0000 0.42827  0.46672  0.52594  Biso   1.000  Cu
  Cu6      1.0000 0.57173  0.96672  0.97406  Biso   1.000  Cu
  Cu7      1.0000 0.57173  0.53328  0.47406  Biso   1.000  Cu
  Cu8      1.0000 0.42827  0.03328  0.02594  Biso   1.000  Cu
