data_image0
_cell_length_a       11.0319
_cell_length_b       6.8524
_cell_length_c       7.7018
_cell_angle_alpha    90
_cell_angle_beta     105.444
_cell_angle_gamma    90

_symmetry_space_group_name_H-M    "P 1"
_symmetry_int_tables_number       1

loop_
  _symmetry_equiv_pos_as_xyz
  'x, y, z'

loop_
  _atom_site_label
  _atom_site_occupancy
  _atom_site_fract_x
  _atom_site_fract_y
  _atom_site_fract_z
  _atom_site_thermal_displace_type
  _atom_site_B_iso_or_equiv
  _atom_site_type_symbol
  Cu1      1.0000 0.00000  0.00000  0.00000  Biso   1.000  Cu
  Cu2      1.0000 0.00000  0.50000  0.50000  Biso   1.000  Cu
  Br1      1.0000 0.09330  0.20510  0.25890  Biso   1.000  Br
  Br2      1.0000 0.90670  0.70510  0.24110  Biso   1.000  Br
  Br3      1.0000 0.90670  0.79490  0.74110  Biso   1.000  Br
  Br4      1.0000 0.09330  0.29490  0.75890  Biso   1.000  Br
  N1       1.0000 0.31460  0.60870  0.11500  Biso   1.000  N
  N2       1.0000 0.68540  0.10870  0.38500  Biso   1.000  N
  N3       1.0000 0.68540  0.39130  0.88500  Biso   1.000  N
  N4       1.0000 0.31460  0.89130  0.61500  Biso   1.000  N
  N5       1.0000 0.35420  0.77710  0.05500  Biso   1.000  N
  N6       1.0000 0.64580  0.27710  0.44500  Biso   1.000  N
  N7       1.0000 0.64580  0.22290  0.94500  Biso   1.000  N
  N8       1.0000 0.35420  0.72290  0.55500  Biso   1.000  N
  N9       1.0000 0.28040  0.92440  0.03500  Biso   1.000  N
  N10      1.0000 0.71960  0.42440  0.46500  Biso   1.000  N
  N11      1.0000 0.71960  0.07560  0.96500  Biso   1.000  N
  N12      1.0000 0.28040  0.57560  0.53500  Biso   1.000  N
  N13      1.0000 0.17020  0.84810  0.05200  Biso   1.000  N
  N14      1.0000 0.82980  0.34810  0.44800  Biso   1.000  N
  N15      1.0000 0.82980  0.15190  0.94800  Biso   1.000  N
  N16      1.0000 0.17020  0.65190  0.55200  Biso   1.000  N
  C1       1.0000 0.19470  0.66190  0.07700  Biso   1.000  C
  C2       1.0000 0.80530  0.16190  0.42300  Biso   1.000  C
  C3       1.0000 0.80530  0.33810  0.92300  Biso   1.000  C
  C4       1.0000 0.19470  0.83810  0.57700  Biso   1.000  C
  C5       1.0000 0.37810  0.41710  0.14200  Biso   1.000  C
  C6       1.0000 0.62190  0.91710  0.35800  Biso   1.000  C
  C7       1.0000 0.62190  0.58290  0.85800  Biso   1.000  C
  C8       1.0000 0.37810  0.08290  0.64200  Biso   1.000  C
  H1       1.0000 0.13090  0.57060  0.06790  Biso   1.000  H
  H2       1.0000 0.86910  0.07060  0.43210  Biso   1.000  H
  H3       1.0000 0.86910  0.42940  0.93210  Biso   1.000  H
  H4       1.0000 0.13090  0.92940  0.56790  Biso   1.000  H
  H5       1.0000 0.46730  0.43560  0.16740  Biso   1.000  H
  H6       1.0000 0.53270  0.93560  0.33260  Biso   1.000  H
  H7       1.0000 0.53270  0.56440  0.83260  Biso   1.000  H
  H8       1.0000 0.46730  0.06440  0.66740  Biso   1.000  H
  H9       1.0000 0.34950  0.33980  0.03480  Biso   1.000  H
  H10      1.0000 0.65050  0.83980  0.46520  Biso   1.000  H
  H11      1.0000 0.65050  0.66020  0.96520  Biso   1.000  H
  H12      1.0000 0.34950  0.16020  0.53480  Biso   1.000  H
  H13      1.0000 0.35870  0.35120  0.24120  Biso   1.000  H
  H14      1.0000 0.64130  0.85120  0.25880  Biso   1.000  H
  H15      1.0000 0.64130  0.64880  0.75880  Biso   1.000  H
  H16      1.0000 0.35870  0.14880  0.74120  Biso   1.000  H
