data_image0
_cell_length_a       11.4032
_cell_length_b       11.4032
_cell_length_c       15.5873
_cell_angle_alpha    90
_cell_angle_beta     90
_cell_angle_gamma    90

_symmetry_space_group_name_H-M    "P 1"
_symmetry_int_tables_number       1

loop_
  _symmetry_equiv_pos_as_xyz
  'x, y, z'

loop_
  _atom_site_label
  _atom_site_occupancy
  _atom_site_fract_x
  _atom_site_fract_y
  _atom_site_fract_z
  _atom_site_thermal_displace_type
  _atom_site_B_iso_or_equiv
  _atom_site_type_symbol
  Sn1      1.0000 0.25000  0.25000  0.31381  Biso   1.000  Sn
  Sn2      1.0000 0.75000  0.75000  0.18619  Biso   1.000  Sn
  Sn3      1.0000 0.75000  0.75000  0.68619  Biso   1.000  Sn
  Sn4      1.0000 0.25000  0.25000  0.81381  Biso   1.000  Sn
  F1       1.0000 0.39150  0.34650  0.31086  Biso   1.000  F
  F2       1.0000 0.10850  0.15350  0.31086  Biso   1.000  F
  F3       1.0000 0.15350  0.39150  0.31086  Biso   1.000  F
  F4       1.0000 0.34650  0.10850  0.31086  Biso   1.000  F
  F5       1.0000 0.60850  0.84650  0.18914  Biso   1.000  F
  F6       1.0000 0.89150  0.65350  0.18914  Biso   1.000  F
  F7       1.0000 0.84650  0.89150  0.18914  Biso   1.000  F
  F8       1.0000 0.65350  0.60850  0.18914  Biso   1.000  F
  F9       1.0000 0.60850  0.65350  0.68914  Biso   1.000  F
  F10      1.0000 0.89150  0.84650  0.68914  Biso   1.000  F
  F11      1.0000 0.84650  0.60850  0.68914  Biso   1.000  F
  F12      1.0000 0.65350  0.89150  0.68914  Biso   1.000  F
  F13      1.0000 0.39150  0.15350  0.81086  Biso   1.000  F
  F14      1.0000 0.10850  0.34650  0.81086  Biso   1.000  F
  F15      1.0000 0.15350  0.10850  0.81086  Biso   1.000  F
  F16      1.0000 0.34650  0.39150  0.81086  Biso   1.000  F
  F17      1.0000 0.25000  0.25000  0.43840  Biso   1.000  F
  F18      1.0000 0.75000  0.75000  0.06160  Biso   1.000  F
  F19      1.0000 0.75000  0.75000  0.56160  Biso   1.000  F
  F20      1.0000 0.25000  0.25000  0.93840  Biso   1.000  F
  F21      1.0000 0.25000  0.25000  0.18840  Biso   1.000  F
  F22      1.0000 0.75000  0.75000  0.31160  Biso   1.000  F
  F23      1.0000 0.75000  0.75000  0.81160  Biso   1.000  F
  F24      1.0000 0.25000  0.25000  0.68840  Biso   1.000  F
  Cu1      1.0000 0.75000  0.25000  0.25000  Biso   1.000  Cu
  Cu2      1.0000 0.25000  0.75000  0.25000  Biso   1.000  Cu
  Cu3      1.0000 0.25000  0.75000  0.75000  Biso   1.000  Cu
  Cu4      1.0000 0.75000  0.25000  0.75000  Biso   1.000  Cu
  O1       1.0000 0.60350  0.39650  0.25000  Biso   1.000  O
  O2       1.0000 0.89650  0.10350  0.25000  Biso   1.000  O
  O3       1.0000 0.10350  0.60350  0.25000  Biso   1.000  O
  O4       1.0000 0.39650  0.89650  0.25000  Biso   1.000  O
  O5       1.0000 0.39650  0.60350  0.75000  Biso   1.000  O
  O6       1.0000 0.10350  0.89650  0.75000  Biso   1.000  O
  O7       1.0000 0.89650  0.39650  0.75000  Biso   1.000  O
  O8       1.0000 0.60350  0.10350  0.75000  Biso   1.000  O
  H1       1.0000 0.60757  0.46497  0.23181  Biso   1.000  H
  H2       1.0000 0.89243  0.03503  0.23181  Biso   1.000  H
  H3       1.0000 0.03503  0.60757  0.23181  Biso   1.000  H
  H4       1.0000 0.46497  0.89243  0.23181  Biso   1.000  H
  H5       1.0000 0.39243  0.96497  0.26819  Biso   1.000  H
  H6       1.0000 0.10757  0.53503  0.26819  Biso   1.000  H
  H7       1.0000 0.96497  0.10757  0.26819  Biso   1.000  H
  H8       1.0000 0.53503  0.39243  0.26819  Biso   1.000  H
  H9       1.0000 0.39243  0.53503  0.76819  Biso   1.000  H
  H10      1.0000 0.10757  0.96497  0.76819  Biso   1.000  H
  H11      1.0000 0.96497  0.39243  0.76819  Biso   1.000  H
  H12      1.0000 0.53503  0.10757  0.76819  Biso   1.000  H
  H13      1.0000 0.60757  0.03503  0.73181  Biso   1.000  H
  H14      1.0000 0.89243  0.46497  0.73181  Biso   1.000  H
  H15      1.0000 0.03503  0.89243  0.73181  Biso   1.000  H
  H16      1.0000 0.46497  0.60757  0.73181  Biso   1.000  H
  N1       1.0000 0.83970  0.34130  0.34171  Biso   1.000  N
  N2       1.0000 0.66030  0.15870  0.34171  Biso   1.000  N
  N3       1.0000 0.15870  0.83970  0.34171  Biso   1.000  N
  N4       1.0000 0.34130  0.66030  0.34171  Biso   1.000  N
  N5       1.0000 0.16030  0.84130  0.15829  Biso   1.000  N
  N6       1.0000 0.33970  0.65870  0.15829  Biso   1.000  N
  N7       1.0000 0.84130  0.33970  0.15829  Biso   1.000  N
  N8       1.0000 0.65870  0.16030  0.15829  Biso   1.000  N
  N9       1.0000 0.16030  0.65870  0.65829  Biso   1.000  N
  N10      1.0000 0.33970  0.84130  0.65829  Biso   1.000  N
  N11      1.0000 0.84130  0.16030  0.65829  Biso   1.000  N
  N12      1.0000 0.65870  0.33970  0.65829  Biso   1.000  N
  N13      1.0000 0.83970  0.15870  0.84171  Biso   1.000  N
  N14      1.0000 0.66030  0.34130  0.84171  Biso   1.000  N
  N15      1.0000 0.15870  0.66030  0.84171  Biso   1.000  N
  N16      1.0000 0.34130  0.83970  0.84171  Biso   1.000  N
  C1       1.0000 0.84180  0.45970  0.34330  Biso   1.000  C
  C2       1.0000 0.65820  0.04030  0.34330  Biso   1.000  C
  C3       1.0000 0.04030  0.84180  0.34330  Biso   1.000  C
  C4       1.0000 0.45970  0.65820  0.34330  Biso   1.000  C
  C5       1.0000 0.15820  0.95970  0.15670  Biso   1.000  C
  C6       1.0000 0.34180  0.54030  0.15670  Biso   1.000  C
  C7       1.0000 0.95970  0.34180  0.15670  Biso   1.000  C
  C8       1.0000 0.54030  0.15820  0.15670  Biso   1.000  C
  C9       1.0000 0.15820  0.54030  0.65670  Biso   1.000  C
  C10      1.0000 0.34180  0.95970  0.65670  Biso   1.000  C
  C11      1.0000 0.95970  0.15820  0.65670  Biso   1.000  C
  C12      1.0000 0.54030  0.34180  0.65670  Biso   1.000  C
  C13      1.0000 0.84180  0.04030  0.84330  Biso   1.000  C
  C14      1.0000 0.65820  0.45970  0.84330  Biso   1.000  C
  C15      1.0000 0.04030  0.65820  0.84330  Biso   1.000  C
  C16      1.0000 0.45970  0.84180  0.84330  Biso   1.000  C
  H17      1.0000 0.80037  0.49958  0.30098  Biso   1.000  H
  H18      1.0000 0.69963  0.00042  0.30098  Biso   1.000  H
  H19      1.0000 0.00042  0.80037  0.30098  Biso   1.000  H
  H20      1.0000 0.49958  0.69963  0.30098  Biso   1.000  H
  H21      1.0000 0.19963  0.99958  0.19902  Biso   1.000  H
  H22      1.0000 0.30037  0.50042  0.19902  Biso   1.000  H
  H23      1.0000 0.99958  0.30037  0.19902  Biso   1.000  H
  H24      1.0000 0.50042  0.19963  0.19902  Biso   1.000  H
  H25      1.0000 0.19963  0.50042  0.69902  Biso   1.000  H
  H26      1.0000 0.30037  0.99958  0.69902  Biso   1.000  H
  H27      1.0000 0.99958  0.19963  0.69902  Biso   1.000  H
  H28      1.0000 0.50042  0.30037  0.69902  Biso   1.000  H
  H29      1.0000 0.80037  0.00042  0.80098  Biso   1.000  H
  H30      1.0000 0.69963  0.49958  0.80098  Biso   1.000  H
  H31      1.0000 0.00042  0.69963  0.80098  Biso   1.000  H
  H32      1.0000 0.49958  0.80037  0.80098  Biso   1.000  H
  C17      1.0000 0.90080  0.52480  0.40290  Biso   1.000  C
  C18      1.0000 0.59920  0.97520  0.40290  Biso   1.000  C
  C19      1.0000 0.97520  0.90080  0.40290  Biso   1.000  C
  C20      1.0000 0.52480  0.59920  0.40290  Biso   1.000  C
  C21      1.0000 0.09920  0.02480  0.09710  Biso   1.000  C
  C22      1.0000 0.40080  0.47520  0.09710  Biso   1.000  C
  C23      1.0000 0.02480  0.40080  0.09710  Biso   1.000  C
  C24      1.0000 0.47520  0.09920  0.09710  Biso   1.000  C
  C25      1.0000 0.09920  0.47520  0.59710  Biso   1.000  C
  C26      1.0000 0.40080  0.02480  0.59710  Biso   1.000  C
  C27      1.0000 0.02480  0.09920  0.59710  Biso   1.000  C
  C28      1.0000 0.47520  0.40080  0.59710  Biso   1.000  C
  C29      1.0000 0.90080  0.97520  0.90290  Biso   1.000  C
  C30      1.0000 0.59920  0.52480  0.90290  Biso   1.000  C
  C31      1.0000 0.97520  0.59920  0.90290  Biso   1.000  C
  C32      1.0000 0.52480  0.90080  0.90290  Biso   1.000  C
  H33      1.0000 0.89741  0.60626  0.40140  Biso   1.000  H
  H34      1.0000 0.60259  0.89374  0.40140  Biso   1.000  H
  H35      1.0000 0.89374  0.89741  0.40140  Biso   1.000  H
  H36      1.0000 0.60626  0.60259  0.40140  Biso   1.000  H
  H37      1.0000 0.10259  0.10626  0.09860  Biso   1.000  H
  H38      1.0000 0.39741  0.39374  0.09860  Biso   1.000  H
  H39      1.0000 0.10626  0.39741  0.09860  Biso   1.000  H
  H40      1.0000 0.39374  0.10259  0.09860  Biso   1.000  H
  H41      1.0000 0.10259  0.39374  0.59860  Biso   1.000  H
  H42      1.0000 0.39741  0.10626  0.59860  Biso   1.000  H
  H43      1.0000 0.10626  0.10259  0.59860  Biso   1.000  H
  H44      1.0000 0.39374  0.39741  0.59860  Biso   1.000  H
  H45      1.0000 0.89741  0.89374  0.90140  Biso   1.000  H
  H46      1.0000 0.60259  0.60626  0.90140  Biso   1.000  H
  H47      1.0000 0.89374  0.60259  0.90140  Biso   1.000  H
  H48      1.0000 0.60626  0.89741  0.90140  Biso   1.000  H
  C33      1.0000 0.96680  0.46730  0.46670  Biso   1.000  C
  C34      1.0000 0.53320  0.03270  0.46670  Biso   1.000  C
  C35      1.0000 0.03270  0.96680  0.46670  Biso   1.000  C
  C36      1.0000 0.46730  0.53320  0.46670  Biso   1.000  C
  C37      1.0000 0.03320  0.96730  0.03330  Biso   1.000  C
  C38      1.0000 0.46680  0.53270  0.03330  Biso   1.000  C
  C39      1.0000 0.96730  0.46680  0.03330  Biso   1.000  C
  C40      1.0000 0.53270  0.03320  0.03330  Biso   1.000  C
  C41      1.0000 0.03320  0.53270  0.53330  Biso   1.000  C
  C42      1.0000 0.46680  0.96730  0.53330  Biso   1.000  C
  C43      1.0000 0.96730  0.03320  0.53330  Biso   1.000  C
  C44      1.0000 0.53270  0.46680  0.53330  Biso   1.000  C
  C45      1.0000 0.96680  0.03270  0.96670  Biso   1.000  C
  C46      1.0000 0.53320  0.46730  0.96670  Biso   1.000  C
  C47      1.0000 0.03270  0.53320  0.96670  Biso   1.000  C
  C48      1.0000 0.46730  0.96680  0.96670  Biso   1.000  C
  C49      1.0000 0.96750  0.34540  0.46370  Biso   1.000  C
  C50      1.0000 0.53250  0.15460  0.46370  Biso   1.000  C
  C51      1.0000 0.15460  0.96750  0.46370  Biso   1.000  C
  C52      1.0000 0.34540  0.53250  0.46370  Biso   1.000  C
  C53      1.0000 0.03250  0.84540  0.03630  Biso   1.000  C
  C54      1.0000 0.46750  0.65460  0.03630  Biso   1.000  C
  C55      1.0000 0.84540  0.46750  0.03630  Biso   1.000  C
  C56      1.0000 0.65460  0.03250  0.03630  Biso   1.000  C
  C57      1.0000 0.03250  0.65460  0.53630  Biso   1.000  C
  C58      1.0000 0.46750  0.84540  0.53630  Biso   1.000  C
  C59      1.0000 0.84540  0.03250  0.53630  Biso   1.000  C
  C60      1.0000 0.65460  0.46750  0.53630  Biso   1.000  C
  C61      1.0000 0.96750  0.15460  0.96370  Biso   1.000  C
  C62      1.0000 0.53250  0.34540  0.96370  Biso   1.000  C
  C63      1.0000 0.15460  0.53250  0.96370  Biso   1.000  C
  C64      1.0000 0.34540  0.96750  0.96370  Biso   1.000  C
  H49      1.0000 0.01144  0.30276  0.50311  Biso   1.000  H
  H50      1.0000 0.48856  0.19724  0.50311  Biso   1.000  H
  H51      1.0000 0.19724  0.01144  0.50311  Biso   1.000  H
  H52      1.0000 0.30276  0.48856  0.50311  Biso   1.000  H
  H53      1.0000 0.98856  0.80276  0.99689  Biso   1.000  H
  H54      1.0000 0.51144  0.69724  0.99689  Biso   1.000  H
  H55      1.0000 0.80276  0.51144  0.99689  Biso   1.000  H
  H56      1.0000 0.69724  0.98856  0.99689  Biso   1.000  H
  H57      1.0000 0.98856  0.69724  0.49689  Biso   1.000  H
  H58      1.0000 0.51144  0.80276  0.49689  Biso   1.000  H
  H59      1.0000 0.80276  0.98856  0.49689  Biso   1.000  H
  H60      1.0000 0.69724  0.51144  0.49689  Biso   1.000  H
  H61      1.0000 0.01144  0.19724  0.00311  Biso   1.000  H
  H62      1.0000 0.48856  0.30276  0.00311  Biso   1.000  H
  H63      1.0000 0.19724  0.48856  0.00311  Biso   1.000  H
  H64      1.0000 0.30276  0.01144  0.00311  Biso   1.000  H
  C65      1.0000 0.90220  0.28750  0.40140  Biso   1.000  C
  C66      1.0000 0.59780  0.21250  0.40140  Biso   1.000  C
  C67      1.0000 0.21250  0.90220  0.40140  Biso   1.000  C
  C68      1.0000 0.28750  0.59780  0.40140  Biso   1.000  C
  C69      1.0000 0.09780  0.78750  0.09860  Biso   1.000  C
  C70      1.0000 0.40220  0.71250  0.09860  Biso   1.000  C
  C71      1.0000 0.78750  0.40220  0.09860  Biso   1.000  C
  C72      1.0000 0.71250  0.09780  0.09860  Biso   1.000  C
  C73      1.0000 0.09780  0.71250  0.59860  Biso   1.000  C
  C74      1.0000 0.40220  0.78750  0.59860  Biso   1.000  C
  C75      1.0000 0.78750  0.09780  0.59860  Biso   1.000  C
  C76      1.0000 0.71250  0.40220  0.59860  Biso   1.000  C
  C77      1.0000 0.90220  0.21250  0.90140  Biso   1.000  C
  C78      1.0000 0.59780  0.28750  0.90140  Biso   1.000  C
  C79      1.0000 0.21250  0.59780  0.90140  Biso   1.000  C
  C80      1.0000 0.28750  0.90220  0.90140  Biso   1.000  C
  H65      1.0000 0.90240  0.20599  0.40171  Biso   1.000  H
  H66      1.0000 0.59760  0.29401  0.40171  Biso   1.000  H
  H67      1.0000 0.29401  0.90240  0.40171  Biso   1.000  H
  H68      1.0000 0.20599  0.59760  0.40171  Biso   1.000  H
  H69      1.0000 0.09760  0.70599  0.09829  Biso   1.000  H
  H70      1.0000 0.40240  0.79401  0.09829  Biso   1.000  H
  H71      1.0000 0.70599  0.40240  0.09829  Biso   1.000  H
  H72      1.0000 0.79401  0.09760  0.09829  Biso   1.000  H
  H73      1.0000 0.09760  0.79401  0.59829  Biso   1.000  H
  H74      1.0000 0.40240  0.70599  0.59829  Biso   1.000  H
  H75      1.0000 0.70599  0.09760  0.59829  Biso   1.000  H
  H76      1.0000 0.79401  0.40240  0.59829  Biso   1.000  H
  H77      1.0000 0.90240  0.29401  0.90171  Biso   1.000  H
  H78      1.0000 0.59760  0.20599  0.90171  Biso   1.000  H
  H79      1.0000 0.29401  0.59760  0.90171  Biso   1.000  H
  H80      1.0000 0.20599  0.90240  0.90171  Biso   1.000  H
  H81      1.0000 0.53323  0.38665  0.27602  Biso   1.000  H
  H82      1.0000 0.96677  0.11335  0.27602  Biso   1.000  H
  H83      1.0000 0.11335  0.53323  0.27602  Biso   1.000  H
  H84      1.0000 0.38665  0.96677  0.27602  Biso   1.000  H
  H85      1.0000 0.46677  0.88665  0.22398  Biso   1.000  H
  H86      1.0000 0.03323  0.61335  0.22398  Biso   1.000  H
  H87      1.0000 0.88665  0.03323  0.22398  Biso   1.000  H
  H88      1.0000 0.61335  0.46677  0.22398  Biso   1.000  H
  H89      1.0000 0.46677  0.61335  0.72398  Biso   1.000  H
  H90      1.0000 0.03323  0.88665  0.72398  Biso   1.000  H
  H91      1.0000 0.88665  0.46677  0.72398  Biso   1.000  H
  H92      1.0000 0.61335  0.03323  0.72398  Biso   1.000  H
  H93      1.0000 0.53323  0.11335  0.77602  Biso   1.000  H
  H94      1.0000 0.96677  0.38665  0.77602  Biso   1.000  H
  H95      1.0000 0.11335  0.96677  0.77602  Biso   1.000  H
  H96      1.0000 0.38665  0.53323  0.77602  Biso   1.000  H
