data_image0
_cell_length_a       10.812
_cell_length_b       7.577
_cell_length_c       7.412
_cell_angle_alpha    90
_cell_angle_beta     92.34
_cell_angle_gamma    90

_symmetry_space_group_name_H-M    "P 1"
_symmetry_int_tables_number       1

loop_
  _symmetry_equiv_pos_as_xyz
  'x, y, z'

loop_
  _atom_site_label
  _atom_site_occupancy
  _atom_site_fract_x
  _atom_site_fract_y
  _atom_site_fract_z
  _atom_site_thermal_displace_type
  _atom_site_B_iso_or_equiv
  _atom_site_type_symbol
  Cu1      1.0000 0.96510  0.18970  0.43470  Biso   1.000  Cu
  Cu2      1.0000 0.03490  0.68970  0.06530  Biso   1.000  Cu
  Cu3      1.0000 0.03490  0.81030  0.56530  Biso   1.000  Cu
  Cu4      1.0000 0.96510  0.31030  0.93470  Biso   1.000  Cu
  P1       1.0000 0.12750  0.44390  0.65800  Biso   1.000  P
  P2       1.0000 0.87250  0.94390  0.84200  Biso   1.000  P
  P3       1.0000 0.87250  0.55610  0.34200  Biso   1.000  P
  P4       1.0000 0.12750  0.05610  0.15800  Biso   1.000  P
  O1       1.0000 0.05480  0.49730  0.82340  Biso   1.000  O
  O2       1.0000 0.94520  0.99730  0.67660  Biso   1.000  O
  O3       1.0000 0.94520  0.50270  0.17660  Biso   1.000  O
  O4       1.0000 0.05480  0.00270  0.32340  Biso   1.000  O
  O5       1.0000 0.10070  0.25670  0.55620  Biso   1.000  O
  O6       1.0000 0.89930  0.75670  0.94380  Biso   1.000  O
  O7       1.0000 0.89930  0.74330  0.44380  Biso   1.000  O
  O8       1.0000 0.10070  0.24330  0.05620  Biso   1.000  O
  O9       1.0000 0.12140  0.59880  0.51400  Biso   1.000  O
  O10      1.0000 0.87860  0.09880  0.98600  Biso   1.000  O
  O11      1.0000 0.87860  0.40120  0.48600  Biso   1.000  O
  O12      1.0000 0.12140  0.90120  0.01400  Biso   1.000  O
  O13      1.0000 0.82270  0.07050  0.32020  Biso   1.000  O
  O14      1.0000 0.17730  0.57050  0.17980  Biso   1.000  O
  O15      1.0000 0.17730  0.92950  0.67980  Biso   1.000  O
  O16      1.0000 0.82270  0.42950  0.82020  Biso   1.000  O
  C1       1.0000 0.28630  0.44590  0.71740  Biso   1.000  C
  C2       1.0000 0.71370  0.94590  0.78260  Biso   1.000  C
  C3       1.0000 0.71370  0.55410  0.28260  Biso   1.000  C
  C4       1.0000 0.28630  0.05410  0.21740  Biso   1.000  C
  C5       1.0000 0.40500  0.47460  0.64330  Biso   1.000  C
  C6       1.0000 0.59500  0.97460  0.85670  Biso   1.000  C
  C7       1.0000 0.59500  0.52540  0.35670  Biso   1.000  C
  C8       1.0000 0.40500  0.02540  0.14330  Biso   1.000  C
  C9       1.0000 0.41640  0.64050  0.53500  Biso   1.000  C
  C10      1.0000 0.58360  0.14050  0.96500  Biso   1.000  C
  C11      1.0000 0.58360  0.35950  0.46500  Biso   1.000  C
  C12      1.0000 0.41640  0.85950  0.03500  Biso   1.000  C
  C13      1.0000 0.46470  0.33530  0.54970  Biso   1.000  C
  C14      1.0000 0.53530  0.83530  0.95030  Biso   1.000  C
  C15      1.0000 0.53530  0.66470  0.45030  Biso   1.000  C
  C16      1.0000 0.46470  0.16470  0.04970  Biso   1.000  C
