data_image0
_cell_length_a       13.342
_cell_length_b       11.016
_cell_length_c       16.404
_cell_angle_alpha    90
_cell_angle_beta     91.862
_cell_angle_gamma    90

_symmetry_space_group_name_H-M    "P 1"
_symmetry_int_tables_number       1

loop_
  _symmetry_equiv_pos_as_xyz
  'x, y, z'

loop_
  _atom_site_label
  _atom_site_occupancy
  _atom_site_fract_x
  _atom_site_fract_y
  _atom_site_fract_z
  _atom_site_thermal_displace_type
  _atom_site_B_iso_or_equiv
  _atom_site_type_symbol
  O1       1.0000 0.69780  0.24520  0.06530  Biso   1.000  O
  O2       1.0000 0.30220  0.74520  0.43470  Biso   1.000  O
  O3       1.0000 0.30220  0.75480  0.93470  Biso   1.000  O
  O4       1.0000 0.69780  0.25480  0.56530  Biso   1.000  O
  O5       1.0000 0.00000  0.00000  0.50000  Biso   1.000  O
  O6       1.0000 0.00000  0.50000  0.00000  Biso   1.000  O
  O7       1.0000 0.52370  0.37570  0.99970  Biso   1.000  O
  O8       1.0000 0.47630  0.87570  0.50030  Biso   1.000  O
  O9       1.0000 0.47630  0.62430  0.00030  Biso   1.000  O
  O10      1.0000 0.52370  0.12430  0.49970  Biso   1.000  O
  Cu1      1.0000 0.84071  0.37011  0.03858  Biso   1.000  Cu
  Cu2      1.0000 0.15929  0.87011  0.46142  Biso   1.000  Cu
  Cu3      1.0000 0.15929  0.62989  0.96142  Biso   1.000  Cu
  Cu4      1.0000 0.84071  0.12989  0.53858  Biso   1.000  Cu
  O11      1.0000 0.19370  0.72280  0.29544  Biso   1.000  O
  O12      1.0000 0.80630  0.22280  0.20456  Biso   1.000  O
  O13      1.0000 0.80630  0.27720  0.70456  Biso   1.000  O
  O14      1.0000 0.19370  0.77720  0.79544  Biso   1.000  O
  N1       1.0000 0.79839  0.51160  0.10820  Biso   1.000  N
  N2       1.0000 0.20161  0.01160  0.39180  Biso   1.000  N
  N3       1.0000 0.20161  0.48840  0.89180  Biso   1.000  N
  N4       1.0000 0.79839  0.98840  0.60820  Biso   1.000  N
  C1       1.0000 0.10520  0.74660  0.31020  Biso   1.000  C
  C2       1.0000 0.89480  0.24660  0.18980  Biso   1.000  C
  C3       1.0000 0.89480  0.25340  0.68980  Biso   1.000  C
  C4       1.0000 0.10520  0.75340  0.81020  Biso   1.000  C
  Cu5      1.0000 0.50000  0.00000  0.00000  Biso   1.000  Cu
  Cu6      1.0000 0.50000  0.50000  0.50000  Biso   1.000  Cu
  O15      1.0000 0.07682  0.80870  0.36899  Biso   1.000  O
  O16      1.0000 0.92318  0.30870  0.13101  Biso   1.000  O
  O17      1.0000 0.92318  0.19130  0.63101  Biso   1.000  O
  O18      1.0000 0.07682  0.69130  0.86899  Biso   1.000  O
  N5       1.0000 0.90626  0.24150  0.96999  Biso   1.000  N
  N6       1.0000 0.09374  0.74150  0.53001  Biso   1.000  N
  N7       1.0000 0.09374  0.75850  0.03001  Biso   1.000  N
  N8       1.0000 0.90626  0.25850  0.46999  Biso   1.000  N
  C5       1.0000 0.02480  0.69660  0.25360  Biso   1.000  C
  C6       1.0000 0.97520  0.19660  0.24640  Biso   1.000  C
  C7       1.0000 0.97520  0.30340  0.74640  Biso   1.000  C
  C8       1.0000 0.02480  0.80340  0.75360  Biso   1.000  C
  O19      1.0000 0.35363  0.01200  0.98999  Biso   1.000  O
  O20      1.0000 0.64637  0.51200  0.51001  Biso   1.000  O
  O21      1.0000 0.64637  0.98800  0.01001  Biso   1.000  O
  O22      1.0000 0.35363  0.48800  0.48999  Biso   1.000  O
  N9       1.0000 0.49268  0.94060  0.11537  Biso   1.000  N
  N10      1.0000 0.50732  0.44060  0.38463  Biso   1.000  N
  N11      1.0000 0.50732  0.05940  0.88463  Biso   1.000  N
  N12      1.0000 0.49268  0.55940  0.61537  Biso   1.000  N
  C9       1.0000 0.92750  0.71480  0.26220  Biso   1.000  C
  C10      1.0000 0.07250  0.21480  0.23780  Biso   1.000  C
  C11      1.0000 0.07250  0.28520  0.73780  Biso   1.000  C
  C12      1.0000 0.92750  0.78520  0.76220  Biso   1.000  C
  O23      1.0000 0.39470  0.19300  0.03930  Biso   1.000  O
  O24      1.0000 0.60530  0.69300  0.46070  Biso   1.000  O
  O25      1.0000 0.60530  0.80700  0.96070  Biso   1.000  O
  O26      1.0000 0.39470  0.30700  0.53930  Biso   1.000  O
  C13      1.0000 0.84750  0.65950  0.21018  Biso   1.000  C
  C14      1.0000 0.15250  0.15950  0.28982  Biso   1.000  C
  C15      1.0000 0.15250  0.34050  0.78982  Biso   1.000  C
  C16      1.0000 0.84750  0.84050  0.71018  Biso   1.000  C
  C17      1.0000 0.74830  0.69590  0.21400  Biso   1.000  C
  C18      1.0000 0.25170  0.19590  0.28600  Biso   1.000  C
  C19      1.0000 0.25170  0.30410  0.78600  Biso   1.000  C
  C20      1.0000 0.74830  0.80410  0.71400  Biso   1.000  C
  H1       1.0000 0.73000  0.75740  0.25120  Biso   1.000  H
  H2       1.0000 0.27000  0.25740  0.24880  Biso   1.000  H
  H3       1.0000 0.27000  0.24260  0.74880  Biso   1.000  H
  H4       1.0000 0.73000  0.74260  0.75120  Biso   1.000  H
  O27      1.0000 0.88290  0.99400  0.37120  Biso   1.000  O
  O28      1.0000 0.11710  0.49400  0.12880  Biso   1.000  O
  O29      1.0000 0.11710  0.00600  0.62880  Biso   1.000  O
  O30      1.0000 0.88290  0.50600  0.87120  Biso   1.000  O
  C21      1.0000 0.67550  0.64200  0.16300  Biso   1.000  C
  C22      1.0000 0.32450  0.14200  0.33700  Biso   1.000  C
  C23      1.0000 0.32450  0.35800  0.83700  Biso   1.000  C
  C24      1.0000 0.67550  0.85800  0.66300  Biso   1.000  C
  H5       1.0000 0.60760  0.66770  0.16440  Biso   1.000  H
  H6       1.0000 0.39240  0.16770  0.33560  Biso   1.000  H
  H7       1.0000 0.39240  0.33230  0.83560  Biso   1.000  H
  H8       1.0000 0.60760  0.83230  0.66440  Biso   1.000  H
  C25      1.0000 0.70300  0.55130  0.11070  Biso   1.000  C
  C26      1.0000 0.29700  0.05130  0.38930  Biso   1.000  C
  C27      1.0000 0.29700  0.44870  0.88930  Biso   1.000  C
  C28      1.0000 0.70300  0.94870  0.61070  Biso   1.000  C
  H9       1.0000 0.65340  0.51560  0.07540  Biso   1.000  H
  H10      1.0000 0.34660  0.01560  0.42460  Biso   1.000  H
  H11      1.0000 0.34660  0.48440  0.92460  Biso   1.000  H
  H12      1.0000 0.65340  0.98440  0.57540  Biso   1.000  H
  C29      1.0000 0.86850  0.56520  0.15640  Biso   1.000  C
  C30      1.0000 0.13150  0.06520  0.34360  Biso   1.000  C
  C31      1.0000 0.13150  0.43480  0.84360  Biso   1.000  C
  C32      1.0000 0.86850  0.93480  0.65640  Biso   1.000  C
  H13      1.0000 0.93580  0.53750  0.15380  Biso   1.000  H
  H14      1.0000 0.06420  0.03750  0.34620  Biso   1.000  H
  H15      1.0000 0.06420  0.46250  0.84620  Biso   1.000  H
  H16      1.0000 0.93580  0.96250  0.65380  Biso   1.000  H
  C33      1.0000 0.33190  0.12100  0.01200  Biso   1.000  C
  C34      1.0000 0.66810  0.62100  0.48800  Biso   1.000  C
  C35      1.0000 0.66810  0.87900  0.98800  Biso   1.000  C
  C36      1.0000 0.33190  0.37900  0.51200  Biso   1.000  C
  C37      1.0000 0.22460  0.15880  0.00020  Biso   1.000  C
  C38      1.0000 0.77540  0.65880  0.49980  Biso   1.000  C
  C39      1.0000 0.77540  0.84120  0.99980  Biso   1.000  C
  C40      1.0000 0.22460  0.34120  0.50020  Biso   1.000  C
  C41      1.0000 0.15790  0.09290  0.95800  Biso   1.000  C
  C42      1.0000 0.84210  0.59290  0.54200  Biso   1.000  C
  C43      1.0000 0.84210  0.90710  0.04200  Biso   1.000  C
  C44      1.0000 0.15790  0.40710  0.45800  Biso   1.000  C
  C45      1.0000 0.05090  0.12180  0.94100  Biso   1.000  C
  C46      1.0000 0.94910  0.62180  0.55900  Biso   1.000  C
  C47      1.0000 0.94910  0.87820  0.05900  Biso   1.000  C
  C48      1.0000 0.05090  0.37820  0.44100  Biso   1.000  C
  C49      1.0000 0.99440  0.05770  0.88360  Biso   1.000  C
  C50      1.0000 0.00560  0.55770  0.61640  Biso   1.000  C
  C51      1.0000 0.00560  0.94230  0.11640  Biso   1.000  C
  C52      1.0000 0.99440  0.44230  0.38360  Biso   1.000  C
  H17      1.0000 0.02420  0.99360  0.85410  Biso   1.000  H
  H18      1.0000 0.97580  0.49360  0.64590  Biso   1.000  H
  H19      1.0000 0.97580  0.00640  0.14590  Biso   1.000  H
  H20      1.0000 0.02420  0.50640  0.35410  Biso   1.000  H
  C53      1.0000 0.89470  0.08660  0.86900  Biso   1.000  C
  C54      1.0000 0.10530  0.58660  0.63100  Biso   1.000  C
  C55      1.0000 0.10530  0.91340  0.13100  Biso   1.000  C
  C56      1.0000 0.89470  0.41340  0.36900  Biso   1.000  C
  H21      1.0000 0.85510  0.04280  0.82990  Biso   1.000  H
  H22      1.0000 0.14490  0.54280  0.67010  Biso   1.000  H
  H23      1.0000 0.14490  0.95720  0.17010  Biso   1.000  H
  H24      1.0000 0.85510  0.45720  0.32990  Biso   1.000  H
  C57      1.0000 0.85360  0.18060  0.91270  Biso   1.000  C
  C58      1.0000 0.14640  0.68060  0.58730  Biso   1.000  C
  C59      1.0000 0.14640  0.81940  0.08730  Biso   1.000  C
  C60      1.0000 0.85360  0.31940  0.41270  Biso   1.000  C
  H25      1.0000 0.78570  0.20270  0.90150  Biso   1.000  H
  H26      1.0000 0.21430  0.70270  0.59850  Biso   1.000  H
  H27      1.0000 0.21430  0.79730  0.09850  Biso   1.000  H
  H28      1.0000 0.78570  0.29730  0.40150  Biso   1.000  H
  C61      1.0000 0.00330  0.21240  0.98388  Biso   1.000  C
  C62      1.0000 0.99670  0.71240  0.51612  Biso   1.000  C
  C63      1.0000 0.99670  0.78760  0.01612  Biso   1.000  C
  C64      1.0000 0.00330  0.28760  0.48388  Biso   1.000  C
  H29      1.0000 0.04060  0.25550  0.02480  Biso   1.000  H
  H30      1.0000 0.95940  0.75550  0.47520  Biso   1.000  H
  H31      1.0000 0.95940  0.74450  0.97520  Biso   1.000  H
  H32      1.0000 0.04060  0.24450  0.52480  Biso   1.000  H
  C65      1.0000 0.72030  0.99160  0.31240  Biso   1.000  C
  C66      1.0000 0.27970  0.49160  0.18760  Biso   1.000  C
  C67      1.0000 0.27970  0.00840  0.68760  Biso   1.000  C
  C68      1.0000 0.72030  0.50840  0.81240  Biso   1.000  C
  C69      1.0000 0.62960  0.97590  0.31830  Biso   1.000  C
  C70      1.0000 0.37040  0.47590  0.18170  Biso   1.000  C
  C71      1.0000 0.37040  0.02410  0.68170  Biso   1.000  C
  C72      1.0000 0.62960  0.52410  0.81830  Biso   1.000  C
  C73      1.0000 0.55410  0.93790  0.25490  Biso   1.000  C
  C74      1.0000 0.44590  0.43790  0.24510  Biso   1.000  C
  C75      1.0000 0.44590  0.06210  0.74510  Biso   1.000  C
  C76      1.0000 0.55410  0.56210  0.75490  Biso   1.000  C
  C77      1.0000 0.47640  0.86080  0.27450  Biso   1.000  C
  C78      1.0000 0.52360  0.36080  0.22550  Biso   1.000  C
  C79      1.0000 0.52360  0.13920  0.72550  Biso   1.000  C
  C80      1.0000 0.47640  0.63920  0.77450  Biso   1.000  C
  H33      1.0000 0.46960  0.83400  0.32900  Biso   1.000  H
  H34      1.0000 0.53040  0.33400  0.17100  Biso   1.000  H
  H35      1.0000 0.53040  0.16600  0.67100  Biso   1.000  H
  H36      1.0000 0.46960  0.66600  0.82900  Biso   1.000  H
  C81      1.0000 0.40880  0.82320  0.21360  Biso   1.000  C
  C82      1.0000 0.59120  0.32320  0.28640  Biso   1.000  C
  C83      1.0000 0.59120  0.17680  0.78640  Biso   1.000  C
  C84      1.0000 0.40880  0.67680  0.71360  Biso   1.000  C
  H37      1.0000 0.35530  0.77010  0.22610  Biso   1.000  H
  H38      1.0000 0.64470  0.27010  0.27390  Biso   1.000  H
  H39      1.0000 0.64470  0.22990  0.77390  Biso   1.000  H
  H40      1.0000 0.35530  0.72990  0.72610  Biso   1.000  H
  C85      1.0000 0.41970  0.86330  0.13510  Biso   1.000  C
  C86      1.0000 0.58030  0.36330  0.36490  Biso   1.000  C
  C87      1.0000 0.58030  0.13670  0.86490  Biso   1.000  C
  C88      1.0000 0.41970  0.63670  0.63510  Biso   1.000  C
  H41      1.0000 0.37420  0.83550  0.09350  Biso   1.000  H
  H42      1.0000 0.62580  0.33550  0.40650  Biso   1.000  H
  H43      1.0000 0.62580  0.16450  0.90650  Biso   1.000  H
  H44      1.0000 0.37420  0.66450  0.59350  Biso   1.000  H
  C89      1.0000 0.55890  0.97630  0.17440  Biso   1.000  C
  C90      1.0000 0.44110  0.47630  0.32560  Biso   1.000  C
  C91      1.0000 0.44110  0.02370  0.82560  Biso   1.000  C
  C92      1.0000 0.55890  0.52370  0.67440  Biso   1.000  C
  H45      1.0000 0.61120  0.03020  0.16040  Biso   1.000  H
  H46      1.0000 0.38880  0.53020  0.33960  Biso   1.000  H
  H47      1.0000 0.38880  0.96980  0.83960  Biso   1.000  H
  H48      1.0000 0.61120  0.46980  0.66040  Biso   1.000  H
  H49      1.0000 0.90800  0.76700  0.29900  Biso   1.000  H
  H50      1.0000 0.09200  0.26700  0.20100  Biso   1.000  H
  H51      1.0000 0.09200  0.23300  0.70100  Biso   1.000  H
  H52      1.0000 0.90800  0.73300  0.79900  Biso   1.000  H
  H53      1.0000 0.17600  0.01900  0.93500  Biso   1.000  H
  H54      1.0000 0.82400  0.51900  0.56500  Biso   1.000  H
  H55      1.0000 0.82400  0.98100  0.06500  Biso   1.000  H
  H56      1.0000 0.17600  0.48100  0.43500  Biso   1.000  H
  H57      1.0000 0.04800  0.64300  0.21300  Biso   1.000  H
  H58      1.0000 0.95200  0.14300  0.28700  Biso   1.000  H
  H59      1.0000 0.95200  0.35700  0.78700  Biso   1.000  H
  H60      1.0000 0.04800  0.85700  0.71300  Biso   1.000  H
  H61      1.0000 0.20800  0.23500  0.02400  Biso   1.000  H
  H62      1.0000 0.79200  0.73500  0.47600  Biso   1.000  H
  H63      1.0000 0.79200  0.76500  0.97600  Biso   1.000  H
  H64      1.0000 0.20800  0.26500  0.52400  Biso   1.000  H
  O31      1.0000 0.75751  0.07280  0.44596  Biso   1.000  O
  O32      1.0000 0.24249  0.57280  0.05404  Biso   1.000  O
  O33      1.0000 0.24249  0.92720  0.55404  Biso   1.000  O
  O34      1.0000 0.75751  0.42720  0.94596  Biso   1.000  O
  C93      1.0000 0.77150  0.98820  0.41060  Biso   1.000  C
  C94      1.0000 0.22850  0.48820  0.08940  Biso   1.000  C
  C95      1.0000 0.22850  0.01180  0.58940  Biso   1.000  C
  C96      1.0000 0.77150  0.51180  0.91060  Biso   1.000  C
  C97      1.0000 0.79690  0.02010  0.37880  Biso   1.000  C
  C98      1.0000 0.20310  0.52010  0.12120  Biso   1.000  C
  C99      1.0000 0.20310  0.97990  0.62120  Biso   1.000  C
  C100     1.0000 0.79690  0.47990  0.87880  Biso   1.000  C
  O35      1.0000 0.83910  0.91120  0.43020  Biso   1.000  O
  O36      1.0000 0.16090  0.41120  0.06980  Biso   1.000  O
  O37      1.0000 0.16090  0.08880  0.56980  Biso   1.000  O
  O38      1.0000 0.83910  0.58880  0.93020  Biso   1.000  O
  C101     1.0000 0.68170  0.94130  0.36100  Biso   1.000  C
  C102     1.0000 0.31830  0.44130  0.13900  Biso   1.000  C
  C103     1.0000 0.31830  0.05870  0.63900  Biso   1.000  C
  C104     1.0000 0.68170  0.55870  0.86100  Biso   1.000  C
  H65      1.0000 0.73700  0.99300  0.27800  Biso   1.000  H
  H66      1.0000 0.26300  0.49300  0.22200  Biso   1.000  H
  H67      1.0000 0.26300  0.00700  0.72200  Biso   1.000  H
  H68      1.0000 0.73700  0.50700  0.77800  Biso   1.000  H
  H69      1.0000 0.72600  0.24200  0.11500  Biso   1.000  H
  H70      1.0000 0.27400  0.74200  0.38500  Biso   1.000  H
  H71      1.0000 0.27400  0.75800  0.88500  Biso   1.000  H
  H72      1.0000 0.72600  0.25800  0.61500  Biso   1.000  H
  H73      1.0000 0.63600  0.26400  0.05400  Biso   1.000  H
  H74      1.0000 0.36400  0.76400  0.44600  Biso   1.000  H
  H75      1.0000 0.36400  0.73600  0.94600  Biso   1.000  H
  H76      1.0000 0.63600  0.23600  0.55400  Biso   1.000  H
