data_image0
_cell_length_a       14.4872
_cell_length_b       7.143
_cell_length_c       18.454
_cell_angle_alpha    90
_cell_angle_beta     95.719
_cell_angle_gamma    90

_symmetry_space_group_name_H-M    "P 1"
_symmetry_int_tables_number       1

loop_
  _symmetry_equiv_pos_as_xyz
  'x, y, z'

loop_
  _atom_site_label
  _atom_site_occupancy
  _atom_site_fract_x
  _atom_site_fract_y
  _atom_site_fract_z
  _atom_site_thermal_displace_type
  _atom_site_B_iso_or_equiv
  _atom_site_type_symbol
  Cu1      1.0000 0.26145  0.21052  0.96328  Biso   1.000  Cu
  Cu2      1.0000 0.23855  0.71052  0.53673  Biso   1.000  Cu
  Cu3      1.0000 0.73855  0.78948  0.03673  Biso   1.000  Cu
  Cu4      1.0000 0.76145  0.28948  0.46327  Biso   1.000  Cu
  Cu5      1.0000 0.09971  0.56356  0.98177  Biso   1.000  Cu
  Cu6      1.0000 0.40029  0.06356  0.51824  Biso   1.000  Cu
  Cu7      1.0000 0.90029  0.43644  0.01824  Biso   1.000  Cu
  Cu8      1.0000 0.59971  0.93644  0.48176  Biso   1.000  Cu
  N1       1.0000 0.20917  0.09550  0.05157  Biso   1.000  N
  N2       1.0000 0.29083  0.59550  0.44843  Biso   1.000  N
  N3       1.0000 0.79083  0.90450  0.94843  Biso   1.000  N
  N4       1.0000 0.70917  0.40450  0.55157  Biso   1.000  N
  N5       1.0000 0.37410  0.18520  0.02877  Biso   1.000  N
  N6       1.0000 0.12590  0.68520  0.47123  Biso   1.000  N
  N7       1.0000 0.62590  0.81480  0.97123  Biso   1.000  N
  N8       1.0000 0.87410  0.31480  0.52877  Biso   1.000  N
  N9       1.0000 0.35635  0.30290  0.89731  Biso   1.000  N
  N10      1.0000 0.14365  0.80290  0.60269  Biso   1.000  N
  N11      1.0000 0.64365  0.69710  0.10269  Biso   1.000  N
  N12      1.0000 0.85635  0.19710  0.39731  Biso   1.000  N
  C1       1.0000 0.12130  0.04060  0.05549  Biso   1.000  C
  C2       1.0000 0.37870  0.54060  0.44451  Biso   1.000  C
  C3       1.0000 0.87870  0.95940  0.94451  Biso   1.000  C
  C4       1.0000 0.62130  0.45940  0.55549  Biso   1.000  C
  H1       1.0000 0.07620  0.06710  0.01590  Biso   1.000  H
  H2       1.0000 0.42380  0.56710  0.48410  Biso   1.000  H
  H3       1.0000 0.92380  0.93290  0.98410  Biso   1.000  H
  H4       1.0000 0.57620  0.43290  0.51590  Biso   1.000  H
  C5       1.0000 0.09430  0.94650  0.11537  Biso   1.000  C
  C6       1.0000 0.40570  0.44650  0.38463  Biso   1.000  C
  C7       1.0000 0.90570  0.05350  0.88463  Biso   1.000  C
  C8       1.0000 0.59430  0.55350  0.61537  Biso   1.000  C
  H5       1.0000 0.03180  0.90730  0.11650  Biso   1.000  H
  H6       1.0000 0.46820  0.40730  0.38350  Biso   1.000  H
  H7       1.0000 0.96820  0.09270  0.88350  Biso   1.000  H
  H8       1.0000 0.53180  0.59270  0.61650  Biso   1.000  H
  C9       1.0000 0.15960  0.91010  0.17363  Biso   1.000  C
  C10      1.0000 0.34040  0.41010  0.32637  Biso   1.000  C
  C11      1.0000 0.84040  0.08990  0.82637  Biso   1.000  C
  C12      1.0000 0.65960  0.58990  0.67363  Biso   1.000  C
  H9       1.0000 0.14230  0.84590  0.21530  Biso   1.000  H
  H10      1.0000 0.35770  0.34590  0.28470  Biso   1.000  H
  H11      1.0000 0.85770  0.15410  0.78470  Biso   1.000  H
  H12      1.0000 0.64230  0.65410  0.71530  Biso   1.000  H
  C13      1.0000 0.25100  0.96880  0.17061  Biso   1.000  C
  C14      1.0000 0.24900  0.46880  0.32939  Biso   1.000  C
  C15      1.0000 0.74900  0.03120  0.82939  Biso   1.000  C
  C16      1.0000 0.75100  0.53120  0.67061  Biso   1.000  C
  H13      1.0000 0.29680  0.94640  0.21020  Biso   1.000  H
  H14      1.0000 0.20320  0.44640  0.28980  Biso   1.000  H
  H15      1.0000 0.70320  0.05360  0.78980  Biso   1.000  H
  H16      1.0000 0.79680  0.55360  0.71020  Biso   1.000  H
  C17      1.0000 0.27320  0.06000  0.10879  Biso   1.000  C
  C18      1.0000 0.22680  0.56000  0.39121  Biso   1.000  C
  C19      1.0000 0.72680  0.94000  0.89121  Biso   1.000  C
  C20      1.0000 0.77320  0.44000  0.60879  Biso   1.000  C
  C21      1.0000 0.36840  0.12120  0.09653  Biso   1.000  C
  C22      1.0000 0.13160  0.62120  0.40347  Biso   1.000  C
  C23      1.0000 0.63160  0.87880  0.90347  Biso   1.000  C
  C24      1.0000 0.86840  0.37880  0.59653  Biso   1.000  C
  C25      1.0000 0.44700  0.11340  0.14605  Biso   1.000  C
  C26      1.0000 0.05300  0.61340  0.35395  Biso   1.000  C
  C27      1.0000 0.55300  0.88660  0.85395  Biso   1.000  C
  C28      1.0000 0.94700  0.38660  0.64605  Biso   1.000  C
  H17      1.0000 0.44330  0.07200  0.19460  Biso   1.000  H
  H18      1.0000 0.05670  0.57200  0.30540  Biso   1.000  H
  H19      1.0000 0.55670  0.92800  0.80540  Biso   1.000  H
  H20      1.0000 0.94330  0.42800  0.69460  Biso   1.000  H
  C29      1.0000 0.53120  0.16780  0.12260  Biso   1.000  C
  C30      1.0000 0.96880  0.66780  0.37740  Biso   1.000  C
  C31      1.0000 0.46880  0.83220  0.87740  Biso   1.000  C
  C32      1.0000 0.03120  0.33220  0.62260  Biso   1.000  C
  H21      1.0000 0.58580  0.16300  0.15560  Biso   1.000  H
  H22      1.0000 0.91420  0.66300  0.34440  Biso   1.000  H
  H23      1.0000 0.41420  0.83700  0.84440  Biso   1.000  H
  H24      1.0000 0.08580  0.33700  0.65560  Biso   1.000  H
  C33      1.0000 0.53690  0.22920  0.05174  Biso   1.000  C
  C34      1.0000 0.96310  0.72920  0.44826  Biso   1.000  C
  C35      1.0000 0.46310  0.77080  0.94826  Biso   1.000  C
  C36      1.0000 0.03690  0.27080  0.55174  Biso   1.000  C
  H25      1.0000 0.59470  0.26360  0.03540  Biso   1.000  H
  H26      1.0000 0.90530  0.76360  0.46460  Biso   1.000  H
  H27      1.0000 0.40530  0.73640  0.96460  Biso   1.000  H
  H28      1.0000 0.09470  0.23640  0.53540  Biso   1.000  H
  C37      1.0000 0.45500  0.23870  0.00550  Biso   1.000  C
  C38      1.0000 0.04500  0.73870  0.49450  Biso   1.000  C
  C39      1.0000 0.54500  0.76130  0.99450  Biso   1.000  C
  C40      1.0000 0.95500  0.26130  0.50550  Biso   1.000  C
  C41      1.0000 0.44450  0.29770  0.92842  Biso   1.000  C
  C42      1.0000 0.05550  0.79770  0.57158  Biso   1.000  C
  C43      1.0000 0.55550  0.70230  0.07158  Biso   1.000  C
  C44      1.0000 0.94450  0.20230  0.42842  Biso   1.000  C
  C45      1.0000 0.51990  0.33650  0.88874  Biso   1.000  C
  C46      1.0000 0.98010  0.83650  0.61126  Biso   1.000  C
  C47      1.0000 0.48010  0.66350  0.11126  Biso   1.000  C
  C48      1.0000 0.01990  0.16350  0.38874  Biso   1.000  C
  H29      1.0000 0.58140  0.33610  0.91210  Biso   1.000  H
  H30      1.0000 0.91860  0.83610  0.58790  Biso   1.000  H
  H31      1.0000 0.41860  0.66390  0.08790  Biso   1.000  H
  H32      1.0000 0.08140  0.16390  0.41210  Biso   1.000  H
  C49      1.0000 0.50350  0.37520  0.81539  Biso   1.000  C
  C50      1.0000 0.99650  0.87520  0.68461  Biso   1.000  C
  C51      1.0000 0.49650  0.62480  0.18461  Biso   1.000  C
  C52      1.0000 0.00350  0.12480  0.31539  Biso   1.000  C
  H33      1.0000 0.55360  0.40050  0.78730  Biso   1.000  H
  H34      1.0000 0.94640  0.90050  0.71270  Biso   1.000  H
  H35      1.0000 0.44640  0.59950  0.21270  Biso   1.000  H
  H36      1.0000 0.05360  0.09950  0.28730  Biso   1.000  H
  C53      1.0000 0.41330  0.37670  0.78340  Biso   1.000  C
  C54      1.0000 0.08670  0.87670  0.71660  Biso   1.000  C
  C55      1.0000 0.58670  0.62330  0.21660  Biso   1.000  C
  C56      1.0000 0.91330  0.12330  0.28340  Biso   1.000  C
  H37      1.0000 0.40060  0.40050  0.73270  Biso   1.000  H
  H38      1.0000 0.09940  0.90050  0.76730  Biso   1.000  H
  H39      1.0000 0.59940  0.59950  0.26730  Biso   1.000  H
  H40      1.0000 0.90060  0.09950  0.23270  Biso   1.000  H
  C57      1.0000 0.34140  0.34330  0.82577  Biso   1.000  C
  C58      1.0000 0.15860  0.84330  0.67423  Biso   1.000  C
  C59      1.0000 0.65860  0.65670  0.17423  Biso   1.000  C
  C60      1.0000 0.84140  0.15670  0.32577  Biso   1.000  C
  H41      1.0000 0.27930  0.34890  0.80370  Biso   1.000  H
  H42      1.0000 0.22070  0.84890  0.69630  Biso   1.000  H
  H43      1.0000 0.72070  0.65110  0.19630  Biso   1.000  H
  H44      1.0000 0.77930  0.15110  0.30370  Biso   1.000  H
  N13      1.0000 0.14212  0.29440  0.91730  Biso   1.000  N
  N14      1.0000 0.35788  0.79440  0.58270  Biso   1.000  N
  N15      1.0000 0.85788  0.70560  0.08270  Biso   1.000  N
  N16      1.0000 0.64212  0.20560  0.41730  Biso   1.000  N
  N17      1.0000 0.11646  0.29310  0.85362  Biso   1.000  N
  N18      1.0000 0.38354  0.79310  0.64638  Biso   1.000  N
  N19      1.0000 0.88354  0.70690  0.14638  Biso   1.000  N
  N20      1.0000 0.61646  0.20690  0.35362  Biso   1.000  N
  N21      1.0000 0.08730  0.29280  0.79351  Biso   1.000  N
  N22      1.0000 0.41270  0.79280  0.70649  Biso   1.000  N
  N23      1.0000 0.91270  0.70720  0.20649  Biso   1.000  N
  N24      1.0000 0.58730  0.20720  0.29351  Biso   1.000  N
  N25      1.0000 0.03445  0.45900  0.06278  Biso   1.000  N
  N26      1.0000 0.46555  0.95900  0.43722  Biso   1.000  N
  N27      1.0000 0.96555  0.54100  0.93722  Biso   1.000  N
  N28      1.0000 0.53445  0.04100  0.56278  Biso   1.000  N
  N29      1.0000 0.05851  0.42180  0.12622  Biso   1.000  N
  N30      1.0000 0.44149  0.92180  0.37378  Biso   1.000  N
  N31      1.0000 0.94149  0.57820  0.87378  Biso   1.000  N
  N32      1.0000 0.55851  0.07820  0.62622  Biso   1.000  N
  N33      1.0000 0.07880  0.38360  0.18545  Biso   1.000  N
  N34      1.0000 0.42120  0.88360  0.31455  Biso   1.000  N
  N35      1.0000 0.92120  0.61640  0.81455  Biso   1.000  N
  N36      1.0000 0.57880  0.11640  0.68545  Biso   1.000  N
  N37      1.0000 0.22852  0.57440  0.02806  Biso   1.000  N
  N38      1.0000 0.27148  0.07440  0.47194  Biso   1.000  N
  N39      1.0000 0.77148  0.42560  0.97194  Biso   1.000  N
  N40      1.0000 0.72852  0.92560  0.52806  Biso   1.000  N
  N41      1.0000 0.25067  0.53600  0.09066  Biso   1.000  N
  N42      1.0000 0.24933  0.03600  0.40934  Biso   1.000  N
  N43      1.0000 0.74933  0.46400  0.90934  Biso   1.000  N
  N44      1.0000 0.75067  0.96400  0.59066  Biso   1.000  N
  N45      1.0000 0.27650  0.50010  0.14994  Biso   1.000  N
  N46      1.0000 0.22350  0.00010  0.35006  Biso   1.000  N
  N47      1.0000 0.72350  0.49990  0.85006  Biso   1.000  N
  N48      1.0000 0.77650  0.99990  0.64994  Biso   1.000  N
  N49      1.0000 0.12070  0.75080  0.90621  Biso   1.000  N
  N50      1.0000 0.37930  0.25080  0.59379  Biso   1.000  N
  N51      1.0000 0.87930  0.24920  0.09379  Biso   1.000  N
  N52      1.0000 0.62070  0.74920  0.40621  Biso   1.000  N
  N53      1.0000 0.19082  0.83600  0.90400  Biso   1.000  N
  N54      1.0000 0.30918  0.33600  0.59600  Biso   1.000  N
  N55      1.0000 0.80918  0.16400  0.09600  Biso   1.000  N
  N56      1.0000 0.69082  0.66400  0.40400  Biso   1.000  N
  N57      1.0000 0.25740  0.92400  0.89962  Biso   1.000  N
  N58      1.0000 0.24260  0.42400  0.60038  Biso   1.000  N
  N59      1.0000 0.74260  0.07600  0.10038  Biso   1.000  N
  N60      1.0000 0.75740  0.57600  0.39962  Biso   1.000  N
