data_image0
_cell_length_a       8.551
_cell_length_b       9.175
_cell_length_c       15.817
_cell_angle_alpha    94.818
_cell_angle_beta     93.103
_cell_angle_gamma    94.539

_symmetry_space_group_name_H-M    "P 1"
_symmetry_int_tables_number       1

loop_
  _symmetry_equiv_pos_as_xyz
  'x, y, z'

loop_
  _atom_site_label
  _atom_site_occupancy
  _atom_site_fract_x
  _atom_site_fract_y
  _atom_site_fract_z
  _atom_site_thermal_displace_type
  _atom_site_B_iso_or_equiv
  _atom_site_type_symbol
  C1       1.0000 0.53000  0.23830  0.35790  Biso   1.000  C
  C2       1.0000 0.47000  0.76170  0.64210  Biso   1.000  C
  H1       1.0000 0.54950  0.33700  0.38560  Biso   1.000  H
  H2       1.0000 0.45050  0.66300  0.61440  Biso   1.000  H
  H3       1.0000 0.58880  0.23360  0.30710  Biso   1.000  H
  H4       1.0000 0.41120  0.76640  0.69290  Biso   1.000  H
  C3       1.0000 0.59210  0.13050  0.41760  Biso   1.000  C
  C4       1.0000 0.40790  0.86950  0.58240  Biso   1.000  C
  H5       1.0000 0.52780  0.12850  0.46620  Biso   1.000  H
  H6       1.0000 0.47220  0.87150  0.53380  Biso   1.000  H
  H7       1.0000 0.58220  0.03280  0.38810  Biso   1.000  H
  H8       1.0000 0.41780  0.96720  0.61190  Biso   1.000  H
  C5       1.0000 0.76090  0.16900  0.44850  Biso   1.000  C
  C6       1.0000 0.23910  0.83100  0.55150  Biso   1.000  C
  H9       1.0000 0.77090  0.26640  0.47840  Biso   1.000  H
  H10      1.0000 0.22910  0.73360  0.52160  Biso   1.000  H
  H11      1.0000 0.79100  0.10030  0.48870  Biso   1.000  H
  H12      1.0000 0.20900  0.89970  0.51130  Biso   1.000  H
  C7       1.0000 0.89530  0.04860  0.32500  Biso   1.000  C
  C8       1.0000 0.10470  0.95140  0.67500  Biso   1.000  C
  H13      1.0000 0.84300  0.95530  0.32170  Biso   1.000  H
  H14      1.0000 0.15700  0.04470  0.67830  Biso   1.000  H
  C9       1.0000 0.01100  0.09460  0.27760  Biso   1.000  C
  C10      1.0000 0.98900  0.90540  0.72240  Biso   1.000  C
  H15      1.0000 0.05460  0.03600  0.23570  Biso   1.000  H
  H16      1.0000 0.94540  0.96400  0.76430  Biso   1.000  H
  C11      1.0000 0.96580  0.27860  0.35960  Biso   1.000  C
  C12      1.0000 0.03420  0.72140  0.64040  Biso   1.000  C
  H17      1.0000 0.96760  0.37300  0.38630  Biso   1.000  H
  H18      1.0000 0.03240  0.62700  0.61370  Biso   1.000  H
  C13      1.0000 0.96860  0.50140  0.19010  Biso   1.000  C
  C14      1.0000 0.03140  0.49860  0.80990  Biso   1.000  C
  H19      1.0000 0.97100  0.57080  0.24000  Biso   1.000  H
  H20      1.0000 0.02900  0.42920  0.76000  Biso   1.000  H
  H21      1.0000 0.89880  0.41650  0.19940  Biso   1.000  H
  H22      1.0000 0.10120  0.58350  0.80060  Biso   1.000  H
  C15      1.0000 0.90620  0.57180  0.11290  Biso   1.000  C
  C16      1.0000 0.09380  0.42820  0.88710  Biso   1.000  C
  H23      1.0000 0.98040  0.65240  0.10170  Biso   1.000  H
  H24      1.0000 0.01960  0.34760  0.89830  Biso   1.000  H
  H25      1.0000 0.89920  0.50010  0.06390  Biso   1.000  H
  H26      1.0000 0.10080  0.49990  0.93610  Biso   1.000  H
  C17      1.0000 0.74990  0.62790  0.12300  Biso   1.000  C
  C18      1.0000 0.25010  0.37210  0.87700  Biso   1.000  C
  H27      1.0000 0.75690  0.70170  0.17100  Biso   1.000  H
  H28      1.0000 0.24310  0.29830  0.82900  Biso   1.000  H
  H29      1.0000 0.71930  0.67450  0.07260  Biso   1.000  H
  H30      1.0000 0.28070  0.32550  0.92740  Biso   1.000  H
  C19      1.0000 0.57950  0.39200  0.08050  Biso   1.000  C
  C20      1.0000 0.42050  0.60800  0.91950  Biso   1.000  C
  H31      1.0000 0.62090  0.36660  0.02860  Biso   1.000  H
  H32      1.0000 0.37910  0.63340  0.97140  Biso   1.000  H
  C21      1.0000 0.45850  0.31810  0.11510  Biso   1.000  C
  C22      1.0000 0.54150  0.68190  0.88490  Biso   1.000  C
  H33      1.0000 0.40080  0.23380  0.09020  Biso   1.000  H
  H34      1.0000 0.59920  0.76620  0.90980  Biso   1.000  H
  C23      1.0000 0.53860  0.50400  0.20110  Biso   1.000  C
  C24      1.0000 0.46140  0.49600  0.79890  Biso   1.000  C
  H35      1.0000 0.54670  0.57340  0.24790  Biso   1.000  H
  H36      1.0000 0.45330  0.42660  0.75210  Biso   1.000  H
  N1       1.0000 0.36960  0.21270  0.33370  Biso   1.000  N
  N2       1.0000 0.63040  0.78730  0.66630  Biso   1.000  N
  H37      1.0000 0.31930  0.20510  0.38190  Biso   1.000  H
  H38      1.0000 0.68070  0.79490  0.61810  Biso   1.000  H
  H39      1.0000 0.35650  0.12360  0.30460  Biso   1.000  H
  H40      1.0000 0.64350  0.87640  0.69540  Biso   1.000  H
  N3       1.0000 0.86990  0.16580  0.37870  Biso   1.000  N
  N4       1.0000 0.13010  0.83420  0.62130  Biso   1.000  N
  N5       1.0000 0.05660  0.24130  0.29950  Biso   1.000  N
  N6       1.0000 0.94340  0.75870  0.70050  Biso   1.000  N
  N7       1.0000 0.13030  0.45530  0.17780  Biso   1.000  N
  N8       1.0000 0.86970  0.54470  0.82220  Biso   1.000  N
  H41      1.0000 0.19090  0.53700  0.16950  Biso   1.000  H
  H42      1.0000 0.80910  0.46300  0.83050  Biso   1.000  H
  H43      1.0000 0.12450  0.39770  0.12860  Biso   1.000  H
  H44      1.0000 0.87550  0.60230  0.87140  Biso   1.000  H
  N9       1.0000 0.62950  0.51160  0.13650  Biso   1.000  N
  N10      1.0000 0.37050  0.48840  0.86350  Biso   1.000  N
  N11      1.0000 0.43510  0.38830  0.19280  Biso   1.000  N
  N12      1.0000 0.56490  0.61170  0.80720  Biso   1.000  N
  O1       1.0000 0.28140  0.54880  0.35910  Biso   1.000  O
  O2       1.0000 0.71860  0.45120  0.64090  Biso   1.000  O
  H45      1.0000 0.33240  0.54440  0.40640  Biso   1.000  H
  H46      1.0000 0.66760  0.45560  0.59360  Biso   1.000  H
  H47      1.0000 0.24320  0.62820  0.34780  Biso   1.000  H
  H48      1.0000 0.75680  0.37180  0.65220  Biso   1.000  H
  Cu1      1.0000 0.24978  0.35040  0.26380  Biso   1.000  Cu
  Cu2      1.0000 0.75022  0.64960  0.73620  Biso   1.000  Cu
  C25      1.0000 0.75700  0.03380  0.06330  Biso   1.000  C
  C26      1.0000 0.24300  0.96620  0.93670  Biso   1.000  C
  H49      1.0000 0.78060  0.93770  0.07720  Biso   1.000  H
  H50      1.0000 0.21940  0.06230  0.92280  Biso   1.000  H
  H51      1.0000 0.69750  0.02610  0.00970  Biso   1.000  H
  H52      1.0000 0.30250  0.97390  0.99030  Biso   1.000  H
  H53      1.0000 0.69710  0.07780  0.10670  Biso   1.000  H
  H54      1.0000 0.30290  0.92220  0.89330  Biso   1.000  H
  C27      1.0000 0.90700  0.12710  0.05750  Biso   1.000  C
  C28      1.0000 0.09300  0.87290  0.94250  Biso   1.000  C
  N13      1.0000 0.00150  0.20440  0.04910  Biso   1.000  N
  N14      1.0000 0.99850  0.79560  0.95090  Biso   1.000  N
  O3       1.0000 0.20230  0.19190  0.50970  Biso   1.000  O
  O4       1.0000 0.79770  0.80810  0.49030  Biso   1.000  O
  O5       1.0000 0.09360  0.38300  0.56650  Biso   1.000  O
  O6       1.0000 0.90640  0.61700  0.43350  Biso   1.000  O
  O7       1.0000 0.29100  0.29060  0.64180  Biso   1.000  O
  O8       1.0000 0.70900  0.70940  0.35820  Biso   1.000  O
  O9       1.0000 0.34300  0.41620  0.54130  Biso   1.000  O
  O10      1.0000 0.65700  0.58380  0.45870  Biso   1.000  O
  Cl1      1.0000 0.22560  0.31860  0.56570  Biso   1.000  Cl
  Cl2      1.0000 0.77440  0.68140  0.43430  Biso   1.000  Cl
  O11      1.0000 0.26200  0.79560  0.22910  Biso   1.000  O
  O12      1.0000 0.73800  0.20440  0.77090  Biso   1.000  O
  O13      1.0000 0.49970  0.88600  0.21100  Biso   1.000  O
  O14      1.0000 0.50030  0.11400  0.78900  Biso   1.000  O
  O15      1.0000 0.29640  0.98900  0.15370  Biso   1.000  O
  O16      1.0000 0.70360  0.01100  0.84630  Biso   1.000  O
  O17      1.0000 0.36200  0.75580  0.10730  Biso   1.000  O
  O18      1.0000 0.63800  0.24420  0.89270  Biso   1.000  O
  Cl3      1.0000 0.35910  0.85920  0.17220  Biso   1.000  Cl
  Cl4      1.0000 0.64090  0.14080  0.82780  Biso   1.000  Cl
