data_image0
_cell_length_a       21.662
_cell_length_b       16.726
_cell_length_c       7.405
_cell_angle_alpha    90
_cell_angle_beta     90
_cell_angle_gamma    90

_symmetry_space_group_name_H-M    "P 1"
_symmetry_int_tables_number       1

loop_
  _symmetry_equiv_pos_as_xyz
  'x, y, z'

loop_
  _atom_site_label
  _atom_site_occupancy
  _atom_site_fract_x
  _atom_site_fract_y
  _atom_site_fract_z
  _atom_site_thermal_displace_type
  _atom_site_B_iso_or_equiv
  _atom_site_type_symbol
  Cu1      1.0000 0.50000  0.65032  0.83390  Biso   1.000  Cu
  Cu2      1.0000 0.00000  0.15032  0.83390  Biso   1.000  Cu
  Cu3      1.0000 0.50000  0.84968  0.33390  Biso   1.000  Cu
  Cu4      1.0000 0.50000  0.15032  0.66610  Biso   1.000  Cu
  Cu5      1.0000 0.50000  0.34968  0.16610  Biso   1.000  Cu
  Cu6      1.0000 0.00000  0.34968  0.33390  Biso   1.000  Cu
  Cu7      1.0000 0.00000  0.65032  0.66610  Biso   1.000  Cu
  Cu8      1.0000 0.00000  0.84968  0.16610  Biso   1.000  Cu
  O1       1.0000 0.41080  0.64610  0.81310  Biso   1.000  O
  O2       1.0000 0.91080  0.14610  0.81310  Biso   1.000  O
  O3       1.0000 0.58920  0.85390  0.31310  Biso   1.000  O
  O4       1.0000 0.58920  0.14610  0.68690  Biso   1.000  O
  O5       1.0000 0.41080  0.35390  0.18690  Biso   1.000  O
  O6       1.0000 0.08920  0.35390  0.31310  Biso   1.000  O
  O7       1.0000 0.08920  0.64610  0.68690  Biso   1.000  O
  O8       1.0000 0.91080  0.85390  0.18690  Biso   1.000  O
  O9       1.0000 0.58920  0.35390  0.18690  Biso   1.000  O
  O10      1.0000 0.08920  0.85390  0.18690  Biso   1.000  O
  O11      1.0000 0.41080  0.14610  0.68690  Biso   1.000  O
  O12      1.0000 0.41080  0.85390  0.31310  Biso   1.000  O
  O13      1.0000 0.58920  0.64610  0.81310  Biso   1.000  O
  O14      1.0000 0.91080  0.64610  0.68690  Biso   1.000  O
  O15      1.0000 0.91080  0.35390  0.31310  Biso   1.000  O
  O16      1.0000 0.08920  0.14610  0.81310  Biso   1.000  O
  O17      1.0000 0.40180  0.77290  0.90070  Biso   1.000  O
  O18      1.0000 0.90180  0.27290  0.90070  Biso   1.000  O
  O19      1.0000 0.59820  0.72710  0.40070  Biso   1.000  O
  O20      1.0000 0.59820  0.27290  0.59930  Biso   1.000  O
  O21      1.0000 0.40180  0.22710  0.09930  Biso   1.000  O
  O22      1.0000 0.09820  0.22710  0.40070  Biso   1.000  O
  O23      1.0000 0.09820  0.77290  0.59930  Biso   1.000  O
  O24      1.0000 0.90180  0.72710  0.09930  Biso   1.000  O
  O25      1.0000 0.59820  0.22710  0.09930  Biso   1.000  O
  O26      1.0000 0.09820  0.72710  0.09930  Biso   1.000  O
  O27      1.0000 0.40180  0.27290  0.59930  Biso   1.000  O
  O28      1.0000 0.40180  0.72710  0.40070  Biso   1.000  O
  O29      1.0000 0.59820  0.77290  0.90070  Biso   1.000  O
  O30      1.0000 0.90180  0.77290  0.59930  Biso   1.000  O
  O31      1.0000 0.90180  0.22710  0.40070  Biso   1.000  O
  O32      1.0000 0.09820  0.27290  0.90070  Biso   1.000  O
  O33      1.0000 0.31800  0.54190  0.96400  Biso   1.000  O
  O34      1.0000 0.81800  0.04190  0.96400  Biso   1.000  O
  O35      1.0000 0.68200  0.95810  0.46400  Biso   1.000  O
  O36      1.0000 0.68200  0.04190  0.53600  Biso   1.000  O
  O37      1.0000 0.31800  0.45810  0.03600  Biso   1.000  O
  O38      1.0000 0.18200  0.45810  0.46400  Biso   1.000  O
  O39      1.0000 0.18200  0.54190  0.53600  Biso   1.000  O
  O40      1.0000 0.81800  0.95810  0.03600  Biso   1.000  O
  O41      1.0000 0.68200  0.45810  0.03600  Biso   1.000  O
  O42      1.0000 0.18200  0.95810  0.03600  Biso   1.000  O
  O43      1.0000 0.31800  0.04190  0.53600  Biso   1.000  O
  O44      1.0000 0.31800  0.95810  0.46400  Biso   1.000  O
  O45      1.0000 0.68200  0.54190  0.96400  Biso   1.000  O
  O46      1.0000 0.81800  0.54190  0.53600  Biso   1.000  O
  O47      1.0000 0.81800  0.45810  0.46400  Biso   1.000  O
  O48      1.0000 0.18200  0.04190  0.96400  Biso   1.000  O
  O49      1.0000 0.30300  0.51600  0.67600  Biso   1.000  O
  O50      1.0000 0.80300  0.01600  0.67600  Biso   1.000  O
  O51      1.0000 0.69700  0.98400  0.17600  Biso   1.000  O
  O52      1.0000 0.69700  0.01600  0.82400  Biso   1.000  O
  O53      1.0000 0.30300  0.48400  0.32400  Biso   1.000  O
  O54      1.0000 0.19700  0.48400  0.17600  Biso   1.000  O
  O55      1.0000 0.19700  0.51600  0.82400  Biso   1.000  O
  O56      1.0000 0.80300  0.98400  0.32400  Biso   1.000  O
  O57      1.0000 0.69700  0.48400  0.32400  Biso   1.000  O
  O58      1.0000 0.19700  0.98400  0.32400  Biso   1.000  O
  O59      1.0000 0.30300  0.01600  0.82400  Biso   1.000  O
  O60      1.0000 0.30300  0.98400  0.17600  Biso   1.000  O
  O61      1.0000 0.69700  0.51600  0.67600  Biso   1.000  O
  O62      1.0000 0.80300  0.51600  0.82400  Biso   1.000  O
  O63      1.0000 0.80300  0.48400  0.17600  Biso   1.000  O
  O64      1.0000 0.19700  0.01600  0.67600  Biso   1.000  O
  O65      1.0000 0.50000  0.70080  0.59970  Biso   1.000  O
  O66      1.0000 0.00000  0.20080  0.59970  Biso   1.000  O
  O67      1.0000 0.50000  0.79920  0.09970  Biso   1.000  O
  O68      1.0000 0.50000  0.20080  0.90030  Biso   1.000  O
  O69      1.0000 0.50000  0.29920  0.40030  Biso   1.000  O
  O70      1.0000 0.00000  0.29920  0.09970  Biso   1.000  O
  O71      1.0000 0.00000  0.70080  0.90030  Biso   1.000  O
  O72      1.0000 0.00000  0.79920  0.40030  Biso   1.000  O
  N1       1.0000 0.50000  0.59610  0.07360  Biso   1.000  N
  N2       1.0000 0.00000  0.09610  0.07360  Biso   1.000  N
  N3       1.0000 0.50000  0.90390  0.57360  Biso   1.000  N
  N4       1.0000 0.50000  0.09610  0.42640  Biso   1.000  N
  N5       1.0000 0.50000  0.40390  0.92640  Biso   1.000  N
  N6       1.0000 0.00000  0.40390  0.57360  Biso   1.000  N
  N7       1.0000 0.00000  0.59610  0.42640  Biso   1.000  N
  N8       1.0000 0.00000  0.90390  0.92640  Biso   1.000  N
  N9       1.0000 0.30110  0.55420  0.81100  Biso   1.000  N
  N10      1.0000 0.80110  0.05420  0.81100  Biso   1.000  N
  N11      1.0000 0.69890  0.94580  0.31100  Biso   1.000  N
  N12      1.0000 0.69890  0.05420  0.68900  Biso   1.000  N
  N13      1.0000 0.30110  0.44580  0.18900  Biso   1.000  N
  N14      1.0000 0.19890  0.44580  0.31100  Biso   1.000  N
  N15      1.0000 0.19890  0.55420  0.68900  Biso   1.000  N
  N16      1.0000 0.80110  0.94580  0.18900  Biso   1.000  N
  N17      1.0000 0.69890  0.44580  0.18900  Biso   1.000  N
  N18      1.0000 0.19890  0.94580  0.18900  Biso   1.000  N
  N19      1.0000 0.30110  0.05420  0.68900  Biso   1.000  N
  N20      1.0000 0.30110  0.94580  0.31100  Biso   1.000  N
  N21      1.0000 0.69890  0.55420  0.81100  Biso   1.000  N
  N22      1.0000 0.80110  0.55420  0.68900  Biso   1.000  N
  N23      1.0000 0.80110  0.44580  0.31100  Biso   1.000  N
  N24      1.0000 0.19890  0.05420  0.81100  Biso   1.000  N
  C1       1.0000 0.38070  0.71050  0.84330  Biso   1.000  C
  C2       1.0000 0.88070  0.21050  0.84330  Biso   1.000  C
  C3       1.0000 0.61930  0.78950  0.34330  Biso   1.000  C
  C4       1.0000 0.61930  0.21050  0.65670  Biso   1.000  C
  C5       1.0000 0.38070  0.28950  0.15670  Biso   1.000  C
  C6       1.0000 0.11930  0.28950  0.34330  Biso   1.000  C
  C7       1.0000 0.11930  0.71050  0.65670  Biso   1.000  C
  C8       1.0000 0.88070  0.78950  0.15670  Biso   1.000  C
  C9       1.0000 0.61930  0.28950  0.15670  Biso   1.000  C
  C10      1.0000 0.11930  0.78950  0.15670  Biso   1.000  C
  C11      1.0000 0.38070  0.21050  0.65670  Biso   1.000  C
  C12      1.0000 0.38070  0.78950  0.34330  Biso   1.000  C
  C13      1.0000 0.61930  0.71050  0.84330  Biso   1.000  C
  C14      1.0000 0.88070  0.71050  0.65670  Biso   1.000  C
  C15      1.0000 0.88070  0.28950  0.34330  Biso   1.000  C
  C16      1.0000 0.11930  0.21050  0.84330  Biso   1.000  C
  C17      1.0000 0.31270  0.70750  0.79580  Biso   1.000  C
  C18      1.0000 0.81270  0.20750  0.79580  Biso   1.000  C
  C19      1.0000 0.68730  0.79250  0.29580  Biso   1.000  C
  C20      1.0000 0.68730  0.20750  0.70420  Biso   1.000  C
  C21      1.0000 0.31270  0.29250  0.20420  Biso   1.000  C
  C22      1.0000 0.18730  0.29250  0.29580  Biso   1.000  C
  C23      1.0000 0.18730  0.70750  0.70420  Biso   1.000  C
  C24      1.0000 0.81270  0.79250  0.20420  Biso   1.000  C
  C25      1.0000 0.68730  0.29250  0.20420  Biso   1.000  C
  C26      1.0000 0.18730  0.79250  0.20420  Biso   1.000  C
  C27      1.0000 0.31270  0.20750  0.70420  Biso   1.000  C
  C28      1.0000 0.31270  0.79250  0.29580  Biso   1.000  C
  C29      1.0000 0.68730  0.70750  0.79580  Biso   1.000  C
  C30      1.0000 0.81270  0.70750  0.70420  Biso   1.000  C
  C31      1.0000 0.81270  0.29250  0.29580  Biso   1.000  C
  C32      1.0000 0.18730  0.20750  0.79580  Biso   1.000  C
  C33      1.0000 0.28070  0.77800  0.77230  Biso   1.000  C
  C34      1.0000 0.78070  0.27800  0.77230  Biso   1.000  C
  C35      1.0000 0.71930  0.72200  0.27230  Biso   1.000  C
  C36      1.0000 0.71930  0.27800  0.72770  Biso   1.000  C
  C37      1.0000 0.28070  0.22200  0.22770  Biso   1.000  C
  C38      1.0000 0.21930  0.22200  0.27230  Biso   1.000  C
  C39      1.0000 0.21930  0.77800  0.72770  Biso   1.000  C
  C40      1.0000 0.78070  0.72200  0.22770  Biso   1.000  C
  C41      1.0000 0.71930  0.22200  0.22770  Biso   1.000  C
  C42      1.0000 0.21930  0.72200  0.22770  Biso   1.000  C
  C43      1.0000 0.28070  0.27800  0.72770  Biso   1.000  C
  C44      1.0000 0.28070  0.72200  0.27230  Biso   1.000  C
  C45      1.0000 0.71930  0.77800  0.77230  Biso   1.000  C
  C46      1.0000 0.78070  0.77800  0.72770  Biso   1.000  C
  C47      1.0000 0.78070  0.22200  0.27230  Biso   1.000  C
  C48      1.0000 0.21930  0.27800  0.77230  Biso   1.000  C
  C49      1.0000 0.28090  0.63800  0.77170  Biso   1.000  C
  C50      1.0000 0.78090  0.13800  0.77170  Biso   1.000  C
  C51      1.0000 0.71910  0.86200  0.27170  Biso   1.000  C
  C52      1.0000 0.71910  0.13800  0.72830  Biso   1.000  C
  C53      1.0000 0.28090  0.36200  0.22830  Biso   1.000  C
  C54      1.0000 0.21910  0.36200  0.27170  Biso   1.000  C
  C55      1.0000 0.21910  0.63800  0.72830  Biso   1.000  C
  C56      1.0000 0.78090  0.86200  0.22830  Biso   1.000  C
  C57      1.0000 0.71910  0.36200  0.22830  Biso   1.000  C
  C58      1.0000 0.21910  0.86200  0.22830  Biso   1.000  C
  C59      1.0000 0.28090  0.13800  0.72830  Biso   1.000  C
  C60      1.0000 0.28090  0.86200  0.27170  Biso   1.000  C
  C61      1.0000 0.71910  0.63800  0.77170  Biso   1.000  C
  C62      1.0000 0.78090  0.63800  0.72830  Biso   1.000  C
  C63      1.0000 0.78090  0.36200  0.27170  Biso   1.000  C
  C64      1.0000 0.21910  0.13800  0.77170  Biso   1.000  C
  C65      1.0000 0.55180  0.57710  0.15830  Biso   1.000  C
  C66      1.0000 0.05180  0.07710  0.15830  Biso   1.000  C
  C67      1.0000 0.44820  0.92290  0.65830  Biso   1.000  C
  C68      1.0000 0.44820  0.07710  0.34170  Biso   1.000  C
  C69      1.0000 0.55180  0.42290  0.84170  Biso   1.000  C
  C70      1.0000 0.94820  0.42290  0.65830  Biso   1.000  C
  C71      1.0000 0.94820  0.57710  0.34170  Biso   1.000  C
  C72      1.0000 0.05180  0.92290  0.84170  Biso   1.000  C
  C73      1.0000 0.44820  0.42290  0.84170  Biso   1.000  C
  C74      1.0000 0.94820  0.92290  0.84170  Biso   1.000  C
  C75      1.0000 0.55180  0.07710  0.34170  Biso   1.000  C
  C76      1.0000 0.55180  0.92290  0.65830  Biso   1.000  C
  C77      1.0000 0.44820  0.57710  0.15830  Biso   1.000  C
  C78      1.0000 0.05180  0.57710  0.34170  Biso   1.000  C
  C79      1.0000 0.05180  0.42290  0.65830  Biso   1.000  C
  C80      1.0000 0.94820  0.07710  0.15830  Biso   1.000  C
  C81      1.0000 0.55340  0.53890  0.32190  Biso   1.000  C
  C82      1.0000 0.05340  0.03890  0.32190  Biso   1.000  C
  C83      1.0000 0.44660  0.96110  0.82190  Biso   1.000  C
  C84      1.0000 0.44660  0.03890  0.17810  Biso   1.000  C
  C85      1.0000 0.55340  0.46110  0.67810  Biso   1.000  C
  C86      1.0000 0.94660  0.46110  0.82190  Biso   1.000  C
  C87      1.0000 0.94660  0.53890  0.17810  Biso   1.000  C
  C88      1.0000 0.05340  0.96110  0.67810  Biso   1.000  C
  C89      1.0000 0.44660  0.46110  0.67810  Biso   1.000  C
  C90      1.0000 0.94660  0.96110  0.67810  Biso   1.000  C
  C91      1.0000 0.55340  0.03890  0.17810  Biso   1.000  C
  C92      1.0000 0.55340  0.96110  0.82190  Biso   1.000  C
  C93      1.0000 0.44660  0.53890  0.32190  Biso   1.000  C
  C94      1.0000 0.05340  0.53890  0.17810  Biso   1.000  C
  C95      1.0000 0.05340  0.46110  0.82190  Biso   1.000  C
  C96      1.0000 0.94660  0.03890  0.32190  Biso   1.000  C
  C97      1.0000 0.50000  0.51940  0.40900  Biso   1.000  C
  C98      1.0000 0.00000  0.01940  0.40900  Biso   1.000  C
  C99      1.0000 0.50000  0.98060  0.90900  Biso   1.000  C
  C100     1.0000 0.50000  0.01940  0.09100  Biso   1.000  C
  C101     1.0000 0.50000  0.48060  0.59100  Biso   1.000  C
  C102     1.0000 0.00000  0.48060  0.90900  Biso   1.000  C
  C103     1.0000 0.00000  0.51940  0.09100  Biso   1.000  C
  C104     1.0000 0.00000  0.98060  0.59100  Biso   1.000  C
  H1       1.0000 0.53560  0.69640  0.55230  Biso   1.000  H
  H2       1.0000 0.03560  0.19640  0.55230  Biso   1.000  H
  H3       1.0000 0.46440  0.80360  0.05230  Biso   1.000  H
  H4       1.0000 0.46440  0.19640  0.94770  Biso   1.000  H
  H5       1.0000 0.53560  0.30360  0.44770  Biso   1.000  H
  H6       1.0000 0.96440  0.30360  0.05230  Biso   1.000  H
  H7       1.0000 0.96440  0.69640  0.94770  Biso   1.000  H
  H8       1.0000 0.03560  0.80360  0.44770  Biso   1.000  H
  H9       1.0000 0.46440  0.30360  0.44770  Biso   1.000  H
  H10      1.0000 0.96440  0.80360  0.44770  Biso   1.000  H
  H11      1.0000 0.53560  0.19640  0.94770  Biso   1.000  H
  H12      1.0000 0.53560  0.80360  0.05230  Biso   1.000  H
  H13      1.0000 0.46440  0.69640  0.55230  Biso   1.000  H
  H14      1.0000 0.03560  0.69640  0.94770  Biso   1.000  H
  H15      1.0000 0.03560  0.30360  0.05230  Biso   1.000  H
  H16      1.0000 0.96440  0.19640  0.55230  Biso   1.000  H
  H17      1.0000 0.30120  0.82640  0.78680  Biso   1.000  H
  H18      1.0000 0.80120  0.32640  0.78680  Biso   1.000  H
  H19      1.0000 0.69880  0.67360  0.28680  Biso   1.000  H
  H20      1.0000 0.69880  0.32640  0.71320  Biso   1.000  H
  H21      1.0000 0.30120  0.17360  0.21320  Biso   1.000  H
  H22      1.0000 0.19880  0.17360  0.28680  Biso   1.000  H
  H23      1.0000 0.19880  0.82640  0.71320  Biso   1.000  H
  H24      1.0000 0.80120  0.67360  0.21320  Biso   1.000  H
  H25      1.0000 0.69880  0.17360  0.21320  Biso   1.000  H
  H26      1.0000 0.19880  0.67360  0.21320  Biso   1.000  H
  H27      1.0000 0.30120  0.32640  0.71320  Biso   1.000  H
  H28      1.0000 0.30120  0.67360  0.28680  Biso   1.000  H
  H29      1.0000 0.69880  0.82640  0.78680  Biso   1.000  H
  H30      1.0000 0.80120  0.82640  0.71320  Biso   1.000  H
  H31      1.0000 0.80120  0.17360  0.28680  Biso   1.000  H
  H32      1.0000 0.19880  0.32640  0.78680  Biso   1.000  H
  H33      1.0000 0.30150  0.58950  0.78480  Biso   1.000  H
  H34      1.0000 0.80150  0.08950  0.78480  Biso   1.000  H
  H35      1.0000 0.69850  0.91050  0.28480  Biso   1.000  H
  H36      1.0000 0.69850  0.08950  0.71520  Biso   1.000  H
  H37      1.0000 0.30150  0.41050  0.21520  Biso   1.000  H
  H38      1.0000 0.19850  0.41050  0.28480  Biso   1.000  H
  H39      1.0000 0.19850  0.58950  0.71520  Biso   1.000  H
  H40      1.0000 0.80150  0.91050  0.21520  Biso   1.000  H
  H41      1.0000 0.69850  0.41050  0.21520  Biso   1.000  H
  H42      1.0000 0.19850  0.91050  0.21520  Biso   1.000  H
  H43      1.0000 0.30150  0.08950  0.71520  Biso   1.000  H
  H44      1.0000 0.30150  0.91050  0.28480  Biso   1.000  H
  H45      1.0000 0.69850  0.58950  0.78480  Biso   1.000  H
  H46      1.0000 0.80150  0.58950  0.71520  Biso   1.000  H
  H47      1.0000 0.80150  0.41050  0.28480  Biso   1.000  H
  H48      1.0000 0.19850  0.08950  0.78480  Biso   1.000  H
  H49      1.0000 0.58910  0.59040  0.10380  Biso   1.000  H
  H50      1.0000 0.08910  0.09040  0.10380  Biso   1.000  H
  H51      1.0000 0.41090  0.90960  0.60380  Biso   1.000  H
  H52      1.0000 0.41090  0.09040  0.39620  Biso   1.000  H
  H53      1.0000 0.58910  0.40960  0.89620  Biso   1.000  H
  H54      1.0000 0.91090  0.40960  0.60380  Biso   1.000  H
  H55      1.0000 0.91090  0.59040  0.39620  Biso   1.000  H
  H56      1.0000 0.08910  0.90960  0.89620  Biso   1.000  H
  H57      1.0000 0.41090  0.40960  0.89620  Biso   1.000  H
  H58      1.0000 0.91090  0.90960  0.89620  Biso   1.000  H
  H59      1.0000 0.58910  0.09040  0.39620  Biso   1.000  H
  H60      1.0000 0.58910  0.90960  0.60380  Biso   1.000  H
  H61      1.0000 0.41090  0.59040  0.10380  Biso   1.000  H
  H62      1.0000 0.08910  0.59040  0.39620  Biso   1.000  H
  H63      1.0000 0.08910  0.40960  0.60380  Biso   1.000  H
  H64      1.0000 0.91090  0.09040  0.10380  Biso   1.000  H
  H65      1.0000 0.59120  0.52620  0.37410  Biso   1.000  H
  H66      1.0000 0.09120  0.02620  0.37410  Biso   1.000  H
  H67      1.0000 0.40880  0.97380  0.87410  Biso   1.000  H
  H68      1.0000 0.40880  0.02620  0.12590  Biso   1.000  H
  H69      1.0000 0.59120  0.47380  0.62590  Biso   1.000  H
  H70      1.0000 0.90880  0.47380  0.87410  Biso   1.000  H
  H71      1.0000 0.90880  0.52620  0.12590  Biso   1.000  H
  H72      1.0000 0.09120  0.97380  0.62590  Biso   1.000  H
  H73      1.0000 0.40880  0.47380  0.62590  Biso   1.000  H
  H74      1.0000 0.90880  0.97380  0.62590  Biso   1.000  H
  H75      1.0000 0.59120  0.02620  0.12590  Biso   1.000  H
  H76      1.0000 0.59120  0.97380  0.87410  Biso   1.000  H
  H77      1.0000 0.40880  0.52620  0.37410  Biso   1.000  H
  H78      1.0000 0.09120  0.52620  0.12590  Biso   1.000  H
  H79      1.0000 0.09120  0.47380  0.87410  Biso   1.000  H
  H80      1.0000 0.90880  0.02620  0.37410  Biso   1.000  H
