data_image0
_cell_length_a       8.955
_cell_length_b       15.915
_cell_length_c       10.29
_cell_angle_alpha    79.2
_cell_angle_beta     68.24
_cell_angle_gamma    76.44

_symmetry_space_group_name_H-M    "P 1"
_symmetry_int_tables_number       1

loop_
  _symmetry_equiv_pos_as_xyz
  'x, y, z'

loop_
  _atom_site_label
  _atom_site_occupancy
  _atom_site_fract_x
  _atom_site_fract_y
  _atom_site_fract_z
  _atom_site_thermal_displace_type
  _atom_site_B_iso_or_equiv
  _atom_site_type_symbol
  Cu1      1.0000 0.00000  0.00000  0.00000  Biso   1.000  Cu
  O1       1.0000 0.78930  0.05360  0.12630  Biso   1.000  O
  O2       1.0000 0.21070  0.94640  0.87370  Biso   1.000  O
  O3       1.0000 0.05280  0.92460  0.15370  Biso   1.000  O
  O4       1.0000 0.94720  0.07540  0.84630  Biso   1.000  O
  C1       1.0000 0.74940  0.04270  0.25800  Biso   1.000  C
  C2       1.0000 0.25060  0.95730  0.74200  Biso   1.000  C
  C3       1.0000 0.58530  0.10110  0.33020  Biso   1.000  C
  C4       1.0000 0.41470  0.89890  0.66980  Biso   1.000  C
  C5       1.0000 0.82710  0.98620  0.33920  Biso   1.000  C
  C6       1.0000 0.17290  0.01380  0.66080  Biso   1.000  C
  C7       1.0000 0.97030  0.93050  0.28140  Biso   1.000  C
  C8       1.0000 0.02970  0.06950  0.71860  Biso   1.000  C
  C9       1.0000 0.03950  0.86990  0.38370  Biso   1.000  C
  C10      1.0000 0.96050  0.13010  0.61630  Biso   1.000  C
  F1       1.0000 0.46260  0.07280  0.32210  Biso   1.000  F
  F2       1.0000 0.53740  0.92720  0.67790  Biso   1.000  F
  F3       1.0000 0.57640  0.18090  0.27090  Biso   1.000  F
  F4       1.0000 0.42360  0.81910  0.72910  Biso   1.000  F
  F5       1.0000 0.55560  0.09960  0.46560  Biso   1.000  F
  F6       1.0000 0.44440  0.90040  0.53440  Biso   1.000  F
  F7       1.0000 0.17560  0.87110  0.37170  Biso   1.000  F
  F8       1.0000 0.82440  0.12890  0.62830  Biso   1.000  F
  F9       1.0000 0.95910  0.86290  0.50570  Biso   1.000  F
  F10      1.0000 0.04090  0.13710  0.49430  Biso   1.000  F
  F11      1.0000 0.07140  0.79300  0.35020  Biso   1.000  F
  F12      1.0000 0.92860  0.20700  0.64980  Biso   1.000  F
  Cu2      1.0000 0.00000  0.50000  0.00000  Biso   1.000  Cu
  O5       1.0000 0.86880  0.43250  0.15880  Biso   1.000  O
  O6       1.0000 0.13120  0.56750  0.84120  Biso   1.000  O
  O7       1.0000 0.17840  0.47240  0.07350  Biso   1.000  O
  O8       1.0000 0.82160  0.52760  0.92650  Biso   1.000  O
  C11      1.0000 0.89330  0.41170  0.27310  Biso   1.000  C
  C12      1.0000 0.10670  0.58830  0.72690  Biso   1.000  C
  C13      1.0000 0.75770  0.37430  0.38930  Biso   1.000  C
  C14      1.0000 0.24230  0.62570  0.61070  Biso   1.000  C
  C15      1.0000 0.02800  0.41700  0.30340  Biso   1.000  C
  C16      1.0000 0.97200  0.58300  0.69660  Biso   1.000  C
  C17      1.0000 0.16060  0.44530  0.19960  Biso   1.000  C
  C18      1.0000 0.83940  0.55470  0.80040  Biso   1.000  C
  C19      1.0000 0.30750  0.44770  0.24050  Biso   1.000  C
  C20      1.0000 0.69250  0.55230  0.75950  Biso   1.000  C
  F13      1.0000 0.74330  0.30270  0.36600  Biso   1.000  F
  F14      1.0000 0.25670  0.69730  0.63400  Biso   1.000  F
  F15      1.0000 0.61900  0.42470  0.40500  Biso   1.000  F
  F16      1.0000 0.38100  0.57530  0.59500  Biso   1.000  F
  F17      1.0000 0.76820  0.36000  0.51140  Biso   1.000  F
  F18      1.0000 0.23180  0.64000  0.48860  Biso   1.000  F
  F19      1.0000 0.29320  0.42390  0.36440  Biso   1.000  F
  F20      1.0000 0.70680  0.57610  0.63560  Biso   1.000  F
  F21      1.0000 0.35330  0.51910  0.20510  Biso   1.000  F
  F22      1.0000 0.64670  0.48090  0.79490  Biso   1.000  F
  F23      1.0000 0.43570  0.39530  0.16660  Biso   1.000  F
  F24      1.0000 0.56430  0.60470  0.83340  Biso   1.000  F
  O9       1.0000 0.10370  0.10790  0.04880  Biso   1.000  O
  O10      1.0000 0.89630  0.89210  0.95120  Biso   1.000  O
  O11      1.0000 0.09690  0.38860  0.84030  Biso   1.000  O
  O12      1.0000 0.90310  0.61140  0.15970  Biso   1.000  O
  N1       1.0000 0.15220  0.17730  0.97560  Biso   1.000  N
  N2       1.0000 0.84780  0.82270  0.02440  Biso   1.000  N
  N3       1.0000 0.15000  0.30980  0.87880  Biso   1.000  N
  N4       1.0000 0.85000  0.69020  0.12120  Biso   1.000  N
  C21      1.0000 0.05680  0.25120  0.95070  Biso   1.000  C
  C22      1.0000 0.94320  0.74880  0.04930  Biso   1.000  C
  C23      1.0000 0.87640  0.26700  0.99570  Biso   1.000  C
  C24      1.0000 0.12360  0.73300  0.00430  Biso   1.000  C
  C25      1.0000 0.32710  0.27020  0.82560  Biso   1.000  C
  C26      1.0000 0.67290  0.72980  0.17440  Biso   1.000  C
  C27      1.0000 0.43020  0.33340  0.82860  Biso   1.000  C
  C28      1.0000 0.56980  0.66660  0.17140  Biso   1.000  C
  C29      1.0000 0.36510  0.25410  0.67350  Biso   1.000  C
  C30      1.0000 0.63490  0.74590  0.32650  Biso   1.000  C
  C31      1.0000 0.32700  0.18770  0.92800  Biso   1.000  C
  C32      1.0000 0.67300  0.81230  0.07200  Biso   1.000  C
  C33      1.0000 0.35010  0.19990  0.06280  Biso   1.000  C
  C34      1.0000 0.64990  0.80010  0.93720  Biso   1.000  C
  C35      1.0000 0.43730  0.10650  0.86580  Biso   1.000  C
  C36      1.0000 0.56270  0.89350  0.13420  Biso   1.000  C
