data_image0
_cell_length_a       16.258
_cell_length_b       9.5904
_cell_length_c       18.92
_cell_angle_alpha    90
_cell_angle_beta     102.346
_cell_angle_gamma    90

_symmetry_space_group_name_H-M    "P 1"
_symmetry_int_tables_number       1

loop_
  _symmetry_equiv_pos_as_xyz
  'x, y, z'

loop_
  _atom_site_label
  _atom_site_occupancy
  _atom_site_fract_x
  _atom_site_fract_y
  _atom_site_fract_z
  _atom_site_thermal_displace_type
  _atom_site_B_iso_or_equiv
  _atom_site_type_symbol
  C1       1.0000 0.08910  0.26770  0.27110  Biso   1.000  C
  C2       1.0000 0.91090  0.76770  0.22890  Biso   1.000  C
  C3       1.0000 0.91090  0.73230  0.72890  Biso   1.000  C
  C4       1.0000 0.08910  0.23230  0.77110  Biso   1.000  C
  H1       1.0000 0.11660  0.21040  0.30840  Biso   1.000  H
  H2       1.0000 0.88340  0.71040  0.19160  Biso   1.000  H
  H3       1.0000 0.88340  0.78960  0.69160  Biso   1.000  H
  H4       1.0000 0.11660  0.28960  0.80840  Biso   1.000  H
  C5       1.0000 0.00240  0.26690  0.25300  Biso   1.000  C
  C6       1.0000 0.99760  0.76690  0.24700  Biso   1.000  C
  C7       1.0000 0.99760  0.73310  0.74700  Biso   1.000  C
  C8       1.0000 0.00240  0.23310  0.75300  Biso   1.000  C
  H5       1.0000 0.97210  0.21060  0.27830  Biso   1.000  H
  H6       1.0000 0.02790  0.71060  0.22170  Biso   1.000  H
  H7       1.0000 0.02790  0.78940  0.72170  Biso   1.000  H
  H8       1.0000 0.97210  0.28940  0.77830  Biso   1.000  H
  C9       1.0000 0.96080  0.34900  0.19760  Biso   1.000  C
  C10      1.0000 0.03920  0.84900  0.30240  Biso   1.000  C
  C11      1.0000 0.03920  0.65100  0.80240  Biso   1.000  C
  C12      1.0000 0.96080  0.15100  0.69760  Biso   1.000  C
  H9       1.0000 0.90230  0.34810  0.18460  Biso   1.000  H
  H10      1.0000 0.09770  0.84810  0.31540  Biso   1.000  H
  H11      1.0000 0.09770  0.65190  0.81540  Biso   1.000  H
  H12      1.0000 0.90230  0.15190  0.68460  Biso   1.000  H
  C13      1.0000 0.00693  0.43330  0.16128  Biso   1.000  C
  C14      1.0000 0.99307  0.93330  0.33872  Biso   1.000  C
  C15      1.0000 0.99307  0.56670  0.83872  Biso   1.000  C
  C16      1.0000 0.00693  0.06670  0.66128  Biso   1.000  C
  C17      1.0000 0.09383  0.42930  0.18286  Biso   1.000  C
  C18      1.0000 0.90617  0.92930  0.31714  Biso   1.000  C
  C19      1.0000 0.90617  0.57070  0.81714  Biso   1.000  C
  C20      1.0000 0.09383  0.07070  0.68286  Biso   1.000  C
  H13      1.0000 0.12540  0.48580  0.15870  Biso   1.000  H
  H14      1.0000 0.87460  0.98580  0.34130  Biso   1.000  H
  H15      1.0000 0.87460  0.51420  0.84130  Biso   1.000  H
  H16      1.0000 0.12540  0.01420  0.65870  Biso   1.000  H
  C21      1.0000 0.99680  0.61660  0.06710  Biso   1.000  C
  C22      1.0000 0.00320  0.11660  0.43290  Biso   1.000  C
  C23      1.0000 0.00320  0.38340  0.93290  Biso   1.000  C
  C24      1.0000 0.99680  0.88340  0.56710  Biso   1.000  C
  C25      1.0000 0.93190  0.68860  0.00980  Biso   1.000  C
  C26      1.0000 0.06810  0.18860  0.49020  Biso   1.000  C
  C27      1.0000 0.06810  0.31140  0.99020  Biso   1.000  C
  C28      1.0000 0.93190  0.81140  0.50980  Biso   1.000  C
  H17      1.0000 0.88740  0.72390  0.03180  Biso   1.000  H
  H18      1.0000 0.11260  0.22390  0.46820  Biso   1.000  H
  H19      1.0000 0.11260  0.27610  0.96820  Biso   1.000  H
  H20      1.0000 0.88740  0.77610  0.53180  Biso   1.000  H
  H21      1.0000 0.90710  0.62080  0.97340  Biso   1.000  H
  H22      1.0000 0.09290  0.12080  0.52660  Biso   1.000  H
  H23      1.0000 0.09290  0.37920  0.02660  Biso   1.000  H
  H24      1.0000 0.90710  0.87920  0.47340  Biso   1.000  H
  C29      1.0000 0.96750  0.80880  0.97296  Biso   1.000  C
  C30      1.0000 0.03250  0.30880  0.52704  Biso   1.000  C
  C31      1.0000 0.03250  0.19120  0.02704  Biso   1.000  C
  C32      1.0000 0.96750  0.69120  0.47296  Biso   1.000  C
  H25      1.0000 0.01960  0.77890  0.96050  Biso   1.000  H
  H26      1.0000 0.98040  0.27890  0.53950  Biso   1.000  H
  H27      1.0000 0.98040  0.22110  0.03950  Biso   1.000  H
  H28      1.0000 0.01960  0.72110  0.46050  Biso   1.000  H
  H29      1.0000 0.92800  0.83160  0.92830  Biso   1.000  H
  H30      1.0000 0.07200  0.33160  0.57170  Biso   1.000  H
  H31      1.0000 0.07200  0.16840  0.07170  Biso   1.000  H
  H32      1.0000 0.92800  0.66840  0.42830  Biso   1.000  H
  C33      1.0000 0.98460  0.93950  0.01950  Biso   1.000  C
  C34      1.0000 0.01540  0.43950  0.48050  Biso   1.000  C
  C35      1.0000 0.01540  0.06050  0.98050  Biso   1.000  C
  C36      1.0000 0.98460  0.56050  0.51950  Biso   1.000  C
  H33      1.0000 0.93320  0.96690  0.03410  Biso   1.000  H
  H34      1.0000 0.06680  0.46690  0.46590  Biso   1.000  H
  H35      1.0000 0.06680  0.03310  0.96590  Biso   1.000  H
  H36      1.0000 0.93320  0.53310  0.53410  Biso   1.000  H
  H37      1.0000 0.02640  0.91840  0.06290  Biso   1.000  H
  H38      1.0000 0.97360  0.41840  0.43710  Biso   1.000  H
  H39      1.0000 0.97360  0.08160  0.93710  Biso   1.000  H
  H40      1.0000 0.02640  0.58160  0.56290  Biso   1.000  H
  C37      1.0000 0.52630  0.56150  0.49260  Biso   1.000  C
  C38      1.0000 0.47370  0.06150  0.00740  Biso   1.000  C
  C39      1.0000 0.47370  0.43850  0.50740  Biso   1.000  C
  C40      1.0000 0.52630  0.93850  0.99260  Biso   1.000  C
  H41      1.0000 0.56480  0.53040  0.46310  Biso   1.000  H
  H42      1.0000 0.43520  0.03040  0.03690  Biso   1.000  H
  H43      1.0000 0.43520  0.46960  0.53690  Biso   1.000  H
  H44      1.0000 0.56480  0.96960  0.96310  Biso   1.000  H
  H45      1.0000 0.55970  0.59510  0.53810  Biso   1.000  H
  H46      1.0000 0.44030  0.09510  0.96190  Biso   1.000  H
  H47      1.0000 0.44030  0.40490  0.46190  Biso   1.000  H
  H48      1.0000 0.55970  0.90490  0.03810  Biso   1.000  H
  C41      1.0000 0.47330  0.68140  0.45410  Biso   1.000  C
  C42      1.0000 0.52670  0.18140  0.04590  Biso   1.000  C
  C43      1.0000 0.52670  0.31860  0.54590  Biso   1.000  C
  C44      1.0000 0.47330  0.81860  0.95410  Biso   1.000  C
  H49      1.0000 0.43900  0.64780  0.40890  Biso   1.000  H
  H50      1.0000 0.56100  0.14780  0.09110  Biso   1.000  H
  H51      1.0000 0.56100  0.35220  0.59110  Biso   1.000  H
  H52      1.0000 0.43900  0.85220  0.90890  Biso   1.000  H
  H53      1.0000 0.43570  0.71440  0.48400  Biso   1.000  H
  H54      1.0000 0.56430  0.21440  0.01600  Biso   1.000  H
  H55      1.0000 0.56430  0.28560  0.51600  Biso   1.000  H
  H56      1.0000 0.43570  0.78560  0.98400  Biso   1.000  H
  C45      1.0000 0.52750  0.80130  0.43860  Biso   1.000  C
  C46      1.0000 0.47250  0.30130  0.06140  Biso   1.000  C
  C47      1.0000 0.47250  0.19870  0.56140  Biso   1.000  C
  C48      1.0000 0.52750  0.69870  0.93860  Biso   1.000  C
  H57      1.0000 0.56360  0.76840  0.40740  Biso   1.000  H
  H58      1.0000 0.43640  0.26840  0.09260  Biso   1.000  H
  H59      1.0000 0.43640  0.23160  0.59260  Biso   1.000  H
  H60      1.0000 0.56360  0.73160  0.90740  Biso   1.000  H
  H61      1.0000 0.56340  0.83170  0.48370  Biso   1.000  H
  H62      1.0000 0.43660  0.33170  0.01630  Biso   1.000  H
  H63      1.0000 0.43660  0.16830  0.51630  Biso   1.000  H
  H64      1.0000 0.56340  0.66830  0.98370  Biso   1.000  H
  C49      1.0000 0.47670  0.92510  0.40280  Biso   1.000  C
  C50      1.0000 0.52330  0.42510  0.09720  Biso   1.000  C
  C51      1.0000 0.52330  0.07490  0.59720  Biso   1.000  C
  C52      1.0000 0.47670  0.57490  0.90280  Biso   1.000  C
  C53      1.0000 0.41230  0.19390  0.32837  Biso   1.000  C
  C54      1.0000 0.58770  0.69390  0.17163  Biso   1.000  C
  C55      1.0000 0.58770  0.80610  0.67163  Biso   1.000  C
  C56      1.0000 0.41230  0.30610  0.82837  Biso   1.000  C
  H65      1.0000 0.37150  0.12980  0.33460  Biso   1.000  H
  H66      1.0000 0.62850  0.62980  0.16540  Biso   1.000  H
  H67      1.0000 0.62850  0.87020  0.66540  Biso   1.000  H
  H68      1.0000 0.37150  0.37020  0.83460  Biso   1.000  H
  C57      1.0000 0.49651  0.16090  0.35401  Biso   1.000  C
  C58      1.0000 0.50349  0.66090  0.14599  Biso   1.000  C
  C59      1.0000 0.50349  0.83910  0.64599  Biso   1.000  C
  C60      1.0000 0.49651  0.33910  0.85401  Biso   1.000  C
  C61      1.0000 0.55620  0.25740  0.34450  Biso   1.000  C
  C62      1.0000 0.44380  0.75740  0.15550  Biso   1.000  C
  C63      1.0000 0.44380  0.74260  0.65550  Biso   1.000  C
  C64      1.0000 0.55620  0.24260  0.84450  Biso   1.000  C
  H69      1.0000 0.61320  0.23920  0.36150  Biso   1.000  H
  H70      1.0000 0.38680  0.73920  0.13850  Biso   1.000  H
  H71      1.0000 0.38680  0.76080  0.63850  Biso   1.000  H
  H72      1.0000 0.61320  0.26080  0.86150  Biso   1.000  H
  C65      1.0000 0.53050  0.38150  0.30950  Biso   1.000  C
  C66      1.0000 0.46950  0.88150  0.19050  Biso   1.000  C
  C67      1.0000 0.46950  0.61850  0.69050  Biso   1.000  C
  C68      1.0000 0.53050  0.11850  0.80950  Biso   1.000  C
  H73      1.0000 0.57000  0.44690  0.30200  Biso   1.000  H
  H74      1.0000 0.43000  0.94690  0.19800  Biso   1.000  H
  H75      1.0000 0.43000  0.55310  0.69800  Biso   1.000  H
  H76      1.0000 0.57000  0.05310  0.80200  Biso   1.000  H
  C69      1.0000 0.44620  0.40670  0.28597  Biso   1.000  C
  C70      1.0000 0.55380  0.90670  0.21403  Biso   1.000  C
  C71      1.0000 0.55380  0.59330  0.71403  Biso   1.000  C
  C72      1.0000 0.44620  0.09330  0.78597  Biso   1.000  C
  H77      1.0000 0.42910  0.49080  0.26300  Biso   1.000  H
  H78      1.0000 0.57090  0.99080  0.23700  Biso   1.000  H
  H79      1.0000 0.57090  0.50920  0.73700  Biso   1.000  H
  H80      1.0000 0.42910  0.00920  0.76300  Biso   1.000  H
  C73      1.0000 0.25719  0.11730  0.03713  Biso   1.000  C
  C74      1.0000 0.74281  0.61730  0.46287  Biso   1.000  C
  C75      1.0000 0.74281  0.88270  0.96287  Biso   1.000  C
  C76      1.0000 0.25719  0.38270  0.53713  Biso   1.000  C
  H81      1.0000 0.27030  0.21180  0.03830  Biso   1.000  H
  H82      1.0000 0.72970  0.71180  0.46170  Biso   1.000  H
  H83      1.0000 0.72970  0.78820  0.96170  Biso   1.000  H
  H84      1.0000 0.27030  0.28820  0.53830  Biso   1.000  H
  C77      1.0000 0.25015  0.04430  0.97269  Biso   1.000  C
  C78      1.0000 0.74985  0.54430  0.52731  Biso   1.000  C
  C79      1.0000 0.74985  0.95570  0.02731  Biso   1.000  C
  C80      1.0000 0.25015  0.45570  0.47269  Biso   1.000  C
  C81      1.0000 0.23160  0.90240  0.97171  Biso   1.000  C
  C82      1.0000 0.76840  0.40240  0.52829  Biso   1.000  C
  C83      1.0000 0.76840  0.09760  0.02829  Biso   1.000  C
  C84      1.0000 0.23160  0.59760  0.47171  Biso   1.000  C
  H85      1.0000 0.22820  0.85120  0.92940  Biso   1.000  H
  H86      1.0000 0.77180  0.35120  0.57060  Biso   1.000  H
  H87      1.0000 0.77180  0.14880  0.07060  Biso   1.000  H
  H88      1.0000 0.22820  0.64880  0.42940  Biso   1.000  H
  C85      1.0000 0.21810  0.83760  0.03344  Biso   1.000  C
  C86      1.0000 0.78190  0.33760  0.46656  Biso   1.000  C
  C87      1.0000 0.78190  0.16240  0.96656  Biso   1.000  C
  C88      1.0000 0.21810  0.66240  0.53344  Biso   1.000  C
  H89      1.0000 0.20480  0.74320  0.03230  Biso   1.000  H
  H90      1.0000 0.79520  0.24320  0.46770  Biso   1.000  H
  H91      1.0000 0.79520  0.25680  0.96770  Biso   1.000  H
  H92      1.0000 0.20480  0.75680  0.53230  Biso   1.000  H
  C89      1.0000 0.22420  0.91200  0.09651  Biso   1.000  C
  C90      1.0000 0.77580  0.41200  0.40349  Biso   1.000  C
  C91      1.0000 0.77580  0.08800  0.90349  Biso   1.000  C
  C92      1.0000 0.22420  0.58800  0.59651  Biso   1.000  C
  H93      1.0000 0.21420  0.86760  0.13760  Biso   1.000  H
  H94      1.0000 0.78580  0.36760  0.36240  Biso   1.000  H
  H95      1.0000 0.78580  0.13240  0.86240  Biso   1.000  H
  H96      1.0000 0.21420  0.63240  0.63760  Biso   1.000  H
  C93      1.0000 0.24527  0.05320  0.09961  Biso   1.000  C
  C94      1.0000 0.75473  0.55320  0.40039  Biso   1.000  C
  C95      1.0000 0.75473  0.94680  0.90039  Biso   1.000  C
  C96      1.0000 0.24527  0.44680  0.59961  Biso   1.000  C
  C97      1.0000 0.25104  0.13320  0.16844  Biso   1.000  C
  C98      1.0000 0.74896  0.63320  0.33156  Biso   1.000  C
  C99      1.0000 0.74896  0.86680  0.83156  Biso   1.000  C
  C100     1.0000 0.25104  0.36680  0.66844  Biso   1.000  C
  C101     1.0000 0.25910  0.11900  0.90551  Biso   1.000  C
  C102     1.0000 0.74090  0.61900  0.59449  Biso   1.000  C
  C103     1.0000 0.74090  0.88100  0.09449  Biso   1.000  C
  C104     1.0000 0.25910  0.38100  0.40551  Biso   1.000  C
  N1       1.0000 0.13468  0.34840  0.23663  Biso   1.000  N
  N2       1.0000 0.86532  0.84840  0.26337  Biso   1.000  N
  N3       1.0000 0.86532  0.65160  0.76337  Biso   1.000  N
  N4       1.0000 0.13468  0.15160  0.73663  Biso   1.000  N
  N5       1.0000 0.38750  0.31490  0.29489  Biso   1.000  N
  N6       1.0000 0.61250  0.81490  0.20511  Biso   1.000  N
  N7       1.0000 0.61250  0.68510  0.70511  Biso   1.000  N
  N8       1.0000 0.38750  0.18510  0.79489  Biso   1.000  N
  N9       1.0000 0.96365  0.51710  0.10482  Biso   1.000  N
  N10      1.0000 0.03635  0.01710  0.39518  Biso   1.000  N
  N11      1.0000 0.03635  0.48290  0.89518  Biso   1.000  N
  N12      1.0000 0.96365  0.98290  0.60482  Biso   1.000  N
  H97      1.0000 0.91010  0.50460  0.09240  Biso   1.000  H
  H98      1.0000 0.08990  0.00460  0.40760  Biso   1.000  H
  H99      1.0000 0.08990  0.49540  0.90760  Biso   1.000  H
  H100     1.0000 0.91010  0.99540  0.59240  Biso   1.000  H
  N13      1.0000 0.52397  0.03430  0.38904  Biso   1.000  N
  N14      1.0000 0.47603  0.53430  0.11096  Biso   1.000  N
  N15      1.0000 0.47603  0.96570  0.61096  Biso   1.000  N
  N16      1.0000 0.52397  0.46570  0.88904  Biso   1.000  N
  H101     1.0000 0.57750  0.02510  0.40360  Biso   1.000  H
  H102     1.0000 0.42250  0.52510  0.09640  Biso   1.000  H
  H103     1.0000 0.42250  0.97490  0.59640  Biso   1.000  H
  H104     1.0000 0.57750  0.47490  0.90360  Biso   1.000  H
  O1       1.0000 0.26323  0.26600  0.16617  Biso   1.000  O
  O2       1.0000 0.73677  0.76600  0.33383  Biso   1.000  O
  O3       1.0000 0.73677  0.73400  0.83383  Biso   1.000  O
  O4       1.0000 0.26323  0.23400  0.66617  Biso   1.000  O
  O5       1.0000 0.27844  0.57510  0.21746  Biso   1.000  O
  O6       1.0000 0.72156  0.07510  0.28254  Biso   1.000  O
  O7       1.0000 0.72156  0.42490  0.78254  Biso   1.000  O
  O8       1.0000 0.27844  0.92490  0.71746  Biso   1.000  O
  H105     1.0000 0.27610  0.63490  0.25010  Biso   1.000  H
  H106     1.0000 0.72390  0.13490  0.24990  Biso   1.000  H
  H107     1.0000 0.72390  0.36510  0.74990  Biso   1.000  H
  H108     1.0000 0.27610  0.86510  0.75010  Biso   1.000  H
  H109     1.0000 0.23920  0.59060  0.18070  Biso   1.000  H
  H110     1.0000 0.76080  0.09060  0.31930  Biso   1.000  H
  H111     1.0000 0.76080  0.40940  0.81930  Biso   1.000  H
  H112     1.0000 0.23920  0.90940  0.68070  Biso   1.000  H
  O9       1.0000 0.24419  0.07390  0.22500  Biso   1.000  O
  O10      1.0000 0.75581  0.57390  0.27500  Biso   1.000  O
  O11      1.0000 0.75581  0.92610  0.77500  Biso   1.000  O
  O12      1.0000 0.24419  0.42610  0.72500  Biso   1.000  O
  O13      1.0000 0.26095  0.04430  0.85063  Biso   1.000  O
  O14      1.0000 0.73905  0.54430  0.64937  Biso   1.000  O
  O15      1.0000 0.73905  0.95570  0.14937  Biso   1.000  O
  O16      1.0000 0.26095  0.45570  0.35063  Biso   1.000  O
  O17      1.0000 0.26256  0.24910  0.90491  Biso   1.000  O
  O18      1.0000 0.73744  0.74910  0.59509  Biso   1.000  O
  O19      1.0000 0.73744  0.75090  0.09509  Biso   1.000  O
  O20      1.0000 0.26256  0.25090  0.40491  Biso   1.000  O
  O21      1.0000 0.07130  0.64260  0.07901  Biso   1.000  O
  O22      1.0000 0.92870  0.14260  0.42099  Biso   1.000  O
  O23      1.0000 0.92870  0.35740  0.92099  Biso   1.000  O
  O24      1.0000 0.07130  0.85740  0.57901  Biso   1.000  O
  O25      1.0000 0.40002  0.92690  0.38878  Biso   1.000  O
  O26      1.0000 0.59998  0.42690  0.11122  Biso   1.000  O
  O27      1.0000 0.59998  0.07310  0.61122  Biso   1.000  O
  O28      1.0000 0.40002  0.57310  0.88878  Biso   1.000  O
  Cu1      1.0000 0.26215  0.35270  0.26183  Biso   1.000  Cu
  Cu2      1.0000 0.73785  0.85270  0.23817  Biso   1.000  Cu
  Cu3      1.0000 0.73785  0.64730  0.73817  Biso   1.000  Cu
  Cu4      1.0000 0.26215  0.14730  0.76183  Biso   1.000  Cu
  O29      1.0000 0.29465  0.49560  0.08107  Biso   1.000  O
  O30      1.0000 0.70535  0.99560  0.41893  Biso   1.000  O
  O31      1.0000 0.70535  0.50440  0.91893  Biso   1.000  O
  O32      1.0000 0.29465  0.00440  0.58107  Biso   1.000  O
  H113     1.0000 0.27060  0.50060  0.03660  Biso   1.000  H
  H114     1.0000 0.72940  0.00060  0.46340  Biso   1.000  H
  H115     1.0000 0.72940  0.49940  0.96340  Biso   1.000  H
  H116     1.0000 0.27060  0.99940  0.53660  Biso   1.000  H
  H117     1.0000 0.28100  0.41960  0.09870  Biso   1.000  H
  H118     1.0000 0.71900  0.91960  0.40130  Biso   1.000  H
  H119     1.0000 0.71900  0.58040  0.90130  Biso   1.000  H
  H120     1.0000 0.28100  0.08040  0.59870  Biso   1.000  H
  O33      1.0000 0.22241  0.99120  0.43218  Biso   1.000  O
  O34      1.0000 0.77759  0.49120  0.06782  Biso   1.000  O
  O35      1.0000 0.77759  0.00880  0.56782  Biso   1.000  O
  O36      1.0000 0.22241  0.50880  0.93218  Biso   1.000  O
  H121     1.0000 0.24440  0.93770  0.40550  Biso   1.000  H
  H122     1.0000 0.75560  0.43770  0.09450  Biso   1.000  H
  H123     1.0000 0.75560  0.06230  0.59450  Biso   1.000  H
  H124     1.0000 0.24440  0.56230  0.90550  Biso   1.000  H
  H125     1.0000 0.23560  0.07530  0.42550  Biso   1.000  H
  H126     1.0000 0.76440  0.57530  0.07450  Biso   1.000  H
  H127     1.0000 0.76440  0.92470  0.57450  Biso   1.000  H
  H128     1.0000 0.23560  0.42470  0.92550  Biso   1.000  H
  O37      1.0000 0.25613  0.81950  0.29639  Biso   1.000  O
  O38      1.0000 0.74387  0.31950  0.20361  Biso   1.000  O
  O39      1.0000 0.74387  0.18050  0.70361  Biso   1.000  O
  O40      1.0000 0.25613  0.68050  0.79639  Biso   1.000  O
  H129     1.0000 0.30710  0.81980  0.31940  Biso   1.000  H
  H130     1.0000 0.69290  0.31980  0.18060  Biso   1.000  H
  H131     1.0000 0.69290  0.18020  0.68060  Biso   1.000  H
  H132     1.0000 0.30710  0.68020  0.81940  Biso   1.000  H
  H133     1.0000 0.24670  0.89180  0.26990  Biso   1.000  H
  H134     1.0000 0.75330  0.39180  0.23010  Biso   1.000  H
  H135     1.0000 0.75330  0.10820  0.73010  Biso   1.000  H
  H136     1.0000 0.24670  0.60820  0.76990  Biso   1.000  H
