data_image0
_cell_length_a       6.913
_cell_length_b       25.018
_cell_length_c       14.4591
_cell_angle_alpha    90
_cell_angle_beta     96.337
_cell_angle_gamma    90

_symmetry_space_group_name_H-M    "P 1"
_symmetry_int_tables_number       1

loop_
  _symmetry_equiv_pos_as_xyz
  'x, y, z'

loop_
  _atom_site_label
  _atom_site_occupancy
  _atom_site_fract_x
  _atom_site_fract_y
  _atom_site_fract_z
  _atom_site_thermal_displace_type
  _atom_site_B_iso_or_equiv
  _atom_site_type_symbol
  C1       1.0000 0.73740  0.49674  0.36820  Biso   1.000  C
  C2       1.0000 0.26260  0.49674  0.13180  Biso   1.000  C
  C3       1.0000 0.23740  0.99674  0.36820  Biso   1.000  C
  C4       1.0000 0.76260  0.99674  0.13180  Biso   1.000  C
  C5       1.0000 0.26260  0.50326  0.63180  Biso   1.000  C
  C6       1.0000 0.73740  0.50326  0.86820  Biso   1.000  C
  C7       1.0000 0.76260  0.00326  0.63180  Biso   1.000  C
  C8       1.0000 0.23740  0.00326  0.86820  Biso   1.000  C
  H1       1.0000 0.64120  0.51970  0.34150  Biso   1.000  H
  H2       1.0000 0.35880  0.51970  0.15850  Biso   1.000  H
  H3       1.0000 0.14120  0.01970  0.34150  Biso   1.000  H
  H4       1.0000 0.85880  0.01970  0.15850  Biso   1.000  H
  H5       1.0000 0.35880  0.48030  0.65850  Biso   1.000  H
  H6       1.0000 0.64120  0.48030  0.84150  Biso   1.000  H
  H7       1.0000 0.85880  0.98030  0.65850  Biso   1.000  H
  H8       1.0000 0.14120  0.98030  0.84150  Biso   1.000  H
  C9       1.0000 0.69790  0.46346  0.43930  Biso   1.000  C
  C10      1.0000 0.30210  0.46346  0.06070  Biso   1.000  C
  C11      1.0000 0.19790  0.96346  0.43930  Biso   1.000  C
  C12      1.0000 0.80210  0.96346  0.06070  Biso   1.000  C
  C13      1.0000 0.30210  0.53654  0.56070  Biso   1.000  C
  C14      1.0000 0.69790  0.53654  0.93930  Biso   1.000  C
  C15      1.0000 0.80210  0.03654  0.56070  Biso   1.000  C
  C16      1.0000 0.19790  0.03654  0.93930  Biso   1.000  C
  H9       1.0000 0.57600  0.46440  0.46080  Biso   1.000  H
  H10      1.0000 0.42400  0.46440  0.03920  Biso   1.000  H
  H11      1.0000 0.07600  0.96440  0.46080  Biso   1.000  H
  H12      1.0000 0.92400  0.96440  0.03920  Biso   1.000  H
  H13      1.0000 0.42400  0.53560  0.53920  Biso   1.000  H
  H14      1.0000 0.57600  0.53560  0.96080  Biso   1.000  H
  H15      1.0000 0.92400  0.03560  0.53920  Biso   1.000  H
  H16      1.0000 0.07600  0.03560  0.96080  Biso   1.000  H
  C17      1.0000 0.83740  0.42884  0.47880  Biso   1.000  C
  C18      1.0000 0.16260  0.42884  0.02120  Biso   1.000  C
  C19      1.0000 0.33740  0.92884  0.47880  Biso   1.000  C
  C20      1.0000 0.66260  0.92884  0.02120  Biso   1.000  C
  C21      1.0000 0.16260  0.57116  0.52120  Biso   1.000  C
  C22      1.0000 0.83740  0.57116  0.97880  Biso   1.000  C
  C23      1.0000 0.66260  0.07116  0.52120  Biso   1.000  C
  C24      1.0000 0.33740  0.07116  0.97880  Biso   1.000  C
  H17      1.0000 0.81170  0.40690  0.52780  Biso   1.000  H
  H18      1.0000 0.18830  0.40690  0.97220  Biso   1.000  H
  H19      1.0000 0.31170  0.90690  0.52780  Biso   1.000  H
  H20      1.0000 0.68830  0.90690  0.97220  Biso   1.000  H
  H21      1.0000 0.18830  0.59310  0.47220  Biso   1.000  H
  H22      1.0000 0.81170  0.59310  0.02780  Biso   1.000  H
  H23      1.0000 0.68830  0.09310  0.47220  Biso   1.000  H
  H24      1.0000 0.31170  0.09310  0.02780  Biso   1.000  H
  C25      1.0000 0.01730  0.42695  0.44464  Biso   1.000  C
  C26      1.0000 0.98270  0.42695  0.05536  Biso   1.000  C
  C27      1.0000 0.51730  0.92695  0.44464  Biso   1.000  C
  C28      1.0000 0.48270  0.92695  0.05536  Biso   1.000  C
  C29      1.0000 0.98270  0.57305  0.55536  Biso   1.000  C
  C30      1.0000 0.01730  0.57305  0.94464  Biso   1.000  C
  C31      1.0000 0.48270  0.07305  0.55536  Biso   1.000  C
  C32      1.0000 0.51730  0.07305  0.94464  Biso   1.000  C
  C33      1.0000 0.04920  0.46204  0.37317  Biso   1.000  C
  C34      1.0000 0.95080  0.46204  0.12683  Biso   1.000  C
  C35      1.0000 0.54920  0.96204  0.37317  Biso   1.000  C
  C36      1.0000 0.45080  0.96204  0.12683  Biso   1.000  C
  C37      1.0000 0.95080  0.53796  0.62683  Biso   1.000  C
  C38      1.0000 0.04920  0.53796  0.87317  Biso   1.000  C
  C39      1.0000 0.45080  0.03796  0.62683  Biso   1.000  C
  C40      1.0000 0.54920  0.03796  0.87317  Biso   1.000  C
  H25      1.0000 0.16930  0.46140  0.34980  Biso   1.000  H
  H26      1.0000 0.83070  0.46140  0.15020  Biso   1.000  H
  H27      1.0000 0.66930  0.96140  0.34980  Biso   1.000  H
  H28      1.0000 0.33070  0.96140  0.15020  Biso   1.000  H
  H29      1.0000 0.83070  0.53860  0.65020  Biso   1.000  H
  H30      1.0000 0.16930  0.53860  0.84980  Biso   1.000  H
  H31      1.0000 0.33070  0.03860  0.65020  Biso   1.000  H
  H32      1.0000 0.66930  0.03860  0.84980  Biso   1.000  H
  C41      1.0000 0.29790  0.36762  0.43660  Biso   1.000  C
  C42      1.0000 0.70210  0.36762  0.06340  Biso   1.000  C
  C43      1.0000 0.79790  0.86762  0.43660  Biso   1.000  C
  C44      1.0000 0.20210  0.86762  0.06340  Biso   1.000  C
  C45      1.0000 0.70210  0.63238  0.56340  Biso   1.000  C
  C46      1.0000 0.29790  0.63238  0.93660  Biso   1.000  C
  C47      1.0000 0.20210  0.13238  0.56340  Biso   1.000  C
  C48      1.0000 0.79790  0.13238  0.93660  Biso   1.000  C
  C49      1.0000 0.42930  0.32923  0.49440  Biso   1.000  C
  C50      1.0000 0.57070  0.32923  0.00560  Biso   1.000  C
  C51      1.0000 0.92930  0.82923  0.49440  Biso   1.000  C
  C52      1.0000 0.07070  0.82923  0.00560  Biso   1.000  C
  C53      1.0000 0.57070  0.67077  0.50560  Biso   1.000  C
  C54      1.0000 0.42930  0.67077  0.99440  Biso   1.000  C
  C55      1.0000 0.07070  0.17077  0.50560  Biso   1.000  C
  C56      1.0000 0.92930  0.17077  0.99440  Biso   1.000  C
  H33      1.0000 0.51230  0.35010  0.53930  Biso   1.000  H
  H34      1.0000 0.48770  0.35010  0.96070  Biso   1.000  H
  H35      1.0000 0.01230  0.85010  0.53930  Biso   1.000  H
  H36      1.0000 0.98770  0.85010  0.96070  Biso   1.000  H
  H37      1.0000 0.48770  0.64990  0.46070  Biso   1.000  H
  H38      1.0000 0.51230  0.64990  0.03930  Biso   1.000  H
  H39      1.0000 0.98770  0.14990  0.46070  Biso   1.000  H
  H40      1.0000 0.01230  0.14990  0.03930  Biso   1.000  H
  H41      1.0000 0.34790  0.30710  0.52920  Biso   1.000  H
  H42      1.0000 0.65210  0.30710  0.97080  Biso   1.000  H
  H43      1.0000 0.84790  0.80710  0.52920  Biso   1.000  H
  H44      1.0000 0.15210  0.80710  0.97080  Biso   1.000  H
  H45      1.0000 0.65210  0.69290  0.47080  Biso   1.000  H
  H46      1.0000 0.34790  0.69290  0.02920  Biso   1.000  H
  H47      1.0000 0.15210  0.19290  0.47080  Biso   1.000  H
  H48      1.0000 0.84790  0.19290  0.02920  Biso   1.000  H
  C57      1.0000 0.54190  0.29730  0.45180  Biso   1.000  C
  C58      1.0000 0.45810  0.29730  0.04820  Biso   1.000  C
  C59      1.0000 0.04190  0.79730  0.45180  Biso   1.000  C
  C60      1.0000 0.95810  0.79730  0.04820  Biso   1.000  C
  C61      1.0000 0.45810  0.70270  0.54820  Biso   1.000  C
  C62      1.0000 0.54190  0.70270  0.95180  Biso   1.000  C
  C63      1.0000 0.95810  0.20270  0.54820  Biso   1.000  C
  C64      1.0000 0.04190  0.20270  0.95180  Biso   1.000  C
  H49      1.0000 0.62020  0.31830  0.41360  Biso   1.000  H
  H50      1.0000 0.37980  0.31830  0.08640  Biso   1.000  H
  H51      1.0000 0.12020  0.81830  0.41360  Biso   1.000  H
  H52      1.0000 0.87980  0.81830  0.08640  Biso   1.000  H
  H53      1.0000 0.37980  0.68170  0.58640  Biso   1.000  H
  H54      1.0000 0.62020  0.68170  0.91360  Biso   1.000  H
  H55      1.0000 0.87980  0.18170  0.58640  Biso   1.000  H
  H56      1.0000 0.12020  0.18170  0.91360  Biso   1.000  H
  H57      1.0000 0.46210  0.27310  0.41150  Biso   1.000  H
  H58      1.0000 0.53790  0.27310  0.08850  Biso   1.000  H
  H59      1.0000 0.96210  0.77310  0.41150  Biso   1.000  H
  H60      1.0000 0.03790  0.77310  0.08850  Biso   1.000  H
  H61      1.0000 0.53790  0.72690  0.58850  Biso   1.000  H
  H62      1.0000 0.46210  0.72690  0.91150  Biso   1.000  H
  H63      1.0000 0.03790  0.22690  0.58850  Biso   1.000  H
  H64      1.0000 0.96210  0.22690  0.91150  Biso   1.000  H
  C65      1.0000 0.67420  0.26530  0.52210  Biso   1.000  C
  C66      1.0000 0.32580  0.26530  0.97790  Biso   1.000  C
  C67      1.0000 0.17420  0.76530  0.52210  Biso   1.000  C
  C68      1.0000 0.82580  0.76530  0.97790  Biso   1.000  C
  C69      1.0000 0.32580  0.73470  0.47790  Biso   1.000  C
  C70      1.0000 0.67420  0.73470  0.02210  Biso   1.000  C
  C71      1.0000 0.82580  0.23470  0.47790  Biso   1.000  C
  C72      1.0000 0.17420  0.23470  0.02210  Biso   1.000  C
  H65      1.0000 0.73780  0.28940  0.56840  Biso   1.000  H
  H66      1.0000 0.26220  0.28940  0.93160  Biso   1.000  H
  H67      1.0000 0.23780  0.78940  0.56840  Biso   1.000  H
  H68      1.0000 0.76220  0.78940  0.93160  Biso   1.000  H
  H69      1.0000 0.26220  0.71060  0.43160  Biso   1.000  H
  H70      1.0000 0.73780  0.71060  0.06840  Biso   1.000  H
  H71      1.0000 0.76220  0.21060  0.43160  Biso   1.000  H
  H72      1.0000 0.23780  0.21060  0.06840  Biso   1.000  H
  H73      1.0000 0.59600  0.24050  0.55380  Biso   1.000  H
  H74      1.0000 0.40400  0.24050  0.94620  Biso   1.000  H
  H75      1.0000 0.09600  0.74050  0.55380  Biso   1.000  H
  H76      1.0000 0.90400  0.74050  0.94620  Biso   1.000  H
  H77      1.0000 0.40400  0.75950  0.44620  Biso   1.000  H
  H78      1.0000 0.59600  0.75950  0.05380  Biso   1.000  H
  H79      1.0000 0.90400  0.25950  0.44620  Biso   1.000  H
  H80      1.0000 0.09600  0.25950  0.05380  Biso   1.000  H
  C73      1.0000 0.39800  0.66796  0.24336  Biso   1.000  C
  C74      1.0000 0.60200  0.66796  0.25664  Biso   1.000  C
  C75      1.0000 0.89800  0.16796  0.24336  Biso   1.000  C
  C76      1.0000 0.10200  0.16796  0.25664  Biso   1.000  C
  C77      1.0000 0.60200  0.33204  0.75664  Biso   1.000  C
  C78      1.0000 0.39800  0.33204  0.74336  Biso   1.000  C
  C79      1.0000 0.10200  0.83204  0.75664  Biso   1.000  C
  C80      1.0000 0.89800  0.83204  0.74336  Biso   1.000  C
  C81      1.0000 0.29950  0.71640  0.23500  Biso   1.000  C
  C82      1.0000 0.70050  0.71640  0.26500  Biso   1.000  C
  C83      1.0000 0.79950  0.21640  0.23500  Biso   1.000  C
  C84      1.0000 0.20050  0.21640  0.26500  Biso   1.000  C
  C85      1.0000 0.70050  0.28360  0.76500  Biso   1.000  C
  C86      1.0000 0.29950  0.28360  0.73500  Biso   1.000  C
  C87      1.0000 0.20050  0.78360  0.76500  Biso   1.000  C
  C88      1.0000 0.79950  0.78360  0.73500  Biso   1.000  C
  H81      1.0000 0.16430  0.71660  0.22430  Biso   1.000  H
  H82      1.0000 0.83570  0.71660  0.27570  Biso   1.000  H
  H83      1.0000 0.66430  0.21660  0.22430  Biso   1.000  H
  H84      1.0000 0.33570  0.21660  0.27570  Biso   1.000  H
  H85      1.0000 0.83570  0.28340  0.77570  Biso   1.000  H
  H86      1.0000 0.16430  0.28340  0.72430  Biso   1.000  H
  H87      1.0000 0.33570  0.78340  0.77570  Biso   1.000  H
  H88      1.0000 0.66430  0.78340  0.72430  Biso   1.000  H
  C89      1.0000 0.39920  0.76437  0.24220  Biso   1.000  C
  C90      1.0000 0.60080  0.76437  0.25780  Biso   1.000  C
  C91      1.0000 0.89920  0.26437  0.24220  Biso   1.000  C
  C92      1.0000 0.10080  0.26437  0.25780  Biso   1.000  C
  C93      1.0000 0.60080  0.23563  0.75780  Biso   1.000  C
  C94      1.0000 0.39920  0.23563  0.74220  Biso   1.000  C
  C95      1.0000 0.10080  0.73563  0.75780  Biso   1.000  C
  C96      1.0000 0.89920  0.73563  0.74220  Biso   1.000  C
  H89      1.0000 0.33140  0.79650  0.23670  Biso   1.000  H
  H90      1.0000 0.66860  0.79650  0.26330  Biso   1.000  H
  H91      1.0000 0.83140  0.29650  0.23670  Biso   1.000  H
  H92      1.0000 0.16860  0.29650  0.26330  Biso   1.000  H
  H93      1.0000 0.66860  0.20350  0.76330  Biso   1.000  H
  H94      1.0000 0.33140  0.20350  0.73670  Biso   1.000  H
  H95      1.0000 0.16860  0.70350  0.76330  Biso   1.000  H
  H96      1.0000 0.83140  0.70350  0.73670  Biso   1.000  H
  C97      1.0000 0.28430  0.61719  0.24871  Biso   1.000  C
  C98      1.0000 0.71570  0.61719  0.25129  Biso   1.000  C
  C99      1.0000 0.78430  0.11719  0.24871  Biso   1.000  C
  C100     1.0000 0.21570  0.11719  0.25129  Biso   1.000  C
  C101     1.0000 0.71570  0.38281  0.75129  Biso   1.000  C
  C102     1.0000 0.28430  0.38281  0.74871  Biso   1.000  C
  C103     1.0000 0.21570  0.88281  0.75129  Biso   1.000  C
  C104     1.0000 0.78430  0.88281  0.74871  Biso   1.000  C
  N1       1.0000 0.91400  0.49658  0.33674  Biso   1.000  N
  N2       1.0000 0.08600  0.49658  0.16326  Biso   1.000  N
  N3       1.0000 0.41400  0.99658  0.33674  Biso   1.000  N
  N4       1.0000 0.58600  0.99658  0.16326  Biso   1.000  N
  N5       1.0000 0.08600  0.50342  0.66326  Biso   1.000  N
  N6       1.0000 0.91400  0.50342  0.83674  Biso   1.000  N
  N7       1.0000 0.58600  0.00342  0.66326  Biso   1.000  N
  N8       1.0000 0.41400  0.00342  0.83674  Biso   1.000  N
  N9       1.0000 0.16150  0.39169  0.48390  Biso   1.000  N
  N10      1.0000 0.83850  0.39169  0.01610  Biso   1.000  N
  N11      1.0000 0.66150  0.89169  0.48390  Biso   1.000  N
  N12      1.0000 0.33850  0.89169  0.01610  Biso   1.000  N
  N13      1.0000 0.83850  0.60831  0.51610  Biso   1.000  N
  N14      1.0000 0.16150  0.60831  0.98390  Biso   1.000  N
  N15      1.0000 0.33850  0.10831  0.51610  Biso   1.000  N
  N16      1.0000 0.66150  0.10831  0.98390  Biso   1.000  N
  H97      1.0000 0.16420  0.38470  0.54230  Biso   1.000  H
  H98      1.0000 0.83580  0.38470  0.95770  Biso   1.000  H
  H99      1.0000 0.66420  0.88470  0.54230  Biso   1.000  H
  H100     1.0000 0.33580  0.88470  0.95770  Biso   1.000  H
  H101     1.0000 0.83580  0.61530  0.45770  Biso   1.000  H
  H102     1.0000 0.16420  0.61530  0.04230  Biso   1.000  H
  H103     1.0000 0.33580  0.11530  0.45770  Biso   1.000  H
  H104     1.0000 0.66420  0.11530  0.04230  Biso   1.000  H
  O1       1.0000 0.31150  0.37690  0.35575  Biso   1.000  O
  O2       1.0000 0.68850  0.37690  0.14425  Biso   1.000  O
  O3       1.0000 0.81150  0.87690  0.35575  Biso   1.000  O
  O4       1.0000 0.18850  0.87690  0.14425  Biso   1.000  O
  O5       1.0000 0.68850  0.62310  0.64425  Biso   1.000  O
  O6       1.0000 0.31150  0.62310  0.85575  Biso   1.000  O
  O7       1.0000 0.18850  0.12310  0.64425  Biso   1.000  O
  O8       1.0000 0.81150  0.12310  0.85575  Biso   1.000  O
  O9       1.0000 0.32760  0.58529  0.31302  Biso   1.000  O
  O10      1.0000 0.67240  0.58529  0.18698  Biso   1.000  O
  O11      1.0000 0.82760  0.08529  0.31302  Biso   1.000  O
  O12      1.0000 0.17240  0.08529  0.18698  Biso   1.000  O
  O13      1.0000 0.67240  0.41471  0.68698  Biso   1.000  O
  O14      1.0000 0.32760  0.41471  0.81302  Biso   1.000  O
  O15      1.0000 0.17240  0.91471  0.68698  Biso   1.000  O
  O16      1.0000 0.82760  0.91471  0.81302  Biso   1.000  O
  O17      1.0000 0.13550  0.61038  0.18789  Biso   1.000  O
  O18      1.0000 0.86450  0.61038  0.31211  Biso   1.000  O
  O19      1.0000 0.63550  0.11038  0.18789  Biso   1.000  O
  O20      1.0000 0.36450  0.11038  0.31211  Biso   1.000  O
  O21      1.0000 0.86450  0.38962  0.81211  Biso   1.000  O
  O22      1.0000 0.13550  0.38962  0.68789  Biso   1.000  O
  O23      1.0000 0.36450  0.88962  0.81211  Biso   1.000  O
  O24      1.0000 0.63550  0.88962  0.68789  Biso   1.000  O
  Cu1      1.0000 0.00000  0.55175  0.25000  Biso   1.000  Cu
  Cu2      1.0000 0.50000  0.05175  0.25000  Biso   1.000  Cu
  Cu3      1.0000 0.00000  0.44825  0.75000  Biso   1.000  Cu
  Cu4      1.0000 0.50000  0.94825  0.75000  Biso   1.000  Cu
  H105     1.0000 0.35500  0.29850  0.51120  Biso   1.000  H
  H106     1.0000 0.64500  0.29850  0.98880  Biso   1.000  H
  H107     1.0000 0.85500  0.79850  0.51120  Biso   1.000  H
  H108     1.0000 0.14500  0.79850  0.98880  Biso   1.000  H
  H109     1.0000 0.64500  0.70150  0.48880  Biso   1.000  H
  H110     1.0000 0.35500  0.70150  0.01120  Biso   1.000  H
  H111     1.0000 0.14500  0.20150  0.48880  Biso   1.000  H
  H112     1.0000 0.85500  0.20150  0.01120  Biso   1.000  H
  H113     1.0000 0.48490  0.34660  0.55110  Biso   1.000  H
  H114     1.0000 0.51510  0.34660  0.94890  Biso   1.000  H
  H115     1.0000 0.98490  0.84660  0.55110  Biso   1.000  H
  H116     1.0000 0.01510  0.84660  0.94890  Biso   1.000  H
  H117     1.0000 0.51510  0.65340  0.44890  Biso   1.000  H
  H118     1.0000 0.48490  0.65340  0.05110  Biso   1.000  H
  H119     1.0000 0.01510  0.15340  0.44890  Biso   1.000  H
  H120     1.0000 0.98490  0.15340  0.05110  Biso   1.000  H
  C105     1.0000 0.61060  0.30900  0.43110  Biso   1.000  C
  C106     1.0000 0.38940  0.30900  0.06890  Biso   1.000  C
  C107     1.0000 0.11060  0.80900  0.43110  Biso   1.000  C
  C108     1.0000 0.88940  0.80900  0.06890  Biso   1.000  C
  C109     1.0000 0.38940  0.69100  0.56890  Biso   1.000  C
  C110     1.0000 0.61060  0.69100  0.93110  Biso   1.000  C
  C111     1.0000 0.88940  0.19100  0.56890  Biso   1.000  C
  C112     1.0000 0.11060  0.19100  0.93110  Biso   1.000  C
  H121     1.0000 0.55400  0.28660  0.38040  Biso   1.000  H
  H122     1.0000 0.44600  0.28660  0.11960  Biso   1.000  H
  H123     1.0000 0.05400  0.78660  0.38040  Biso   1.000  H
  H124     1.0000 0.94600  0.78660  0.11960  Biso   1.000  H
  H125     1.0000 0.44600  0.71340  0.61960  Biso   1.000  H
  H126     1.0000 0.55400  0.71340  0.88040  Biso   1.000  H
  H127     1.0000 0.94600  0.21340  0.61960  Biso   1.000  H
  H128     1.0000 0.05400  0.21340  0.88040  Biso   1.000  H
  H129     1.0000 0.66450  0.34030  0.40370  Biso   1.000  H
  H130     1.0000 0.33550  0.34030  0.09630  Biso   1.000  H
  H131     1.0000 0.16450  0.84030  0.40370  Biso   1.000  H
  H132     1.0000 0.83550  0.84030  0.09630  Biso   1.000  H
  H133     1.0000 0.33550  0.65970  0.59630  Biso   1.000  H
  H134     1.0000 0.66450  0.65970  0.90370  Biso   1.000  H
  H135     1.0000 0.83550  0.15970  0.59630  Biso   1.000  H
  H136     1.0000 0.16450  0.15970  0.90370  Biso   1.000  H
  C113     1.0000 0.78360  0.27700  0.48820  Biso   1.000  C
  C114     1.0000 0.21640  0.27700  0.01180  Biso   1.000  C
  C115     1.0000 0.28360  0.77700  0.48820  Biso   1.000  C
  C116     1.0000 0.71640  0.77700  0.01180  Biso   1.000  C
  C117     1.0000 0.21640  0.72300  0.51180  Biso   1.000  C
  C118     1.0000 0.78360  0.72300  0.98820  Biso   1.000  C
  C119     1.0000 0.71640  0.22300  0.51180  Biso   1.000  C
  C120     1.0000 0.28360  0.22300  0.98820  Biso   1.000  C
  H137     1.0000 0.89200  0.27390  0.45130  Biso   1.000  H
  H138     1.0000 0.10800  0.27390  0.04870  Biso   1.000  H
  H139     1.0000 0.39200  0.77390  0.45130  Biso   1.000  H
  H140     1.0000 0.60800  0.77390  0.04870  Biso   1.000  H
  H141     1.0000 0.10800  0.72610  0.54870  Biso   1.000  H
  H142     1.0000 0.89200  0.72610  0.95130  Biso   1.000  H
  H143     1.0000 0.60800  0.22610  0.54870  Biso   1.000  H
  H144     1.0000 0.39200  0.22610  0.95130  Biso   1.000  H
  H145     1.0000 0.82790  0.29620  0.54480  Biso   1.000  H
  H146     1.0000 0.17210  0.29620  0.95520  Biso   1.000  H
  H147     1.0000 0.32790  0.79620  0.54480  Biso   1.000  H
  H148     1.0000 0.67210  0.79620  0.95520  Biso   1.000  H
  H149     1.0000 0.17210  0.70380  0.45520  Biso   1.000  H
  H150     1.0000 0.82790  0.70380  0.04480  Biso   1.000  H
  H151     1.0000 0.67210  0.20380  0.45520  Biso   1.000  H
  H152     1.0000 0.32790  0.20380  0.04480  Biso   1.000  H
