data_image0
_cell_length_a       12.5362
_cell_length_b       12.5362
_cell_length_c       31.473
_cell_angle_alpha    90
_cell_angle_beta     90
_cell_angle_gamma    120

_symmetry_space_group_name_H-M    "P 1"
_symmetry_int_tables_number       1

loop_
  _symmetry_equiv_pos_as_xyz
  'x, y, z'

loop_
  _atom_site_label
  _atom_site_occupancy
  _atom_site_fract_x
  _atom_site_fract_y
  _atom_site_fract_z
  _atom_site_thermal_displace_type
  _atom_site_B_iso_or_equiv
  _atom_site_type_symbol
  C1       1.0000 0.88740  0.17490  0.08817  Biso   1.000  C
  C2       1.0000 0.82510  0.71250  0.08817  Biso   1.000  C
  C3       1.0000 0.28750  0.11260  0.08817  Biso   1.000  C
  C4       1.0000 0.17490  0.88740  0.41183  Biso   1.000  C
  C5       1.0000 0.71250  0.82510  0.41183  Biso   1.000  C
  C6       1.0000 0.11260  0.28750  0.41183  Biso   1.000  C
  C7       1.0000 0.55407  0.50823  0.42150  Biso   1.000  C
  C8       1.0000 0.49177  0.04583  0.42150  Biso   1.000  C
  C9       1.0000 0.95417  0.44593  0.42150  Biso   1.000  C
  C10      1.0000 0.84157  0.22073  0.74516  Biso   1.000  C
  C11      1.0000 0.37917  0.15843  0.74516  Biso   1.000  C
  C12      1.0000 0.77927  0.62083  0.74516  Biso   1.000  C
  C13      1.0000 0.22073  0.84157  0.75484  Biso   1.000  C
  C14      1.0000 0.15843  0.37917  0.75484  Biso   1.000  C
  C15      1.0000 0.62083  0.77927  0.75484  Biso   1.000  C
  C16      1.0000 0.50823  0.55407  0.07850  Biso   1.000  C
  C17      1.0000 0.04583  0.49177  0.07850  Biso   1.000  C
  C18      1.0000 0.44593  0.95417  0.07850  Biso   1.000  C
  C19      1.0000 0.11260  0.82510  0.91183  Biso   1.000  C
  C20      1.0000 0.17490  0.28750  0.91183  Biso   1.000  C
  C21      1.0000 0.71250  0.88740  0.91183  Biso   1.000  C
  C22      1.0000 0.82510  0.11260  0.58817  Biso   1.000  C
  C23      1.0000 0.28750  0.17490  0.58817  Biso   1.000  C
  C24      1.0000 0.88740  0.71250  0.58817  Biso   1.000  C
  C25      1.0000 0.77927  0.15843  0.24516  Biso   1.000  C
  C26      1.0000 0.84157  0.62083  0.24516  Biso   1.000  C
  C27      1.0000 0.37917  0.22073  0.24516  Biso   1.000  C
  C28      1.0000 0.49177  0.44593  0.92150  Biso   1.000  C
  C29      1.0000 0.95417  0.50823  0.92150  Biso   1.000  C
  C30      1.0000 0.55407  0.04583  0.92150  Biso   1.000  C
  C31      1.0000 0.44593  0.49177  0.57850  Biso   1.000  C
  C32      1.0000 0.50823  0.95417  0.57850  Biso   1.000  C
  C33      1.0000 0.04583  0.55407  0.57850  Biso   1.000  C
  C34      1.0000 0.15843  0.77927  0.25484  Biso   1.000  C
  C35      1.0000 0.62083  0.84157  0.25484  Biso   1.000  C
  C36      1.0000 0.22073  0.37917  0.25484  Biso   1.000  C
  H1       1.0000 0.83558  0.17594  0.11000  Biso   1.000  H
  H2       1.0000 0.82406  0.65964  0.11000  Biso   1.000  H
  H3       1.0000 0.34036  0.16442  0.11000  Biso   1.000  H
  H4       1.0000 0.17594  0.83558  0.39000  Biso   1.000  H
  H5       1.0000 0.65964  0.82406  0.39000  Biso   1.000  H
  H6       1.0000 0.16442  0.34036  0.39000  Biso   1.000  H
  H7       1.0000 0.50225  0.50927  0.44333  Biso   1.000  H
  H8       1.0000 0.49073  0.99297  0.44333  Biso   1.000  H
  H9       1.0000 0.00703  0.49775  0.44333  Biso   1.000  H
  H10      1.0000 0.84261  0.16891  0.72333  Biso   1.000  H
  H11      1.0000 0.32631  0.15739  0.72333  Biso   1.000  H
  H12      1.0000 0.83109  0.67369  0.72333  Biso   1.000  H
  H13      1.0000 0.16891  0.84261  0.77667  Biso   1.000  H
  H14      1.0000 0.15739  0.32631  0.77667  Biso   1.000  H
  H15      1.0000 0.67369  0.83109  0.77667  Biso   1.000  H
  H16      1.0000 0.50927  0.50225  0.05667  Biso   1.000  H
  H17      1.0000 0.99297  0.49073  0.05667  Biso   1.000  H
  H18      1.0000 0.49775  0.00703  0.05667  Biso   1.000  H
  H19      1.0000 0.16442  0.82406  0.89000  Biso   1.000  H
  H20      1.0000 0.17594  0.34036  0.89000  Biso   1.000  H
  H21      1.0000 0.65964  0.83558  0.89000  Biso   1.000  H
  H22      1.0000 0.82406  0.16442  0.61000  Biso   1.000  H
  H23      1.0000 0.34036  0.17594  0.61000  Biso   1.000  H
  H24      1.0000 0.83558  0.65964  0.61000  Biso   1.000  H
  H25      1.0000 0.83109  0.15739  0.22333  Biso   1.000  H
  H26      1.0000 0.84261  0.67369  0.22333  Biso   1.000  H
  H27      1.0000 0.32631  0.16891  0.22333  Biso   1.000  H
  H28      1.0000 0.49073  0.49775  0.94333  Biso   1.000  H
  H29      1.0000 0.00703  0.50927  0.94333  Biso   1.000  H
  H30      1.0000 0.50225  0.99297  0.94333  Biso   1.000  H
  H31      1.0000 0.49775  0.49073  0.55667  Biso   1.000  H
  H32      1.0000 0.50927  0.00703  0.55667  Biso   1.000  H
  H33      1.0000 0.99297  0.50225  0.55667  Biso   1.000  H
  H34      1.0000 0.15739  0.83109  0.27667  Biso   1.000  H
  H35      1.0000 0.67369  0.84261  0.27667  Biso   1.000  H
  H36      1.0000 0.16891  0.32631  0.27667  Biso   1.000  H
  C37      1.0000 0.03850  0.23330  0.04417  Biso   1.000  C
  C38      1.0000 0.76670  0.80520  0.04417  Biso   1.000  C
  C39      1.0000 0.19480  0.96150  0.04417  Biso   1.000  C
  C40      1.0000 0.23330  0.03850  0.45583  Biso   1.000  C
  C41      1.0000 0.80520  0.76670  0.45583  Biso   1.000  C
  C42      1.0000 0.96150  0.19480  0.45583  Biso   1.000  C
  C43      1.0000 0.70517  0.56663  0.37750  Biso   1.000  C
  C44      1.0000 0.43337  0.13853  0.37750  Biso   1.000  C
  C45      1.0000 0.86147  0.29483  0.37750  Biso   1.000  C
  C46      1.0000 0.89997  0.37183  0.78916  Biso   1.000  C
  C47      1.0000 0.47187  0.10003  0.78916  Biso   1.000  C
  C48      1.0000 0.62817  0.52813  0.78916  Biso   1.000  C
  C49      1.0000 0.37183  0.89997  0.71084  Biso   1.000  C
  C50      1.0000 0.10003  0.47187  0.71084  Biso   1.000  C
  C51      1.0000 0.52813  0.62817  0.71084  Biso   1.000  C
  C52      1.0000 0.56663  0.70517  0.12250  Biso   1.000  C
  C53      1.0000 0.13853  0.43337  0.12250  Biso   1.000  C
  C54      1.0000 0.29483  0.86147  0.12250  Biso   1.000  C
  C55      1.0000 0.96150  0.76670  0.95583  Biso   1.000  C
  C56      1.0000 0.23330  0.19480  0.95583  Biso   1.000  C
  C57      1.0000 0.80520  0.03850  0.95583  Biso   1.000  C
  C58      1.0000 0.76670  0.96150  0.54417  Biso   1.000  C
  C59      1.0000 0.19480  0.23330  0.54417  Biso   1.000  C
  C60      1.0000 0.03850  0.80520  0.54417  Biso   1.000  C
  C61      1.0000 0.62817  0.10003  0.28916  Biso   1.000  C
  C62      1.0000 0.89997  0.52813  0.28916  Biso   1.000  C
  C63      1.0000 0.47187  0.37183  0.28916  Biso   1.000  C
  C64      1.0000 0.43337  0.29483  0.87750  Biso   1.000  C
  C65      1.0000 0.86147  0.56663  0.87750  Biso   1.000  C
  C66      1.0000 0.70517  0.13853  0.87750  Biso   1.000  C
  C67      1.0000 0.29483  0.43337  0.62250  Biso   1.000  C
  C68      1.0000 0.56663  0.86147  0.62250  Biso   1.000  C
  C69      1.0000 0.13853  0.70517  0.62250  Biso   1.000  C
  C70      1.0000 0.10003  0.62817  0.21084  Biso   1.000  C
  C71      1.0000 0.52813  0.89997  0.21084  Biso   1.000  C
  C72      1.0000 0.37183  0.47187  0.21084  Biso   1.000  C
  H37      1.0000 0.11294  0.28211  0.02897  Biso   1.000  H
  H38      1.0000 0.71789  0.83083  0.02897  Biso   1.000  H
  H39      1.0000 0.16917  0.88706  0.02897  Biso   1.000  H
  H40      1.0000 0.28211  0.11294  0.47103  Biso   1.000  H
  H41      1.0000 0.83083  0.71789  0.47103  Biso   1.000  H
  H42      1.0000 0.88706  0.16917  0.47103  Biso   1.000  H
  H43      1.0000 0.77961  0.61544  0.36230  Biso   1.000  H
  H44      1.0000 0.38456  0.16416  0.36230  Biso   1.000  H
  H45      1.0000 0.83584  0.22039  0.36230  Biso   1.000  H
  H46      1.0000 0.94878  0.44627  0.80436  Biso   1.000  H
  H47      1.0000 0.49750  0.05122  0.80436  Biso   1.000  H
  H48      1.0000 0.55373  0.50250  0.80436  Biso   1.000  H
  H49      1.0000 0.44627  0.94878  0.69564  Biso   1.000  H
  H50      1.0000 0.05122  0.49750  0.69564  Biso   1.000  H
  H51      1.0000 0.50250  0.55373  0.69564  Biso   1.000  H
  H52      1.0000 0.61544  0.77961  0.13770  Biso   1.000  H
  H53      1.0000 0.16416  0.38456  0.13770  Biso   1.000  H
  H54      1.0000 0.22039  0.83584  0.13770  Biso   1.000  H
  H55      1.0000 0.88706  0.71789  0.97103  Biso   1.000  H
  H56      1.0000 0.28211  0.16917  0.97103  Biso   1.000  H
  H57      1.0000 0.83083  0.11294  0.97103  Biso   1.000  H
  H58      1.0000 0.71789  0.88706  0.52897  Biso   1.000  H
  H59      1.0000 0.16917  0.28211  0.52897  Biso   1.000  H
  H60      1.0000 0.11294  0.83083  0.52897  Biso   1.000  H
  H61      1.0000 0.55373  0.05122  0.30436  Biso   1.000  H
  H62      1.0000 0.94878  0.50250  0.30436  Biso   1.000  H
  H63      1.0000 0.49750  0.44627  0.30436  Biso   1.000  H
  H64      1.0000 0.38456  0.22039  0.86230  Biso   1.000  H
  H65      1.0000 0.83584  0.61544  0.86230  Biso   1.000  H
  H66      1.0000 0.77961  0.16416  0.86230  Biso   1.000  H
  H67      1.0000 0.22039  0.38456  0.63770  Biso   1.000  H
  H68      1.0000 0.61544  0.83584  0.63770  Biso   1.000  H
  H69      1.0000 0.16416  0.77961  0.63770  Biso   1.000  H
  H70      1.0000 0.05122  0.55373  0.19564  Biso   1.000  H
  H71      1.0000 0.50250  0.94878  0.19564  Biso   1.000  H
  H72      1.0000 0.44627  0.49750  0.19564  Biso   1.000  H
  Cu1      1.0000 0.00000  0.00000  0.00000  Biso   1.000  Cu
  Cu2      1.0000 0.00000  0.00000  0.50000  Biso   1.000  Cu
  Cu3      1.0000 0.66667  0.33333  0.33333  Biso   1.000  Cu
  Cu4      1.0000 0.66667  0.33333  0.83333  Biso   1.000  Cu
  Cu5      1.0000 0.33333  0.66667  0.66667  Biso   1.000  Cu
  Cu6      1.0000 0.33333  0.66667  0.16667  Biso   1.000  Cu
  N1       1.0000 0.96380  0.11680  0.03835  Biso   1.000  N
  N2       1.0000 0.88320  0.84700  0.03835  Biso   1.000  N
  N3       1.0000 0.15300  0.03620  0.03835  Biso   1.000  N
  N4       1.0000 0.11680  0.96380  0.46165  Biso   1.000  N
  N5       1.0000 0.84700  0.88320  0.46165  Biso   1.000  N
  N6       1.0000 0.03620  0.15300  0.46165  Biso   1.000  N
  N7       1.0000 0.63047  0.45013  0.37168  Biso   1.000  N
  N8       1.0000 0.54987  0.18033  0.37168  Biso   1.000  N
  N9       1.0000 0.81967  0.36953  0.37168  Biso   1.000  N
  N10      1.0000 0.78347  0.29713  0.79498  Biso   1.000  N
  N11      1.0000 0.51367  0.21653  0.79498  Biso   1.000  N
  N12      1.0000 0.70287  0.48633  0.79498  Biso   1.000  N
  N13      1.0000 0.29713  0.78347  0.70502  Biso   1.000  N
  N14      1.0000 0.21653  0.51367  0.70502  Biso   1.000  N
  N15      1.0000 0.48633  0.70287  0.70502  Biso   1.000  N
  N16      1.0000 0.45013  0.63047  0.12832  Biso   1.000  N
  N17      1.0000 0.18033  0.54987  0.12832  Biso   1.000  N
  N18      1.0000 0.36953  0.81967  0.12832  Biso   1.000  N
  N19      1.0000 0.03620  0.88320  0.96165  Biso   1.000  N
  N20      1.0000 0.11680  0.15300  0.96165  Biso   1.000  N
  N21      1.0000 0.84700  0.96380  0.96165  Biso   1.000  N
  N22      1.0000 0.88320  0.03620  0.53835  Biso   1.000  N
  N23      1.0000 0.15300  0.11680  0.53835  Biso   1.000  N
  N24      1.0000 0.96380  0.84700  0.53835  Biso   1.000  N
  N25      1.0000 0.70287  0.21653  0.29498  Biso   1.000  N
  N26      1.0000 0.78347  0.48633  0.29498  Biso   1.000  N
  N27      1.0000 0.51367  0.29713  0.29498  Biso   1.000  N
  N28      1.0000 0.54987  0.36953  0.87168  Biso   1.000  N
  N29      1.0000 0.81967  0.45013  0.87168  Biso   1.000  N
  N30      1.0000 0.63047  0.18033  0.87168  Biso   1.000  N
  N31      1.0000 0.36953  0.54987  0.62832  Biso   1.000  N
  N32      1.0000 0.45013  0.81967  0.62832  Biso   1.000  N
  N33      1.0000 0.18033  0.63047  0.62832  Biso   1.000  N
  N34      1.0000 0.21653  0.70287  0.20502  Biso   1.000  N
  N35      1.0000 0.48633  0.78347  0.20502  Biso   1.000  N
  N36      1.0000 0.29713  0.51367  0.20502  Biso   1.000  N
  N37      1.0000 0.86660  0.07870  0.06646  Biso   1.000  N
  N38      1.0000 0.92130  0.78790  0.06646  Biso   1.000  N
  N39      1.0000 0.21210  0.13340  0.06646  Biso   1.000  N
  N40      1.0000 0.07870  0.86660  0.43354  Biso   1.000  N
  N41      1.0000 0.78790  0.92130  0.43354  Biso   1.000  N
  N42      1.0000 0.13340  0.21210  0.43354  Biso   1.000  N
  N43      1.0000 0.53327  0.41203  0.39979  Biso   1.000  N
  N44      1.0000 0.58797  0.12123  0.39979  Biso   1.000  N
  N45      1.0000 0.87877  0.46673  0.39979  Biso   1.000  N
  N46      1.0000 0.74537  0.19993  0.76687  Biso   1.000  N
  N47      1.0000 0.45457  0.25463  0.76687  Biso   1.000  N
  N48      1.0000 0.80007  0.54543  0.76687  Biso   1.000  N
  N49      1.0000 0.19993  0.74537  0.73313  Biso   1.000  N
  N50      1.0000 0.25463  0.45457  0.73313  Biso   1.000  N
  N51      1.0000 0.54543  0.80007  0.73313  Biso   1.000  N
  N52      1.0000 0.41203  0.53327  0.10021  Biso   1.000  N
  N53      1.0000 0.12123  0.58797  0.10021  Biso   1.000  N
  N54      1.0000 0.46673  0.87877  0.10021  Biso   1.000  N
  N55      1.0000 0.13340  0.92130  0.93354  Biso   1.000  N
  N56      1.0000 0.07870  0.21210  0.93354  Biso   1.000  N
  N57      1.0000 0.78790  0.86660  0.93354  Biso   1.000  N
  N58      1.0000 0.92130  0.13340  0.56646  Biso   1.000  N
  N59      1.0000 0.21210  0.07870  0.56646  Biso   1.000  N
  N60      1.0000 0.86660  0.78790  0.56646  Biso   1.000  N
  N61      1.0000 0.80007  0.25463  0.26687  Biso   1.000  N
  N62      1.0000 0.74537  0.54543  0.26687  Biso   1.000  N
  N63      1.0000 0.45457  0.19993  0.26687  Biso   1.000  N
  N64      1.0000 0.58797  0.46673  0.89979  Biso   1.000  N
  N65      1.0000 0.87877  0.41203  0.89979  Biso   1.000  N
  N66      1.0000 0.53327  0.12123  0.89979  Biso   1.000  N
  N67      1.0000 0.46673  0.58797  0.60021  Biso   1.000  N
  N68      1.0000 0.41203  0.87877  0.60021  Biso   1.000  N
  N69      1.0000 0.12123  0.53327  0.60021  Biso   1.000  N
  N70      1.0000 0.25463  0.80007  0.23313  Biso   1.000  N
  N71      1.0000 0.54543  0.74537  0.23313  Biso   1.000  N
  N72      1.0000 0.19993  0.45457  0.23313  Biso   1.000  N
  N73      1.0000 0.99440  0.27440  0.07508  Biso   1.000  N
  N74      1.0000 0.72560  0.72000  0.07508  Biso   1.000  N
  N75      1.0000 0.28000  0.00560  0.07508  Biso   1.000  N
  N76      1.0000 0.27440  0.99440  0.42492  Biso   1.000  N
  N77      1.0000 0.72000  0.72560  0.42492  Biso   1.000  N
  N78      1.0000 0.00560  0.28000  0.42492  Biso   1.000  N
  N79      1.0000 0.66107  0.60773  0.40841  Biso   1.000  N
  N80      1.0000 0.39227  0.05333  0.40841  Biso   1.000  N
  N81      1.0000 0.94667  0.33893  0.40841  Biso   1.000  N
  N82      1.0000 0.94107  0.32773  0.75825  Biso   1.000  N
  N83      1.0000 0.38667  0.05893  0.75825  Biso   1.000  N
  N84      1.0000 0.67227  0.61333  0.75825  Biso   1.000  N
  N85      1.0000 0.32773  0.94107  0.74175  Biso   1.000  N
  N86      1.0000 0.05893  0.38667  0.74175  Biso   1.000  N
  N87      1.0000 0.61333  0.67227  0.74175  Biso   1.000  N
  N88      1.0000 0.60773  0.66107  0.09159  Biso   1.000  N
  N89      1.0000 0.05333  0.39227  0.09159  Biso   1.000  N
  N90      1.0000 0.33893  0.94667  0.09159  Biso   1.000  N
  N91      1.0000 0.00560  0.72560  0.92492  Biso   1.000  N
  N92      1.0000 0.27440  0.28000  0.92492  Biso   1.000  N
  N93      1.0000 0.72000  0.99440  0.92492  Biso   1.000  N
  N94      1.0000 0.72560  0.00560  0.57508  Biso   1.000  N
  N95      1.0000 0.28000  0.27440  0.57508  Biso   1.000  N
  N96      1.0000 0.99440  0.72000  0.57508  Biso   1.000  N
  N97      1.0000 0.67227  0.05893  0.25825  Biso   1.000  N
  N98      1.0000 0.94107  0.61333  0.25825  Biso   1.000  N
  N99      1.0000 0.38667  0.32773  0.25825  Biso   1.000  N
  N100     1.0000 0.39227  0.33893  0.90841  Biso   1.000  N
  N101     1.0000 0.94667  0.60773  0.90841  Biso   1.000  N
  N102     1.0000 0.66107  0.05333  0.90841  Biso   1.000  N
  N103     1.0000 0.33893  0.39227  0.59159  Biso   1.000  N
  N104     1.0000 0.60773  0.94667  0.59159  Biso   1.000  N
  N105     1.0000 0.05333  0.66107  0.59159  Biso   1.000  N
  N106     1.0000 0.05893  0.67227  0.24175  Biso   1.000  N
  N107     1.0000 0.61333  0.94107  0.24175  Biso   1.000  N
  N108     1.0000 0.32773  0.38667  0.24175  Biso   1.000  N
  C73      1.0000 0.66667  0.33333  0.01090  Biso   1.000  C
  C74      1.0000 0.33333  0.66667  0.48910  Biso   1.000  C
  C75      1.0000 0.33334  0.66666  0.34423  Biso   1.000  C
  C76      1.0000 1.00000  0.00000  0.82243  Biso   1.000  C
  C77      1.0000 0.00000  1.00000  0.67757  Biso   1.000  C
  C78      1.0000 0.66666  0.33334  0.15577  Biso   1.000  C
  C79      1.0000 0.33333  0.66667  0.98910  Biso   1.000  C
  C80      1.0000 0.66667  0.33333  0.51090  Biso   1.000  C
  C81      1.0000 1.00000  0.00000  0.32243  Biso   1.000  C
  C82      1.0000 0.33334  0.66666  0.84423  Biso   1.000  C
  C83      1.0000 0.66666  0.33334  0.65577  Biso   1.000  C
  C84      1.0000 0.00000  1.00000  0.17757  Biso   1.000  C
  N109     1.0000 0.72380  0.25790  0.00880  Biso   1.000  N
  N110     1.0000 0.74210  0.46590  0.00880  Biso   1.000  N
  N111     1.0000 0.53410  0.27620  0.00880  Biso   1.000  N
  N112     1.0000 0.25790  0.72380  0.49120  Biso   1.000  N
  N113     1.0000 0.46590  0.74210  0.49120  Biso   1.000  N
  N114     1.0000 0.27620  0.53410  0.49120  Biso   1.000  N
  N115     1.0000 0.39047  0.59123  0.34213  Biso   1.000  N
  N116     1.0000 0.40877  0.79923  0.34213  Biso   1.000  N
  N117     1.0000 0.20077  0.60953  0.34213  Biso   1.000  N
  N118     1.0000 0.92457  0.05713  0.82453  Biso   1.000  N
  N119     1.0000 0.13257  0.07543  0.82453  Biso   1.000  N
  N120     1.0000 0.94287  0.86743  0.82453  Biso   1.000  N
  N121     1.0000 0.05713  0.92457  0.67547  Biso   1.000  N
  N122     1.0000 0.07543  0.13257  0.67547  Biso   1.000  N
  N123     1.0000 0.86743  0.94287  0.67547  Biso   1.000  N
  N124     1.0000 0.59123  0.39047  0.15787  Biso   1.000  N
  N125     1.0000 0.79923  0.40877  0.15787  Biso   1.000  N
  N126     1.0000 0.60953  0.20077  0.15787  Biso   1.000  N
  N127     1.0000 0.27620  0.74210  0.99120  Biso   1.000  N
  N128     1.0000 0.25790  0.53410  0.99120  Biso   1.000  N
  N129     1.0000 0.46590  0.72380  0.99120  Biso   1.000  N
  N130     1.0000 0.74210  0.27620  0.50880  Biso   1.000  N
  N131     1.0000 0.53410  0.25790  0.50880  Biso   1.000  N
  N132     1.0000 0.72380  0.46590  0.50880  Biso   1.000  N
  N133     1.0000 0.94287  0.07543  0.32453  Biso   1.000  N
  N134     1.0000 0.92457  0.86743  0.32453  Biso   1.000  N
  N135     1.0000 0.13257  0.05713  0.32453  Biso   1.000  N
  N136     1.0000 0.40877  0.60953  0.84213  Biso   1.000  N
  N137     1.0000 0.20077  0.59123  0.84213  Biso   1.000  N
  N138     1.0000 0.39047  0.79923  0.84213  Biso   1.000  N
  N139     1.0000 0.60953  0.40877  0.65787  Biso   1.000  N
  N140     1.0000 0.59123  0.20077  0.65787  Biso   1.000  N
  N141     1.0000 0.79923  0.39047  0.65787  Biso   1.000  N
  N142     1.0000 0.07543  0.94287  0.17547  Biso   1.000  N
  N143     1.0000 0.86743  0.92457  0.17547  Biso   1.000  N
  N144     1.0000 0.05713  0.13257  0.17547  Biso   1.000  N
  O1       1.0000 0.83640  0.30750  0.00642  Biso   1.000  O
  O2       1.0000 0.69250  0.52890  0.00642  Biso   1.000  O
  O3       1.0000 0.47110  0.16360  0.00642  Biso   1.000  O
  O4       1.0000 0.30750  0.83640  0.49358  Biso   1.000  O
  O5       1.0000 0.52890  0.69250  0.49358  Biso   1.000  O
  O6       1.0000 0.16360  0.47110  0.49358  Biso   1.000  O
  O7       1.0000 0.50307  0.64083  0.33975  Biso   1.000  O
  O8       1.0000 0.35917  0.86223  0.33975  Biso   1.000  O
  O9       1.0000 0.13777  0.49693  0.33975  Biso   1.000  O
  O10      1.0000 0.97417  0.16973  0.82691  Biso   1.000  O
  O11      1.0000 0.19557  0.02583  0.82691  Biso   1.000  O
  O12      1.0000 0.83027  0.80443  0.82691  Biso   1.000  O
  O13      1.0000 0.16973  0.97417  0.67309  Biso   1.000  O
  O14      1.0000 0.02583  0.19557  0.67309  Biso   1.000  O
  O15      1.0000 0.80443  0.83027  0.67309  Biso   1.000  O
  O16      1.0000 0.64083  0.50307  0.16025  Biso   1.000  O
  O17      1.0000 0.86223  0.35917  0.16025  Biso   1.000  O
  O18      1.0000 0.49693  0.13777  0.16025  Biso   1.000  O
  O19      1.0000 0.16360  0.69250  0.99358  Biso   1.000  O
  O20      1.0000 0.30750  0.47110  0.99358  Biso   1.000  O
  O21      1.0000 0.52890  0.83640  0.99358  Biso   1.000  O
  O22      1.0000 0.69250  0.16360  0.50642  Biso   1.000  O
  O23      1.0000 0.47110  0.30750  0.50642  Biso   1.000  O
  O24      1.0000 0.83640  0.52890  0.50642  Biso   1.000  O
  O25      1.0000 0.83027  0.02583  0.32691  Biso   1.000  O
  O26      1.0000 0.97417  0.80443  0.32691  Biso   1.000  O
  O27      1.0000 0.19557  0.16973  0.32691  Biso   1.000  O
  O28      1.0000 0.35917  0.49693  0.83975  Biso   1.000  O
  O29      1.0000 0.13777  0.64083  0.83975  Biso   1.000  O
  O30      1.0000 0.50307  0.86223  0.83975  Biso   1.000  O
  O31      1.0000 0.49693  0.35917  0.66025  Biso   1.000  O
  O32      1.0000 0.64083  0.13777  0.66025  Biso   1.000  O
  O33      1.0000 0.86223  0.50307  0.66025  Biso   1.000  O
  O34      1.0000 0.02583  0.83027  0.17309  Biso   1.000  O
  O35      1.0000 0.80443  0.97417  0.17309  Biso   1.000  O
  O36      1.0000 0.16973  0.19557  0.17309  Biso   1.000  O
  O37      1.0000 0.66110  0.14460  0.00833  Biso   1.000  O
  O38      1.0000 0.85540  0.51650  0.00833  Biso   1.000  O
  O39      1.0000 0.48350  0.33890  0.00833  Biso   1.000  O
  O40      1.0000 0.14460  0.66110  0.49167  Biso   1.000  O
  O41      1.0000 0.51650  0.85540  0.49167  Biso   1.000  O
  O42      1.0000 0.33890  0.48350  0.49167  Biso   1.000  O
  O43      1.0000 0.32777  0.47793  0.34166  Biso   1.000  O
  O44      1.0000 0.52207  0.84983  0.34166  Biso   1.000  O
  O45      1.0000 0.15017  0.67223  0.34166  Biso   1.000  O
  O46      1.0000 0.81127  0.99443  0.82500  Biso   1.000  O
  O47      1.0000 0.18317  0.18873  0.82500  Biso   1.000  O
  O48      1.0000 0.00557  0.81683  0.82500  Biso   1.000  O
  O49      1.0000 0.99443  0.81127  0.67500  Biso   1.000  O
  O50      1.0000 0.18873  0.18317  0.67500  Biso   1.000  O
  O51      1.0000 0.81683  0.00557  0.67500  Biso   1.000  O
  O52      1.0000 0.47793  0.32777  0.15834  Biso   1.000  O
  O53      1.0000 0.84983  0.52207  0.15834  Biso   1.000  O
  O54      1.0000 0.67223  0.15017  0.15834  Biso   1.000  O
  O55      1.0000 0.33890  0.85540  0.99167  Biso   1.000  O
  O56      1.0000 0.14460  0.48350  0.99167  Biso   1.000  O
  O57      1.0000 0.51650  0.66110  0.99167  Biso   1.000  O
  O58      1.0000 0.85540  0.33890  0.50833  Biso   1.000  O
  O59      1.0000 0.48350  0.14460  0.50833  Biso   1.000  O
  O60      1.0000 0.66110  0.51650  0.50833  Biso   1.000  O
  O61      1.0000 0.00557  0.18873  0.32500  Biso   1.000  O
  O62      1.0000 0.81127  0.81683  0.32500  Biso   1.000  O
  O63      1.0000 0.18317  0.99443  0.32500  Biso   1.000  O
  O64      1.0000 0.52207  0.67223  0.84166  Biso   1.000  O
  O65      1.0000 0.15017  0.47793  0.84166  Biso   1.000  O
  O66      1.0000 0.32777  0.84983  0.84166  Biso   1.000  O
  O67      1.0000 0.67223  0.52207  0.65834  Biso   1.000  O
  O68      1.0000 0.47793  0.15017  0.65834  Biso   1.000  O
  O69      1.0000 0.84983  0.32777  0.65834  Biso   1.000  O
  O70      1.0000 0.18873  0.00557  0.17500  Biso   1.000  O
  O71      1.0000 0.81683  0.81127  0.17500  Biso   1.000  O
  O72      1.0000 0.99443  0.18317  0.17500  Biso   1.000  O
  N145     1.0000 0.72000  0.27800  0.02350  Biso   1.000  N
  N146     1.0000 0.72200  0.44200  0.02350  Biso   1.000  N
  N147     1.0000 0.55800  0.28000  0.02350  Biso   1.000  N
  N148     1.0000 0.27800  0.72000  0.47650  Biso   1.000  N
  N149     1.0000 0.44200  0.72200  0.47650  Biso   1.000  N
  N150     1.0000 0.28000  0.55800  0.47650  Biso   1.000  N
  N151     1.0000 0.38667  0.61133  0.35683  Biso   1.000  N
  N152     1.0000 0.38867  0.77533  0.35683  Biso   1.000  N
  N153     1.0000 0.22467  0.61333  0.35683  Biso   1.000  N
  N154     1.0000 0.94467  0.05333  0.80983  Biso   1.000  N
  N155     1.0000 0.10867  0.05533  0.80983  Biso   1.000  N
  N156     1.0000 0.94667  0.89133  0.80983  Biso   1.000  N
  N157     1.0000 0.05333  0.94467  0.69017  Biso   1.000  N
  N158     1.0000 0.05533  0.10867  0.69017  Biso   1.000  N
  N159     1.0000 0.89133  0.94667  0.69017  Biso   1.000  N
  N160     1.0000 0.61133  0.38667  0.14317  Biso   1.000  N
  N161     1.0000 0.77533  0.38867  0.14317  Biso   1.000  N
  N162     1.0000 0.61333  0.22467  0.14317  Biso   1.000  N
  N163     1.0000 0.28000  0.72200  0.97650  Biso   1.000  N
  N164     1.0000 0.27800  0.55800  0.97650  Biso   1.000  N
  N165     1.0000 0.44200  0.72000  0.97650  Biso   1.000  N
  N166     1.0000 0.72200  0.28000  0.52350  Biso   1.000  N
  N167     1.0000 0.55800  0.27800  0.52350  Biso   1.000  N
  N168     1.0000 0.72000  0.44200  0.52350  Biso   1.000  N
  N169     1.0000 0.94667  0.05533  0.30983  Biso   1.000  N
  N170     1.0000 0.94467  0.89133  0.30983  Biso   1.000  N
  N171     1.0000 0.10867  0.05333  0.30983  Biso   1.000  N
  N172     1.0000 0.38867  0.61333  0.85683  Biso   1.000  N
  N173     1.0000 0.22467  0.61133  0.85683  Biso   1.000  N
  N174     1.0000 0.38667  0.77533  0.85683  Biso   1.000  N
  N175     1.0000 0.61333  0.38867  0.64317  Biso   1.000  N
  N176     1.0000 0.61133  0.22467  0.64317  Biso   1.000  N
  N177     1.0000 0.77533  0.38667  0.64317  Biso   1.000  N
  N178     1.0000 0.05533  0.94667  0.19017  Biso   1.000  N
  N179     1.0000 0.89133  0.94467  0.19017  Biso   1.000  N
  N180     1.0000 0.05333  0.10867  0.19017  Biso   1.000  N
  O73      1.0000 0.73430  0.26430  0.06070  Biso   1.000  O
  O74      1.0000 0.73570  0.47000  0.06070  Biso   1.000  O
  O75      1.0000 0.53000  0.26570  0.06070  Biso   1.000  O
  O76      1.0000 0.26430  0.73430  0.43930  Biso   1.000  O
  O77      1.0000 0.47000  0.73570  0.43930  Biso   1.000  O
  O78      1.0000 0.26570  0.53000  0.43930  Biso   1.000  O
  O79      1.0000 0.40097  0.59763  0.39403  Biso   1.000  O
  O80      1.0000 0.40237  0.80333  0.39403  Biso   1.000  O
  O81      1.0000 0.19667  0.59903  0.39403  Biso   1.000  O
  O82      1.0000 0.93097  0.06763  0.77263  Biso   1.000  O
  O83      1.0000 0.13667  0.06903  0.77263  Biso   1.000  O
  O84      1.0000 0.93237  0.86333  0.77263  Biso   1.000  O
  O85      1.0000 0.06763  0.93097  0.72737  Biso   1.000  O
  O86      1.0000 0.06903  0.13667  0.72737  Biso   1.000  O
  O87      1.0000 0.86333  0.93237  0.72737  Biso   1.000  O
  O88      1.0000 0.59763  0.40097  0.10597  Biso   1.000  O
  O89      1.0000 0.80333  0.40237  0.10597  Biso   1.000  O
  O90      1.0000 0.59903  0.19667  0.10597  Biso   1.000  O
  O91      1.0000 0.26570  0.73570  0.93930  Biso   1.000  O
  O92      1.0000 0.26430  0.53000  0.93930  Biso   1.000  O
  O93      1.0000 0.47000  0.73430  0.93930  Biso   1.000  O
  O94      1.0000 0.73570  0.26570  0.56070  Biso   1.000  O
  O95      1.0000 0.53000  0.26430  0.56070  Biso   1.000  O
  O96      1.0000 0.73430  0.47000  0.56070  Biso   1.000  O
  O97      1.0000 0.93237  0.06903  0.27263  Biso   1.000  O
  O98      1.0000 0.93097  0.86333  0.27263  Biso   1.000  O
  O99      1.0000 0.13667  0.06763  0.27263  Biso   1.000  O
  O100     1.0000 0.40237  0.59903  0.89403  Biso   1.000  O
  O101     1.0000 0.19667  0.59763  0.89403  Biso   1.000  O
  O102     1.0000 0.40097  0.80333  0.89403  Biso   1.000  O
  O103     1.0000 0.59903  0.40237  0.60597  Biso   1.000  O
  O104     1.0000 0.59763  0.19667  0.60597  Biso   1.000  O
  O105     1.0000 0.80333  0.40097  0.60597  Biso   1.000  O
  O106     1.0000 0.06903  0.93237  0.22737  Biso   1.000  O
  O107     1.0000 0.86333  0.93097  0.22737  Biso   1.000  O
  O108     1.0000 0.06763  0.13667  0.22737  Biso   1.000  O
  O109     1.0000 0.77160  0.25210  0.99580  Biso   1.000  O
  O110     1.0000 0.74790  0.51950  0.99580  Biso   1.000  O
  O111     1.0000 0.48050  0.22840  0.99580  Biso   1.000  O
  O112     1.0000 0.25210  0.77160  0.50420  Biso   1.000  O
  O113     1.0000 0.51950  0.74790  0.50420  Biso   1.000  O
  O114     1.0000 0.22840  0.48050  0.50420  Biso   1.000  O
  O115     1.0000 0.43827  0.58543  0.32913  Biso   1.000  O
  O116     1.0000 0.41457  0.85283  0.32913  Biso   1.000  O
  O117     1.0000 0.14717  0.56173  0.32913  Biso   1.000  O
  O118     1.0000 0.91877  0.10493  0.83753  Biso   1.000  O
  O119     1.0000 0.18617  0.08123  0.83753  Biso   1.000  O
  O120     1.0000 0.89507  0.81383  0.83753  Biso   1.000  O
  O121     1.0000 0.10493  0.91877  0.66247  Biso   1.000  O
  O122     1.0000 0.08123  0.18617  0.66247  Biso   1.000  O
  O123     1.0000 0.81383  0.89507  0.66247  Biso   1.000  O
  O124     1.0000 0.58543  0.43827  0.17087  Biso   1.000  O
  O125     1.0000 0.85283  0.41457  0.17087  Biso   1.000  O
  O126     1.0000 0.56173  0.14717  0.17087  Biso   1.000  O
  O127     1.0000 0.22840  0.74790  0.00420  Biso   1.000  O
  O128     1.0000 0.25210  0.48050  0.00420  Biso   1.000  O
  O129     1.0000 0.51950  0.77160  0.00420  Biso   1.000  O
  O130     1.0000 0.74790  0.22840  0.49580  Biso   1.000  O
  O131     1.0000 0.48050  0.25210  0.49580  Biso   1.000  O
  O132     1.0000 0.77160  0.51950  0.49580  Biso   1.000  O
  O133     1.0000 0.89507  0.08123  0.33753  Biso   1.000  O
  O134     1.0000 0.91877  0.81383  0.33753  Biso   1.000  O
  O135     1.0000 0.18617  0.10493  0.33753  Biso   1.000  O
  O136     1.0000 0.41457  0.56173  0.82913  Biso   1.000  O
  O137     1.0000 0.14717  0.58543  0.82913  Biso   1.000  O
  O138     1.0000 0.43827  0.85283  0.82913  Biso   1.000  O
  O139     1.0000 0.56173  0.41457  0.67087  Biso   1.000  O
  O140     1.0000 0.58543  0.14717  0.67087  Biso   1.000  O
  O141     1.0000 0.85283  0.43827  0.67087  Biso   1.000  O
  O142     1.0000 0.08123  0.89507  0.16247  Biso   1.000  O
  O143     1.0000 0.81383  0.91877  0.16247  Biso   1.000  O
  O144     1.0000 0.10493  0.18617  0.16247  Biso   1.000  O
