data_image0
_cell_length_a       8.299
_cell_length_b       20.2363
_cell_length_c       8.6572
_cell_angle_alpha    90
_cell_angle_beta     92.74
_cell_angle_gamma    90

_symmetry_space_group_name_H-M    "P 1"
_symmetry_int_tables_number       1

loop_
  _symmetry_equiv_pos_as_xyz
  'x, y, z'

loop_
  _atom_site_label
  _atom_site_occupancy
  _atom_site_fract_x
  _atom_site_fract_y
  _atom_site_fract_z
  _atom_site_thermal_displace_type
  _atom_site_B_iso_or_equiv
  _atom_site_type_symbol
  C1       1.0000 0.68690  0.14260  0.13030  Biso   1.000  C
  C2       1.0000 0.81310  0.64260  0.36970  Biso   1.000  C
  C3       1.0000 0.31310  0.85740  0.86970  Biso   1.000  C
  C4       1.0000 0.18690  0.35740  0.63030  Biso   1.000  C
  H1       1.0000 0.58160  0.15940  0.14390  Biso   1.000  H
  H2       1.0000 0.91840  0.65940  0.35610  Biso   1.000  H
  H3       1.0000 0.41840  0.84060  0.85610  Biso   1.000  H
  H4       1.0000 0.08160  0.34060  0.64390  Biso   1.000  H
  C5       1.0000 0.94760  0.13560  0.12970  Biso   1.000  C
  C6       1.0000 0.55240  0.63560  0.37030  Biso   1.000  C
  C7       1.0000 0.05240  0.86440  0.87030  Biso   1.000  C
  C8       1.0000 0.44760  0.36440  0.62970  Biso   1.000  C
  H5       1.0000 0.05950  0.14530  0.14230  Biso   1.000  H
  H6       1.0000 0.44050  0.64530  0.35770  Biso   1.000  H
  H7       1.0000 0.94050  0.85470  0.85770  Biso   1.000  H
  H8       1.0000 0.55950  0.35470  0.64230  Biso   1.000  H
  C9       1.0000 0.88300  0.36250  0.34670  Biso   1.000  C
  C10      1.0000 0.61700  0.86250  0.15330  Biso   1.000  C
  C11      1.0000 0.11700  0.63750  0.65330  Biso   1.000  C
  C12      1.0000 0.38300  0.13750  0.84670  Biso   1.000  C
  H9       1.0000 0.98790  0.34360  0.35460  Biso   1.000  H
  H10      1.0000 0.51210  0.84360  0.14540  Biso   1.000  H
  H11      1.0000 0.01210  0.65640  0.64540  Biso   1.000  H
  H12      1.0000 0.48790  0.15640  0.85460  Biso   1.000  H
  C13      1.0000 0.62850  0.37640  0.29150  Biso   1.000  C
  C14      1.0000 0.87150  0.87640  0.20850  Biso   1.000  C
  C15      1.0000 0.37150  0.62360  0.70850  Biso   1.000  C
  C16      1.0000 0.12850  0.12360  0.79150  Biso   1.000  C
  H13      1.0000 0.52070  0.36970  0.25300  Biso   1.000  H
  H14      1.0000 0.97930  0.86970  0.24700  Biso   1.000  H
  H15      1.0000 0.47930  0.63030  0.74700  Biso   1.000  H
  H16      1.0000 0.02070  0.13030  0.75300  Biso   1.000  H
  C17      1.0000 0.19830  0.00430  0.43860  Biso   1.000  C
  C18      1.0000 0.30170  0.50430  0.06140  Biso   1.000  C
  C19      1.0000 0.80170  0.99570  0.56140  Biso   1.000  C
  C20      1.0000 0.69830  0.49570  0.93860  Biso   1.000  C
  H17      1.0000 0.18670  0.00520  0.54720  Biso   1.000  H
  H18      1.0000 0.31330  0.50520  0.95280  Biso   1.000  H
  H19      1.0000 0.81330  0.99480  0.45280  Biso   1.000  H
  H20      1.0000 0.68670  0.49480  0.04720  Biso   1.000  H
  C21      1.0000 0.30650  0.00090  0.21350  Biso   1.000  C
  C22      1.0000 0.19350  0.50090  0.28650  Biso   1.000  C
  C23      1.0000 0.69350  0.99910  0.78650  Biso   1.000  C
  C24      1.0000 0.80650  0.49910  0.71350  Biso   1.000  C
  H21      1.0000 0.38240  0.99920  0.13480  Biso   1.000  H
  H22      1.0000 0.11760  0.49920  0.36520  Biso   1.000  H
  H23      1.0000 0.61760  0.00080  0.86520  Biso   1.000  H
  H24      1.0000 0.88240  0.50080  0.63480  Biso   1.000  H
  Cu1      1.0000 0.00000  0.00000  0.00000  Biso   1.000  Cu
  Cu2      1.0000 0.50000  0.50000  0.50000  Biso   1.000  Cu
  N1       1.0000 0.85570  0.24053  0.21840  Biso   1.000  N
  N2       1.0000 0.64430  0.74053  0.28160  Biso   1.000  N
  N3       1.0000 0.14430  0.75947  0.78160  Biso   1.000  N
  N4       1.0000 0.35570  0.25947  0.71840  Biso   1.000  N
  N5       1.0000 0.72800  0.27201  0.20990  Biso   1.000  N
  N6       1.0000 0.77200  0.77201  0.29010  Biso   1.000  N
  N7       1.0000 0.27200  0.72799  0.79010  Biso   1.000  N
  N8       1.0000 0.22800  0.22799  0.70990  Biso   1.000  N
  N9       1.0000 0.88630  0.07994  0.07960  Biso   1.000  N
  N10      1.0000 0.61370  0.57994  0.42040  Biso   1.000  N
  N11      1.0000 0.11370  0.92006  0.92040  Biso   1.000  N
  N12      1.0000 0.38630  0.42006  0.57960  Biso   1.000  N
  N13      1.0000 0.71840  0.08406  0.08050  Biso   1.000  N
  N14      1.0000 0.78160  0.58406  0.41950  Biso   1.000  N
  N15      1.0000 0.28160  0.91594  0.91950  Biso   1.000  N
  N16      1.0000 0.21840  0.41594  0.58050  Biso   1.000  N
  N17      1.0000 0.82780  0.17701  0.16080  Biso   1.000  N
  N18      1.0000 0.67220  0.67701  0.33920  Biso   1.000  N
  N19      1.0000 0.17220  0.82299  0.83920  Biso   1.000  N
  N20      1.0000 0.32780  0.32299  0.66080  Biso   1.000  N
  N21      1.0000 0.67890  0.42785  0.37010  Biso   1.000  N
  N22      1.0000 0.82110  0.92785  0.12990  Biso   1.000  N
  N23      1.0000 0.32110  0.57215  0.62990  Biso   1.000  N
  N24      1.0000 0.17890  0.07215  0.87010  Biso   1.000  N
  N25      1.0000 0.84420  0.41889  0.40450  Biso   1.000  N
  N26      1.0000 0.65580  0.91889  0.09550  Biso   1.000  N
  N27      1.0000 0.15580  0.58111  0.59550  Biso   1.000  N
  N28      1.0000 0.34420  0.08111  0.90450  Biso   1.000  N
  N29      1.0000 0.75170  0.33400  0.27270  Biso   1.000  N
  N30      1.0000 0.74830  0.83400  0.22730  Biso   1.000  N
  N31      1.0000 0.24830  0.66600  0.72730  Biso   1.000  N
  N32      1.0000 0.25170  0.16600  0.77270  Biso   1.000  N
  N33      1.0000 0.49960  0.00021  0.42800  Biso   1.000  N
  N34      1.0000 0.00040  0.50021  0.07200  Biso   1.000  N
  N35      1.0000 0.50040  0.99979  0.57200  Biso   1.000  N
  N36      1.0000 0.99960  0.49979  0.92800  Biso   1.000  N
  N37      1.0000 0.15050  0.00233  0.19070  Biso   1.000  N
  N38      1.0000 0.34950  0.50233  0.30930  Biso   1.000  N
  N39      1.0000 0.84950  0.99767  0.80930  Biso   1.000  N
  N40      1.0000 0.65050  0.49767  0.69070  Biso   1.000  N
  N41      1.0000 0.08080  0.00498  0.33540  Biso   1.000  N
  N42      1.0000 0.41920  0.50498  0.16460  Biso   1.000  N
  N43      1.0000 0.91920  0.99502  0.66460  Biso   1.000  N
  N44      1.0000 0.58080  0.49502  0.83540  Biso   1.000  N
  N45      1.0000 0.34290  0.00220  0.36740  Biso   1.000  N
  N46      1.0000 0.15710  0.50220  0.13260  Biso   1.000  N
  N47      1.0000 0.65710  0.99780  0.63260  Biso   1.000  N
  N48      1.0000 0.84290  0.49780  0.86740  Biso   1.000  N
  Cl1      1.0000 0.71551  0.18427  0.58900  Biso   1.000  Cl
  Cl2      1.0000 0.78449  0.68427  0.91100  Biso   1.000  Cl
  Cl3      1.0000 0.28449  0.81573  0.41100  Biso   1.000  Cl
  Cl4      1.0000 0.21551  0.31573  0.08900  Biso   1.000  Cl
  O1       1.0000 0.68930  0.25034  0.54160  Biso   1.000  O
  O2       1.0000 0.81070  0.75034  0.95840  Biso   1.000  O
  O3       1.0000 0.31070  0.74966  0.45840  Biso   1.000  O
  O4       1.0000 0.18930  0.24966  0.04160  Biso   1.000  O
  O5       1.0000 0.74860  0.18139  0.75280  Biso   1.000  O
  O6       1.0000 0.75140  0.68139  0.74720  Biso   1.000  O
  O7       1.0000 0.25140  0.81861  0.24720  Biso   1.000  O
  O8       1.0000 0.24860  0.31861  0.25280  Biso   1.000  O
  O9       1.0000 0.56810  0.14710  0.55370  Biso   1.000  O
  O10      1.0000 0.93190  0.64710  0.94630  Biso   1.000  O
  O11      1.0000 0.43190  0.85290  0.44630  Biso   1.000  O
  O12      1.0000 0.06810  0.35290  0.05370  Biso   1.000  O
  O13      1.0000 0.84690  0.15590  0.51200  Biso   1.000  O
  O14      1.0000 0.65310  0.65590  0.98800  Biso   1.000  O
  O15      1.0000 0.15310  0.84410  0.48800  Biso   1.000  O
  O16      1.0000 0.34690  0.34410  0.01200  Biso   1.000  O
  O17      1.0000 0.33190  0.16330  0.30260  Biso   1.000  O
  O18      1.0000 0.16810  0.66330  0.19740  Biso   1.000  O
  O19      1.0000 0.66810  0.83670  0.69740  Biso   1.000  O
  O20      1.0000 0.83190  0.33670  0.80260  Biso   1.000  O
  H25      1.0000 0.38700  0.16300  0.38700  Biso   1.000  H
  H26      1.0000 0.11300  0.66300  0.11300  Biso   1.000  H
  H27      1.0000 0.61300  0.83700  0.61300  Biso   1.000  H
  H28      1.0000 0.88700  0.33700  0.88700  Biso   1.000  H
  H29      1.0000 0.30200  0.20270  0.28400  Biso   1.000  H
  H30      1.0000 0.19800  0.70270  0.21600  Biso   1.000  H
  H31      1.0000 0.69800  0.79730  0.71600  Biso   1.000  H
  H32      1.0000 0.80200  0.29730  0.78400  Biso   1.000  H
