data_image0
_cell_length_a       4.867
_cell_length_b       29.028
_cell_length_c       15.164
_cell_angle_alpha    90
_cell_angle_beta     90.08
_cell_angle_gamma    90

_symmetry_space_group_name_H-M    "P 1"
_symmetry_int_tables_number       1

loop_
  _symmetry_equiv_pos_as_xyz
  'x, y, z'

loop_
  _atom_site_label
  _atom_site_occupancy
  _atom_site_fract_x
  _atom_site_fract_y
  _atom_site_fract_z
  _atom_site_thermal_displace_type
  _atom_site_B_iso_or_equiv
  _atom_site_type_symbol
  Cu1      1.0000 0.45420  0.33947  0.20356  Biso   1.000  Cu
  Cu2      1.0000 0.54580  0.83947  0.29644  Biso   1.000  Cu
  Cu3      1.0000 0.54580  0.66053  0.79644  Biso   1.000  Cu
  Cu4      1.0000 0.45420  0.16053  0.70356  Biso   1.000  Cu
  O1       1.0000 0.89770  0.36020  0.20500  Biso   1.000  O
  O2       1.0000 0.10230  0.86020  0.29500  Biso   1.000  O
  O3       1.0000 0.10230  0.63980  0.79500  Biso   1.000  O
  O4       1.0000 0.89770  0.13980  0.70500  Biso   1.000  O
  O5       1.0000 0.28000  0.40220  0.20380  Biso   1.000  O
  O6       1.0000 0.72000  0.90220  0.29620  Biso   1.000  O
  O7       1.0000 0.72000  0.59780  0.79620  Biso   1.000  O
  O8       1.0000 0.28000  0.09780  0.70380  Biso   1.000  O
  N1       1.0000 0.86500  0.43770  0.19870  Biso   1.000  N
  N2       1.0000 0.13500  0.93770  0.30130  Biso   1.000  N
  N3       1.0000 0.13500  0.56230  0.80130  Biso   1.000  N
  N4       1.0000 0.86500  0.06230  0.69870  Biso   1.000  N
  H1       1.0000 0.68550  0.43480  0.19670  Biso   1.000  H
  H2       1.0000 0.31450  0.93480  0.30330  Biso   1.000  H
  H3       1.0000 0.31450  0.56520  0.80330  Biso   1.000  H
  H4       1.0000 0.68550  0.06520  0.69670  Biso   1.000  H
  N5       1.0000 0.40500  0.33920  0.33770  Biso   1.000  N
  N6       1.0000 0.59500  0.83920  0.16230  Biso   1.000  N
  N7       1.0000 0.59500  0.66080  0.66230  Biso   1.000  N
  N8       1.0000 0.40500  0.16080  0.83770  Biso   1.000  N
  H5       1.0000 0.21990  0.33830  0.34940  Biso   1.000  H
  H6       1.0000 0.78010  0.83830  0.15060  Biso   1.000  H
  H7       1.0000 0.78010  0.66170  0.65060  Biso   1.000  H
  H8       1.0000 0.21990  0.16170  0.84940  Biso   1.000  H
  H9       1.0000 0.48000  0.31230  0.35910  Biso   1.000  H
  H10      1.0000 0.52000  0.81230  0.14090  Biso   1.000  H
  H11      1.0000 0.52000  0.68770  0.64090  Biso   1.000  H
  H12      1.0000 0.48000  0.18770  0.85910  Biso   1.000  H
  N9       1.0000 0.55800  0.27250  0.20160  Biso   1.000  N
  N10      1.0000 0.44200  0.77250  0.29840  Biso   1.000  N
  N11      1.0000 0.44200  0.72750  0.79840  Biso   1.000  N
  N12      1.0000 0.55800  0.22750  0.70160  Biso   1.000  N
  H13      1.0000 0.65900  0.26690  0.15150  Biso   1.000  H
  H14      1.0000 0.34100  0.76690  0.34850  Biso   1.000  H
  H15      1.0000 0.34100  0.73310  0.84850  Biso   1.000  H
  H16      1.0000 0.65900  0.23310  0.65150  Biso   1.000  H
  H17      1.0000 0.66940  0.26650  0.24930  Biso   1.000  H
  H18      1.0000 0.33060  0.76650  0.25070  Biso   1.000  H
  H19      1.0000 0.33060  0.73350  0.75070  Biso   1.000  H
  H20      1.0000 0.66940  0.23350  0.74930  Biso   1.000  H
  N13      1.0000 0.39500  0.33840  0.06950  Biso   1.000  N
  N14      1.0000 0.60500  0.83840  0.43050  Biso   1.000  N
  N15      1.0000 0.60500  0.66160  0.93050  Biso   1.000  N
  N16      1.0000 0.39500  0.16160  0.56950  Biso   1.000  N
  H21      1.0000 0.47510  0.31210  0.04730  Biso   1.000  H
  H22      1.0000 0.52490  0.81210  0.45270  Biso   1.000  H
  H23      1.0000 0.52490  0.68790  0.95270  Biso   1.000  H
  H24      1.0000 0.47510  0.18790  0.54730  Biso   1.000  H
  H25      1.0000 0.20930  0.33640  0.05850  Biso   1.000  H
  H26      1.0000 0.79070  0.83640  0.44150  Biso   1.000  H
  H27      1.0000 0.79070  0.66360  0.94150  Biso   1.000  H
  H28      1.0000 0.20930  0.16360  0.55850  Biso   1.000  H
  C1       1.0000 0.00400  0.39920  0.20280  Biso   1.000  C
  C2       1.0000 0.99600  0.89920  0.29720  Biso   1.000  C
  C3       1.0000 0.99600  0.60080  0.79720  Biso   1.000  C
  C4       1.0000 0.00400  0.10080  0.70280  Biso   1.000  C
  C5       1.0000 0.96900  0.48410  0.19690  Biso   1.000  C
  C6       1.0000 0.03100  0.98410  0.30310  Biso   1.000  C
  C7       1.0000 0.03100  0.51590  0.80310  Biso   1.000  C
  C8       1.0000 0.96900  0.01590  0.69690  Biso   1.000  C
  H29      1.0000 0.88970  0.50050  0.14560  Biso   1.000  H
  H30      1.0000 0.11030  0.00050  0.35440  Biso   1.000  H
  H31      1.0000 0.11030  0.49950  0.85440  Biso   1.000  H
  H32      1.0000 0.88970  0.99950  0.64560  Biso   1.000  H
  H33      1.0000 0.17090  0.48330  0.18960  Biso   1.000  H
  H34      1.0000 0.82910  0.98330  0.31040  Biso   1.000  H
  H35      1.0000 0.82910  0.51670  0.81040  Biso   1.000  H
  H36      1.0000 0.17090  0.01670  0.68960  Biso   1.000  H
  C9       1.0000 0.89900  0.51060  0.28120  Biso   1.000  C
  C10      1.0000 0.10100  0.01060  0.21880  Biso   1.000  C
  C11      1.0000 0.10100  0.48940  0.71880  Biso   1.000  C
  C12      1.0000 0.89900  0.98940  0.78120  Biso   1.000  C
  H37      1.0000 0.95980  0.54290  0.27490  Biso   1.000  H
  H38      1.0000 0.04020  0.04290  0.22510  Biso   1.000  H
  H39      1.0000 0.04020  0.45710  0.72510  Biso   1.000  H
  H40      1.0000 0.95980  0.95710  0.77490  Biso   1.000  H
  H41      1.0000 0.69680  0.51070  0.28940  Biso   1.000  H
  H42      1.0000 0.30320  0.01070  0.21060  Biso   1.000  H
  H43      1.0000 0.30320  0.48930  0.71060  Biso   1.000  H
  H44      1.0000 0.69680  0.98930  0.78940  Biso   1.000  H
  C13      1.0000 0.03400  0.48940  0.36220  Biso   1.000  C
  C14      1.0000 0.96600  0.98940  0.13780  Biso   1.000  C
  C15      1.0000 0.96600  0.51060  0.63780  Biso   1.000  C
  C16      1.0000 0.03400  0.01060  0.86220  Biso   1.000  C
  H45      1.0000 0.98110  0.50680  0.41490  Biso   1.000  H
  H46      1.0000 0.01890  0.00680  0.08510  Biso   1.000  H
  H47      1.0000 0.01890  0.49320  0.58510  Biso   1.000  H
  H48      1.0000 0.98110  0.99320  0.91490  Biso   1.000  H
  H49      1.0000 0.23460  0.49040  0.35550  Biso   1.000  H
  H50      1.0000 0.76540  0.99040  0.14450  Biso   1.000  H
  H51      1.0000 0.76540  0.50960  0.64450  Biso   1.000  H
  H52      1.0000 0.23460  0.00960  0.85550  Biso   1.000  H
  H53      1.0000 0.97500  0.45730  0.36840  Biso   1.000  H
  H54      1.0000 0.02500  0.95730  0.13160  Biso   1.000  H
  H55      1.0000 0.02500  0.54270  0.63160  Biso   1.000  H
  H56      1.0000 0.97500  0.04270  0.86840  Biso   1.000  H
  C17      1.0000 0.52100  0.37680  0.38680  Biso   1.000  C
  C18      1.0000 0.47900  0.87680  0.11320  Biso   1.000  C
  C19      1.0000 0.47900  0.62320  0.61320  Biso   1.000  C
  C20      1.0000 0.52100  0.12320  0.88680  Biso   1.000  C
  H57      1.0000 0.47500  0.40610  0.35720  Biso   1.000  H
  H58      1.0000 0.52500  0.90610  0.14280  Biso   1.000  H
  H59      1.0000 0.52500  0.59390  0.64280  Biso   1.000  H
  H60      1.0000 0.47500  0.09390  0.85720  Biso   1.000  H
  H61      1.0000 0.72380  0.37370  0.38760  Biso   1.000  H
  H62      1.0000 0.27620  0.87370  0.11240  Biso   1.000  H
  H63      1.0000 0.27620  0.62630  0.61240  Biso   1.000  H
  H64      1.0000 0.72380  0.12630  0.88760  Biso   1.000  H
  C21      1.0000 0.41500  0.37800  0.48190  Biso   1.000  C
  C22      1.0000 0.58500  0.87800  0.01810  Biso   1.000  C
  C23      1.0000 0.58500  0.62200  0.51810  Biso   1.000  C
  C24      1.0000 0.41500  0.12200  0.98190  Biso   1.000  C
  H65      1.0000 0.45500  0.34840  0.51140  Biso   1.000  H
  H66      1.0000 0.54500  0.84840  0.98860  Biso   1.000  H
  H67      1.0000 0.54500  0.65160  0.48860  Biso   1.000  H
  H68      1.0000 0.45500  0.15160  0.01140  Biso   1.000  H
  H69      1.0000 0.21290  0.38250  0.48160  Biso   1.000  H
  H70      1.0000 0.78710  0.88250  0.01840  Biso   1.000  H
  H71      1.0000 0.78710  0.61750  0.51840  Biso   1.000  H
  H72      1.0000 0.21290  0.11750  0.98160  Biso   1.000  H
  C25      1.0000 0.55200  0.41750  0.53310  Biso   1.000  C
  C26      1.0000 0.44800  0.91750  0.96690  Biso   1.000  C
  C27      1.0000 0.44800  0.58250  0.46690  Biso   1.000  C
  C28      1.0000 0.55200  0.08250  0.03310  Biso   1.000  C
  H73      1.0000 0.47900  0.41840  0.59330  Biso   1.000  H
  H74      1.0000 0.52100  0.91840  0.90670  Biso   1.000  H
  H75      1.0000 0.52100  0.58160  0.40670  Biso   1.000  H
  H76      1.0000 0.47900  0.08160  0.09330  Biso   1.000  H
  H77      1.0000 0.51290  0.44680  0.50350  Biso   1.000  H
  H78      1.0000 0.48710  0.94680  0.99650  Biso   1.000  H
  H79      1.0000 0.48710  0.55320  0.49650  Biso   1.000  H
  H80      1.0000 0.51290  0.05320  0.00350  Biso   1.000  H
  H81      1.0000 0.75070  0.41250  0.53510  Biso   1.000  H
  H82      1.0000 0.24930  0.91250  0.96490  Biso   1.000  H
  H83      1.0000 0.24930  0.58750  0.46490  Biso   1.000  H
  H84      1.0000 0.75070  0.08750  0.03510  Biso   1.000  H
  C29      1.0000 0.32600  0.24030  0.20360  Biso   1.000  C
  C30      1.0000 0.67400  0.74030  0.29640  Biso   1.000  C
  C31      1.0000 0.67400  0.75970  0.79640  Biso   1.000  C
  C32      1.0000 0.32600  0.25970  0.70360  Biso   1.000  C
  H85      1.0000 0.21100  0.24550  0.15070  Biso   1.000  H
  H86      1.0000 0.78900  0.74550  0.34930  Biso   1.000  H
  H87      1.0000 0.78900  0.75450  0.84930  Biso   1.000  H
  H88      1.0000 0.21100  0.25450  0.65070  Biso   1.000  H
  H89      1.0000 0.21270  0.24700  0.25610  Biso   1.000  H
  H90      1.0000 0.78730  0.74700  0.24390  Biso   1.000  H
  H91      1.0000 0.78730  0.75300  0.74390  Biso   1.000  H
  H92      1.0000 0.21270  0.25300  0.75610  Biso   1.000  H
  C33      1.0000 0.41100  0.18960  0.20620  Biso   1.000  C
  C34      1.0000 0.58900  0.68960  0.29380  Biso   1.000  C
  C35      1.0000 0.58900  0.81040  0.79380  Biso   1.000  C
  C36      1.0000 0.41100  0.31040  0.70620  Biso   1.000  C
  H93      1.0000 0.51460  0.18340  0.26110  Biso   1.000  H
  H94      1.0000 0.48540  0.68340  0.23890  Biso   1.000  H
  H95      1.0000 0.48540  0.81660  0.73890  Biso   1.000  H
  H96      1.0000 0.51460  0.31660  0.76110  Biso   1.000  H
  H97      1.0000 0.53200  0.18270  0.15560  Biso   1.000  H
  H98      1.0000 0.46800  0.68270  0.34440  Biso   1.000  H
  H99      1.0000 0.46800  0.81730  0.84440  Biso   1.000  H
  H100     1.0000 0.53200  0.31730  0.65560  Biso   1.000  H
  C37      1.0000 0.15600  0.15820  0.20260  Biso   1.000  C
  C38      1.0000 0.84400  0.65820  0.29740  Biso   1.000  C
  C39      1.0000 0.84400  0.84180  0.79740  Biso   1.000  C
  C40      1.0000 0.15600  0.34180  0.70260  Biso   1.000  C
  H101     1.0000 0.21350  0.12590  0.20440  Biso   1.000  H
  H102     1.0000 0.78650  0.62590  0.29560  Biso   1.000  H
  H103     1.0000 0.78650  0.87410  0.79560  Biso   1.000  H
  H104     1.0000 0.21350  0.37410  0.70440  Biso   1.000  H
  H105     1.0000 0.05430  0.16400  0.14780  Biso   1.000  H
  H106     1.0000 0.94570  0.66400  0.35220  Biso   1.000  H
  H107     1.0000 0.94570  0.83600  0.85220  Biso   1.000  H
  H108     1.0000 0.05430  0.33600  0.64780  Biso   1.000  H
  H109     1.0000 0.03670  0.16470  0.25310  Biso   1.000  H
  H110     1.0000 0.96330  0.66470  0.24690  Biso   1.000  H
  H111     1.0000 0.96330  0.83530  0.74690  Biso   1.000  H
  H112     1.0000 0.03670  0.33530  0.75310  Biso   1.000  H
  C41      1.0000 0.50400  0.37810  0.02130  Biso   1.000  C
  C42      1.0000 0.49600  0.87810  0.47870  Biso   1.000  C
  C43      1.0000 0.49600  0.62190  0.97870  Biso   1.000  C
  C44      1.0000 0.50400  0.12190  0.52130  Biso   1.000  C
  H113     1.0000 0.70430  0.38010  0.03250  Biso   1.000  H
  H114     1.0000 0.29570  0.88010  0.46750  Biso   1.000  H
  H115     1.0000 0.29570  0.61990  0.96750  Biso   1.000  H
  H116     1.0000 0.70430  0.11990  0.53250  Biso   1.000  H
  H117     1.0000 0.41920  0.40640  0.04540  Biso   1.000  H
  H118     1.0000 0.58080  0.90640  0.45460  Biso   1.000  H
  H119     1.0000 0.58080  0.59360  0.95460  Biso   1.000  H
  H120     1.0000 0.41920  0.09360  0.54540  Biso   1.000  H
  C45      1.0000 0.45700  0.37730  0.92220  Biso   1.000  C
  C46      1.0000 0.54300  0.87730  0.57780  Biso   1.000  C
  C47      1.0000 0.54300  0.62270  0.07780  Biso   1.000  C
  C48      1.0000 0.45700  0.12270  0.42220  Biso   1.000  C
  H121     1.0000 0.25800  0.37910  0.90980  Biso   1.000  H
  H122     1.0000 0.74200  0.87910  0.59020  Biso   1.000  H
  H123     1.0000 0.74200  0.62090  0.09020  Biso   1.000  H
  H124     1.0000 0.25800  0.12090  0.40980  Biso   1.000  H
  H125     1.0000 0.52680  0.34790  0.89780  Biso   1.000  H
  H126     1.0000 0.47320  0.84790  0.60220  Biso   1.000  H
  H127     1.0000 0.47320  0.65210  0.10220  Biso   1.000  H
  H128     1.0000 0.52680  0.15210  0.39780  Biso   1.000  H
  C49      1.0000 0.60400  0.41760  0.87710  Biso   1.000  C
  C50      1.0000 0.39600  0.91760  0.62290  Biso   1.000  C
  C51      1.0000 0.39600  0.58240  0.12290  Biso   1.000  C
  C52      1.0000 0.60400  0.08240  0.37710  Biso   1.000  C
  H129     1.0000 0.57130  0.41640  0.81340  Biso   1.000  H
  H130     1.0000 0.42870  0.91640  0.68660  Biso   1.000  H
  H131     1.0000 0.42870  0.58360  0.18660  Biso   1.000  H
  H132     1.0000 0.57130  0.08360  0.31340  Biso   1.000  H
  H133     1.0000 0.80230  0.41560  0.88860  Biso   1.000  H
  H134     1.0000 0.19770  0.91560  0.61140  Biso   1.000  H
  H135     1.0000 0.19770  0.58440  0.11140  Biso   1.000  H
  H136     1.0000 0.80230  0.08440  0.38860  Biso   1.000  H
  H137     1.0000 0.53380  0.44680  0.90060  Biso   1.000  H
  H138     1.0000 0.46620  0.94680  0.59940  Biso   1.000  H
  H139     1.0000 0.46620  0.55320  0.09940  Biso   1.000  H
  H140     1.0000 0.53380  0.05320  0.40060  Biso   1.000  H
  Cl1      1.0000 0.96320  0.25080  0.45650  Biso   1.000  Cl
  Cl2      1.0000 0.03680  0.75080  0.04350  Biso   1.000  Cl
  Cl3      1.0000 0.03680  0.74920  0.54350  Biso   1.000  Cl
  Cl4      1.0000 0.96320  0.24920  0.95650  Biso   1.000  Cl
  O9       1.0000 0.25680  0.25150  0.45680  Biso   1.000  O
  O10      1.0000 0.74320  0.75150  0.04320  Biso   1.000  O
  O11      1.0000 0.74320  0.74850  0.54320  Biso   1.000  O
  O12      1.0000 0.25680  0.24850  0.95680  Biso   1.000  O
  O13      1.0000 0.85200  0.23880  0.37310  Biso   1.000  O
  O14      1.0000 0.14800  0.73880  0.12690  Biso   1.000  O
  O15      1.0000 0.14800  0.76120  0.62690  Biso   1.000  O
  O16      1.0000 0.85200  0.26120  0.87310  Biso   1.000  O
  O17      1.0000 0.87600  0.29740  0.47770  Biso   1.000  O
  O18      1.0000 0.12400  0.79740  0.02230  Biso   1.000  O
  O19      1.0000 0.12400  0.70260  0.52230  Biso   1.000  O
  O20      1.0000 0.87600  0.20260  0.97770  Biso   1.000  O
  O21      1.0000 0.86800  0.22000  0.52260  Biso   1.000  O
  O22      1.0000 0.13200  0.72000  0.97740  Biso   1.000  O
  O23      1.0000 0.13200  0.78000  0.47740  Biso   1.000  O
  O24      1.0000 0.86800  0.28000  0.02260  Biso   1.000  O
  O25      1.0000 0.88300  0.20280  0.44750  Biso   1.000  O
  O26      1.0000 0.11700  0.70280  0.05250  Biso   1.000  O
  O27      1.0000 0.11700  0.79720  0.55250  Biso   1.000  O
  O28      1.0000 0.88300  0.29720  0.94750  Biso   1.000  O
  O29      1.0000 0.86200  0.27620  0.38350  Biso   1.000  O
  O30      1.0000 0.13800  0.77620  0.11650  Biso   1.000  O
  O31      1.0000 0.13800  0.72380  0.61650  Biso   1.000  O
  O32      1.0000 0.86200  0.22380  0.88350  Biso   1.000  O
  O33      1.0000 0.85000  0.26760  0.53660  Biso   1.000  O
  O34      1.0000 0.15000  0.76760  0.96340  Biso   1.000  O
  O35      1.0000 0.15000  0.73240  0.46340  Biso   1.000  O
  O36      1.0000 0.85000  0.23240  0.03660  Biso   1.000  O
