data_image0
_cell_length_a       12.331
_cell_length_b       7.804
_cell_length_c       18.64
_cell_angle_alpha    90
_cell_angle_beta     103.405
_cell_angle_gamma    90

_symmetry_space_group_name_H-M    "P 1"
_symmetry_int_tables_number       1

loop_
  _symmetry_equiv_pos_as_xyz
  'x, y, z'

loop_
  _atom_site_label
  _atom_site_occupancy
  _atom_site_fract_x
  _atom_site_fract_y
  _atom_site_fract_z
  _atom_site_thermal_displace_type
  _atom_site_B_iso_or_equiv
  _atom_site_type_symbol
  Cu1      1.0000 0.34299  0.52539  0.15183  Biso   1.000  Cu
  Cu2      1.0000 0.65701  0.02539  0.34817  Biso   1.000  Cu
  Cu3      1.0000 0.65701  0.47461  0.84817  Biso   1.000  Cu
  Cu4      1.0000 0.34299  0.97461  0.65183  Biso   1.000  Cu
  Cl1      1.0000 0.17713  0.22562  0.91220  Biso   1.000  Cl
  Cl2      1.0000 0.82287  0.72562  0.58780  Biso   1.000  Cl
  Cl3      1.0000 0.82287  0.77438  0.08780  Biso   1.000  Cl
  Cl4      1.0000 0.17713  0.27438  0.41220  Biso   1.000  Cl
  O1       1.0000 0.13730  0.34870  0.95620  Biso   1.000  O
  O2       1.0000 0.86270  0.84870  0.54380  Biso   1.000  O
  O3       1.0000 0.86270  0.65130  0.04380  Biso   1.000  O
  O4       1.0000 0.13730  0.15130  0.45620  Biso   1.000  O
  O5       1.0000 0.15360  0.28720  0.83990  Biso   1.000  O
  O6       1.0000 0.84640  0.78720  0.66010  Biso   1.000  O
  O7       1.0000 0.84640  0.71280  0.16010  Biso   1.000  O
  O8       1.0000 0.15360  0.21280  0.33990  Biso   1.000  O
  O9       1.0000 0.12270  0.06930  0.91230  Biso   1.000  O
  O10      1.0000 0.87730  0.56930  0.58770  Biso   1.000  O
  O11      1.0000 0.87730  0.93070  0.08770  Biso   1.000  O
  O12      1.0000 0.12270  0.43070  0.41230  Biso   1.000  O
  O13      1.0000 0.29340  0.20330  0.94020  Biso   1.000  O
  O14      1.0000 0.70660  0.70330  0.55980  Biso   1.000  O
  O15      1.0000 0.70660  0.79670  0.05980  Biso   1.000  O
  O16      1.0000 0.29340  0.29670  0.44020  Biso   1.000  O
  N1       1.0000 0.49390  0.81400  0.20110  Biso   1.000  N
  N2       1.0000 0.50610  0.31400  0.29890  Biso   1.000  N
  N3       1.0000 0.50610  0.18600  0.79890  Biso   1.000  N
  N4       1.0000 0.49390  0.68600  0.70110  Biso   1.000  N
  N5       1.0000 0.41110  0.75440  0.16590  Biso   1.000  N
  N6       1.0000 0.58890  0.25440  0.33410  Biso   1.000  N
  N7       1.0000 0.58890  0.24560  0.83410  Biso   1.000  N
  N8       1.0000 0.41110  0.74560  0.66590  Biso   1.000  N
  N9       1.0000 0.57450  0.88220  0.23140  Biso   1.000  N
  N10      1.0000 0.42550  0.38220  0.26860  Biso   1.000  N
  N11      1.0000 0.42550  0.11780  0.76860  Biso   1.000  N
  N12      1.0000 0.57450  0.61780  0.73140  Biso   1.000  N
  N13      1.0000 0.46240  0.40560  0.11190  Biso   1.000  N
  N14      1.0000 0.53760  0.90560  0.38810  Biso   1.000  N
  N15      1.0000 0.53760  0.59440  0.88810  Biso   1.000  N
  N16      1.0000 0.46240  0.09440  0.61190  Biso   1.000  N
  C1       1.0000 0.44490  0.23550  0.10300  Biso   1.000  C
  C2       1.0000 0.55510  0.73550  0.39700  Biso   1.000  C
  C3       1.0000 0.55510  0.76450  0.89700  Biso   1.000  C
  C4       1.0000 0.44490  0.26450  0.60300  Biso   1.000  C
  C5       1.0000 0.52160  0.13000  0.08060  Biso   1.000  C
  C6       1.0000 0.47840  0.63000  0.41940  Biso   1.000  C
  C7       1.0000 0.47840  0.87000  0.91940  Biso   1.000  C
  C8       1.0000 0.52160  0.37000  0.58060  Biso   1.000  C
  H1       1.0000 0.50920  0.01260  0.07550  Biso   1.000  H
  H2       1.0000 0.49080  0.51260  0.42450  Biso   1.000  H
  H3       1.0000 0.49080  0.98740  0.92450  Biso   1.000  H
  H4       1.0000 0.50920  0.48740  0.57550  Biso   1.000  H
  C9       1.0000 0.61590  0.20160  0.06610  Biso   1.000  C
  C10      1.0000 0.38410  0.70160  0.43390  Biso   1.000  C
  C11      1.0000 0.38410  0.79840  0.93390  Biso   1.000  C
  C12      1.0000 0.61590  0.29840  0.56610  Biso   1.000  C
  H5       1.0000 0.66820  0.13300  0.05110  Biso   1.000  H
  H6       1.0000 0.33180  0.63300  0.44890  Biso   1.000  H
  H7       1.0000 0.33180  0.86700  0.94890  Biso   1.000  H
  H8       1.0000 0.66820  0.36700  0.55110  Biso   1.000  H
  C13      1.0000 0.63270  0.37640  0.07410  Biso   1.000  C
  C14      1.0000 0.36730  0.87640  0.42590  Biso   1.000  C
  C15      1.0000 0.36730  0.62360  0.92590  Biso   1.000  C
  C16      1.0000 0.63270  0.12360  0.57410  Biso   1.000  C
  H9       1.0000 0.69580  0.42690  0.06400  Biso   1.000  H
  H10      1.0000 0.30420  0.92690  0.43600  Biso   1.000  H
  H11      1.0000 0.30420  0.57310  0.93600  Biso   1.000  H
  H12      1.0000 0.69580  0.07310  0.56400  Biso   1.000  H
  C17      1.0000 0.55470  0.47460  0.09730  Biso   1.000  C
  C18      1.0000 0.44530  0.97460  0.40270  Biso   1.000  C
  C19      1.0000 0.44530  0.52540  0.90270  Biso   1.000  C
  C20      1.0000 0.55470  0.02540  0.59730  Biso   1.000  C
  H13      1.0000 0.56620  0.59210  0.10300  Biso   1.000  H
  H14      1.0000 0.43380  0.09210  0.39700  Biso   1.000  H
  H15      1.0000 0.43380  0.40790  0.89700  Biso   1.000  H
  H16      1.0000 0.56620  0.90790  0.60300  Biso   1.000  H
  C21      1.0000 0.34080  0.16780  0.12170  Biso   1.000  C
  C22      1.0000 0.65920  0.66780  0.37830  Biso   1.000  C
  C23      1.0000 0.65920  0.83220  0.87830  Biso   1.000  C
  C24      1.0000 0.34080  0.33220  0.62170  Biso   1.000  C
  H17      1.0000 0.30920  0.07700  0.08770  Biso   1.000  H
  H18      1.0000 0.69080  0.57700  0.41230  Biso   1.000  H
  H19      1.0000 0.69080  0.92300  0.91230  Biso   1.000  H
  H20      1.0000 0.30920  0.42300  0.58770  Biso   1.000  H
  H21      1.0000 0.35820  0.12110  0.17120  Biso   1.000  H
  H22      1.0000 0.64180  0.62110  0.32880  Biso   1.000  H
  H23      1.0000 0.64180  0.87890  0.82880  Biso   1.000  H
  H24      1.0000 0.35820  0.37890  0.67120  Biso   1.000  H
  N17      1.0000 0.26010  0.30940  0.11640  Biso   1.000  N
  N18      1.0000 0.73990  0.80940  0.38360  Biso   1.000  N
  N19      1.0000 0.73990  0.69060  0.88360  Biso   1.000  N
  N20      1.0000 0.26010  0.19060  0.61640  Biso   1.000  N
  H25      1.0000 0.22550  0.32350  0.06810  Biso   1.000  H
  H26      1.0000 0.77450  0.82350  0.43190  Biso   1.000  H
  H27      1.0000 0.77450  0.67650  0.93190  Biso   1.000  H
  H28      1.0000 0.22550  0.17650  0.56810  Biso   1.000  H
  C25      1.0000 0.17290  0.29060  0.15910  Biso   1.000  C
  C26      1.0000 0.82710  0.79060  0.34090  Biso   1.000  C
  C27      1.0000 0.82710  0.70940  0.84090  Biso   1.000  C
  C28      1.0000 0.17290  0.20940  0.65910  Biso   1.000  C
  H29      1.0000 0.20670  0.26330  0.21020  Biso   1.000  H
  H30      1.0000 0.79330  0.76330  0.28980  Biso   1.000  H
  H31      1.0000 0.79330  0.73670  0.78980  Biso   1.000  H
  H32      1.0000 0.20670  0.23670  0.71020  Biso   1.000  H
  H33      1.0000 0.12160  0.19950  0.13860  Biso   1.000  H
  H34      1.0000 0.87840  0.69950  0.36140  Biso   1.000  H
  H35      1.0000 0.87840  0.80050  0.86140  Biso   1.000  H
  H36      1.0000 0.12160  0.30050  0.63860  Biso   1.000  H
  C29      1.0000 0.11250  0.45990  0.15390  Biso   1.000  C
  C30      1.0000 0.88750  0.95990  0.34610  Biso   1.000  C
  C31      1.0000 0.88750  0.54010  0.84610  Biso   1.000  C
  C32      1.0000 0.11250  0.04010  0.65390  Biso   1.000  C
  H37      1.0000 0.06220  0.45940  0.18690  Biso   1.000  H
  H38      1.0000 0.93780  0.95940  0.31310  Biso   1.000  H
  H39      1.0000 0.93780  0.54060  0.81310  Biso   1.000  H
  H40      1.0000 0.06220  0.04060  0.68690  Biso   1.000  H
  H41      1.0000 0.06850  0.47610  0.10400  Biso   1.000  H
  H42      1.0000 0.93150  0.97610  0.39600  Biso   1.000  H
  H43      1.0000 0.93150  0.52390  0.89600  Biso   1.000  H
  H44      1.0000 0.06850  0.02390  0.60400  Biso   1.000  H
  N21      1.0000 0.19420  0.60570  0.17410  Biso   1.000  N
  N22      1.0000 0.80580  0.10570  0.32590  Biso   1.000  N
  N23      1.0000 0.80580  0.39430  0.82590  Biso   1.000  N
  N24      1.0000 0.19420  0.89430  0.67410  Biso   1.000  N
  C33      1.0000 0.21540  0.64460  0.25520  Biso   1.000  C
  C34      1.0000 0.78460  0.14460  0.24480  Biso   1.000  C
  C35      1.0000 0.78460  0.35540  0.74480  Biso   1.000  C
  C36      1.0000 0.21540  0.85540  0.75520  Biso   1.000  C
  H45      1.0000 0.28030  0.71830  0.26840  Biso   1.000  H
  H46      1.0000 0.71970  0.21830  0.23160  Biso   1.000  H
  H47      1.0000 0.71970  0.28170  0.73160  Biso   1.000  H
  H48      1.0000 0.28030  0.78170  0.76840  Biso   1.000  H
  H49      1.0000 0.23330  0.53820  0.28220  Biso   1.000  H
  H50      1.0000 0.76670  0.03820  0.21780  Biso   1.000  H
  H51      1.0000 0.76670  0.46180  0.71780  Biso   1.000  H
  H52      1.0000 0.23330  0.96180  0.78220  Biso   1.000  H
  C37      1.0000 0.11880  0.73100  0.28050  Biso   1.000  C
  C38      1.0000 0.88120  0.23100  0.21950  Biso   1.000  C
  C39      1.0000 0.88120  0.26900  0.71950  Biso   1.000  C
  C40      1.0000 0.11880  0.76900  0.78050  Biso   1.000  C
  H53      1.0000 0.10600  0.84280  0.25880  Biso   1.000  H
  H54      1.0000 0.89400  0.34280  0.24120  Biso   1.000  H
  H55      1.0000 0.89400  0.15720  0.74120  Biso   1.000  H
  H56      1.0000 0.10600  0.65720  0.75880  Biso   1.000  H
  H57      1.0000 0.13750  0.74120  0.33330  Biso   1.000  H
  H58      1.0000 0.86250  0.24120  0.16670  Biso   1.000  H
  H59      1.0000 0.86250  0.25880  0.66670  Biso   1.000  H
  H60      1.0000 0.13750  0.75880  0.83330  Biso   1.000  H
  H61      1.0000 0.05260  0.66280  0.26540  Biso   1.000  H
  H62      1.0000 0.94740  0.16280  0.23460  Biso   1.000  H
  H63      1.0000 0.94740  0.33720  0.73460  Biso   1.000  H
  H64      1.0000 0.05260  0.83720  0.76540  Biso   1.000  H
  C41      1.0000 0.15320  0.76260  0.13060  Biso   1.000  C
  C42      1.0000 0.84680  0.26260  0.36940  Biso   1.000  C
  C43      1.0000 0.84680  0.23740  0.86940  Biso   1.000  C
  C44      1.0000 0.15320  0.73740  0.63060  Biso   1.000  C
  H65      1.0000 0.19920  0.85910  0.15180  Biso   1.000  H
  H66      1.0000 0.80080  0.35910  0.34820  Biso   1.000  H
  H67      1.0000 0.80080  0.14090  0.84820  Biso   1.000  H
  H68      1.0000 0.19920  0.64090  0.65180  Biso   1.000  H
  H69      1.0000 0.07760  0.78600  0.13460  Biso   1.000  H
  H70      1.0000 0.92240  0.28600  0.36540  Biso   1.000  H
  H71      1.0000 0.92240  0.21400  0.86540  Biso   1.000  H
  H72      1.0000 0.07760  0.71400  0.63460  Biso   1.000  H
  C45      1.0000 0.15440  0.74850  0.04980  Biso   1.000  C
  C46      1.0000 0.84560  0.24850  0.45020  Biso   1.000  C
  C47      1.0000 0.84560  0.25150  0.95020  Biso   1.000  C
  C48      1.0000 0.15440  0.75150  0.54980  Biso   1.000  C
  H73      1.0000 0.22930  0.72840  0.04520  Biso   1.000  H
  H74      1.0000 0.77070  0.22840  0.45480  Biso   1.000  H
  H75      1.0000 0.77070  0.27160  0.95480  Biso   1.000  H
  H76      1.0000 0.22930  0.77160  0.54520  Biso   1.000  H
  H77      1.0000 0.12710  0.85310  0.02500  Biso   1.000  H
  H78      1.0000 0.87290  0.35310  0.47500  Biso   1.000  H
  H79      1.0000 0.87290  0.14690  0.97500  Biso   1.000  H
  H80      1.0000 0.12710  0.64690  0.52500  Biso   1.000  H
  H81      1.0000 0.10770  0.65490  0.02800  Biso   1.000  H
  H82      1.0000 0.89230  0.15490  0.47200  Biso   1.000  H
  H83      1.0000 0.89230  0.34510  0.97200  Biso   1.000  H
  H84      1.0000 0.10770  0.84510  0.52800  Biso   1.000  H
