data_image0
_cell_length_a       6.835
_cell_length_b       13.321
_cell_length_c       6.806
_cell_angle_alpha    90
_cell_angle_beta     90.54
_cell_angle_gamma    90

_symmetry_space_group_name_H-M    "P 1"
_symmetry_int_tables_number       1

loop_
  _symmetry_equiv_pos_as_xyz
  'x, y, z'

loop_
  _atom_site_label
  _atom_site_occupancy
  _atom_site_fract_x
  _atom_site_fract_y
  _atom_site_fract_z
  _atom_site_thermal_displace_type
  _atom_site_B_iso_or_equiv
  _atom_site_type_symbol
  Cu1      1.0000 0.00000  0.29250  0.50000  Biso   1.000  Cu
  Cu2      1.0000 0.50000  0.79250  0.50000  Biso   1.000  Cu
  Cu3      1.0000 0.00000  0.70750  0.50000  Biso   1.000  Cu
  Cu4      1.0000 0.50000  0.20750  0.50000  Biso   1.000  Cu
  Cl1      1.0000 0.13780  0.17810  0.70170  Biso   1.000  Cl
  Cl2      1.0000 0.63780  0.67810  0.70170  Biso   1.000  Cl
  Cl3      1.0000 0.86220  0.17810  0.29830  Biso   1.000  Cl
  Cl4      1.0000 0.36220  0.67810  0.29830  Biso   1.000  Cl
  Cl5      1.0000 0.86220  0.82190  0.29830  Biso   1.000  Cl
  Cl6      1.0000 0.36220  0.32190  0.29830  Biso   1.000  Cl
  Cl7      1.0000 0.13780  0.82190  0.70170  Biso   1.000  Cl
  Cl8      1.0000 0.63780  0.32190  0.70170  Biso   1.000  Cl
  N1       1.0000 0.09770  0.41100  0.66920  Biso   1.000  N
  N2       1.0000 0.59770  0.91100  0.66920  Biso   1.000  N
  N3       1.0000 0.90230  0.41100  0.33080  Biso   1.000  N
  N4       1.0000 0.40230  0.91100  0.33080  Biso   1.000  N
  N5       1.0000 0.90230  0.58900  0.33080  Biso   1.000  N
  N6       1.0000 0.40230  0.08900  0.33080  Biso   1.000  N
  N7       1.0000 0.09770  0.58900  0.66920  Biso   1.000  N
  N8       1.0000 0.59770  0.08900  0.66920  Biso   1.000  N
  C1       1.0000 0.05430  0.50000  0.59390  Biso   1.000  C
  C2       1.0000 0.55430  0.00000  0.59390  Biso   1.000  C
  C3       1.0000 0.94570  0.50000  0.40610  Biso   1.000  C
  C4       1.0000 0.44570  0.00000  0.40610  Biso   1.000  C
  C5       1.0000 0.24870  0.50000  0.93160  Biso   1.000  C
  C6       1.0000 0.74870  0.00000  0.93160  Biso   1.000  C
  C7       1.0000 0.75130  0.50000  0.06840  Biso   1.000  C
  C8       1.0000 0.25130  0.00000  0.06840  Biso   1.000  C
  C9       1.0000 0.19750  0.41080  0.84120  Biso   1.000  C
  C10      1.0000 0.69750  0.91080  0.84120  Biso   1.000  C
  C11      1.0000 0.80250  0.41080  0.15880  Biso   1.000  C
  C12      1.0000 0.30250  0.91080  0.15880  Biso   1.000  C
  C13      1.0000 0.80250  0.58920  0.15880  Biso   1.000  C
  C14      1.0000 0.30250  0.08920  0.15880  Biso   1.000  C
  C15      1.0000 0.19750  0.58920  0.84120  Biso   1.000  C
  C16      1.0000 0.69750  0.08920  0.84120  Biso   1.000  C
  H1       1.0000 0.31480  0.50000  0.04950  Biso   1.000  H
  H2       1.0000 0.81480  0.00000  0.04950  Biso   1.000  H
  H3       1.0000 0.68520  0.50000  0.95050  Biso   1.000  H
  H4       1.0000 0.18520  0.00000  0.95050  Biso   1.000  H
  H5       1.0000 0.22670  0.34700  0.88190  Biso   1.000  H
  H6       1.0000 0.72670  0.84700  0.88190  Biso   1.000  H
  H7       1.0000 0.77330  0.34700  0.11810  Biso   1.000  H
  H8       1.0000 0.27330  0.84700  0.11810  Biso   1.000  H
  H9       1.0000 0.77330  0.65300  0.11810  Biso   1.000  H
  H10      1.0000 0.27330  0.15300  0.11810  Biso   1.000  H
  H11      1.0000 0.22670  0.65300  0.88190  Biso   1.000  H
  H12      1.0000 0.72670  0.15300  0.88190  Biso   1.000  H
