data_image0
_cell_length_a       7.1
_cell_length_b       13.504
_cell_length_c       7.063
_cell_angle_alpha    90
_cell_angle_beta     90.69
_cell_angle_gamma    90

_symmetry_space_group_name_H-M    "P 1"
_symmetry_int_tables_number       1

loop_
  _symmetry_equiv_pos_as_xyz
  'x, y, z'

loop_
  _atom_site_label
  _atom_site_occupancy
  _atom_site_fract_x
  _atom_site_fract_y
  _atom_site_fract_z
  _atom_site_thermal_displace_type
  _atom_site_B_iso_or_equiv
  _atom_site_type_symbol
  Cu1      1.0000 0.00000  0.29470  0.50000  Biso   1.000  Cu
  Cu2      1.0000 0.50000  0.79470  0.50000  Biso   1.000  Cu
  Cu3      1.0000 0.00000  0.70530  0.50000  Biso   1.000  Cu
  Cu4      1.0000 0.50000  0.20530  0.50000  Biso   1.000  Cu
  Br1      1.0000 0.13570  0.17300  0.70690  Biso   1.000  Br
  Br2      1.0000 0.63570  0.67300  0.70690  Biso   1.000  Br
  Br3      1.0000 0.86430  0.17300  0.29310  Biso   1.000  Br
  Br4      1.0000 0.36430  0.67300  0.29310  Biso   1.000  Br
  Br5      1.0000 0.86430  0.82700  0.29310  Biso   1.000  Br
  Br6      1.0000 0.36430  0.32700  0.29310  Biso   1.000  Br
  Br7      1.0000 0.13570  0.82700  0.70690  Biso   1.000  Br
  Br8      1.0000 0.63570  0.32700  0.70690  Biso   1.000  Br
  N1       1.0000 0.09320  0.41180  0.66430  Biso   1.000  N
  N2       1.0000 0.59320  0.91180  0.66430  Biso   1.000  N
  N3       1.0000 0.90680  0.41180  0.33570  Biso   1.000  N
  N4       1.0000 0.40680  0.91180  0.33570  Biso   1.000  N
  N5       1.0000 0.90680  0.58820  0.33570  Biso   1.000  N
  N6       1.0000 0.40680  0.08820  0.33570  Biso   1.000  N
  N7       1.0000 0.09320  0.58820  0.66430  Biso   1.000  N
  N8       1.0000 0.59320  0.08820  0.66430  Biso   1.000  N
  C1       1.0000 0.05270  0.50000  0.59020  Biso   1.000  C
  C2       1.0000 0.55270  0.00000  0.59020  Biso   1.000  C
  C3       1.0000 0.94730  0.50000  0.40980  Biso   1.000  C
  C4       1.0000 0.44730  0.00000  0.40980  Biso   1.000  C
  C5       1.0000 0.23940  0.50000  0.91750  Biso   1.000  C
  C6       1.0000 0.73940  0.00000  0.91750  Biso   1.000  C
  C7       1.0000 0.76060  0.50000  0.08250  Biso   1.000  C
  C8       1.0000 0.26060  0.00000  0.08250  Biso   1.000  C
  C9       1.0000 0.19130  0.41220  0.82990  Biso   1.000  C
  C10      1.0000 0.69130  0.91220  0.82990  Biso   1.000  C
  C11      1.0000 0.80870  0.41220  0.17010  Biso   1.000  C
  C12      1.0000 0.30870  0.91220  0.17010  Biso   1.000  C
  C13      1.0000 0.80870  0.58780  0.17010  Biso   1.000  C
  C14      1.0000 0.30870  0.08780  0.17010  Biso   1.000  C
  C15      1.0000 0.19130  0.58780  0.82990  Biso   1.000  C
  C16      1.0000 0.69130  0.08780  0.82990  Biso   1.000  C
  H1       1.0000 0.32210  0.50000  0.02570  Biso   1.000  H
  H2       1.0000 0.82210  0.00000  0.02570  Biso   1.000  H
  H3       1.0000 0.67790  0.50000  0.97430  Biso   1.000  H
  H4       1.0000 0.17790  0.00000  0.97430  Biso   1.000  H
  H5       1.0000 0.20650  0.34730  0.88270  Biso   1.000  H
  H6       1.0000 0.70650  0.84730  0.88270  Biso   1.000  H
  H7       1.0000 0.79350  0.34730  0.11730  Biso   1.000  H
  H8       1.0000 0.29350  0.84730  0.11730  Biso   1.000  H
  H9       1.0000 0.79350  0.65270  0.11730  Biso   1.000  H
  H10      1.0000 0.29350  0.15270  0.11730  Biso   1.000  H
  H11      1.0000 0.20650  0.65270  0.88270  Biso   1.000  H
  H12      1.0000 0.70650  0.15270  0.88270  Biso   1.000  H
