data_image0
_cell_length_a       8.6901
_cell_length_b       15.562
_cell_length_c       13.569
_cell_angle_alpha    90
_cell_angle_beta     105.63
_cell_angle_gamma    90

_symmetry_space_group_name_H-M    "P 1"
_symmetry_int_tables_number       1

loop_
  _symmetry_equiv_pos_as_xyz
  'x, y, z'

loop_
  _atom_site_label
  _atom_site_occupancy
  _atom_site_fract_x
  _atom_site_fract_y
  _atom_site_fract_z
  _atom_site_thermal_displace_type
  _atom_site_B_iso_or_equiv
  _atom_site_type_symbol
  Cu1      1.0000 0.03536  0.19207  0.14015  Biso   1.000  Cu
  Cu2      1.0000 0.46464  0.69207  0.35985  Biso   1.000  Cu
  Cu3      1.0000 0.96464  0.80793  0.85985  Biso   1.000  Cu
  Cu4      1.0000 0.53536  0.30793  0.64015  Biso   1.000  Cu
  O1       1.0000 0.81676  0.23030  0.14635  Biso   1.000  O
  O2       1.0000 0.68324  0.73030  0.35365  Biso   1.000  O
  O3       1.0000 0.18324  0.76970  0.85365  Biso   1.000  O
  O4       1.0000 0.31676  0.26970  0.64635  Biso   1.000  O
  O5       1.0000 0.79860  0.18248  0.99033  Biso   1.000  O
  O6       1.0000 0.70140  0.68248  0.50967  Biso   1.000  O
  O7       1.0000 0.20140  0.81752  0.00967  Biso   1.000  O
  O8       1.0000 0.29860  0.31752  0.49033  Biso   1.000  O
  O9       1.0000 0.19140  0.14278  0.07698  Biso   1.000  O
  O10      1.0000 0.30860  0.64278  0.42302  Biso   1.000  O
  O11      1.0000 0.80860  0.85722  0.92302  Biso   1.000  O
  O12      1.0000 0.69140  0.35722  0.57698  Biso   1.000  O
  O13      1.0000 0.39600  0.14585  0.21688  Biso   1.000  O
  O14      1.0000 0.10400  0.64585  0.28312  Biso   1.000  O
  O15      1.0000 0.60400  0.85415  0.78312  Biso   1.000  O
  O16      1.0000 0.89600  0.35415  0.71688  Biso   1.000  O
  O17      1.0000 0.83840  0.92952  0.46204  Biso   1.000  O
  O18      1.0000 0.66160  0.42952  0.03796  Biso   1.000  O
  O19      1.0000 0.16160  0.07048  0.53796  Biso   1.000  O
  O20      1.0000 0.33840  0.57048  0.96204  Biso   1.000  O
  O21      1.0000 0.18960  0.21543  0.31554  Biso   1.000  O
  O22      1.0000 0.31040  0.71543  0.18446  Biso   1.000  O
  O23      1.0000 0.81040  0.78457  0.68446  Biso   1.000  O
  O24      1.0000 0.68960  0.28457  0.81554  Biso   1.000  O
  H1       1.0000 0.26600  0.19830  0.29300  Biso   1.000  H
  H2       1.0000 0.23400  0.69830  0.20700  Biso   1.000  H
  H3       1.0000 0.73400  0.80170  0.70700  Biso   1.000  H
  H4       1.0000 0.76600  0.30170  0.79300  Biso   1.000  H
  H5       1.0000 0.22900  0.25030  0.36570  Biso   1.000  H
  H6       1.0000 0.27100  0.75030  0.13430  Biso   1.000  H
  H7       1.0000 0.77100  0.74970  0.63430  Biso   1.000  H
  H8       1.0000 0.72900  0.24970  0.86570  Biso   1.000  H
  N1       1.0000 0.99170  0.07641  0.19572  Biso   1.000  N
  N2       1.0000 0.50830  0.57641  0.30428  Biso   1.000  N
  N3       1.0000 0.00830  0.92359  0.80428  Biso   1.000  N
  N4       1.0000 0.49170  0.42359  0.69572  Biso   1.000  N
  N5       1.0000 0.76540  0.06947  0.43470  Biso   1.000  N
  N6       1.0000 0.73460  0.56947  0.06530  Biso   1.000  N
  N7       1.0000 0.23460  0.93053  0.56530  Biso   1.000  N
  N8       1.0000 0.26540  0.43053  0.93470  Biso   1.000  N
  H9       1.0000 0.75600  0.11370  0.38970  Biso   1.000  H
  H10      1.0000 0.74400  0.61370  0.11030  Biso   1.000  H
  H11      1.0000 0.24400  0.88630  0.61030  Biso   1.000  H
  H12      1.0000 0.25600  0.38630  0.88970  Biso   1.000  H
  N9       1.0000 0.58950  0.18647  0.61148  Biso   1.000  N
  N10      1.0000 0.91050  0.68647  0.88852  Biso   1.000  N
  N11      1.0000 0.41050  0.81353  0.38852  Biso   1.000  N
  N12      1.0000 0.08950  0.31353  0.11148  Biso   1.000  N
  C1       1.0000 0.94770  0.92520  0.18010  Biso   1.000  C
  C2       1.0000 0.55230  0.42520  0.31990  Biso   1.000  C
  C3       1.0000 0.05230  0.07480  0.81990  Biso   1.000  C
  C4       1.0000 0.44770  0.57480  0.68010  Biso   1.000  C
  H13      1.0000 0.95350  0.87340  0.14420  Biso   1.000  H
  H14      1.0000 0.54650  0.37340  0.35580  Biso   1.000  H
  H15      1.0000 0.04650  0.12660  0.85580  Biso   1.000  H
  H16      1.0000 0.45350  0.62660  0.64420  Biso   1.000  H
  C5       1.0000 0.89120  0.92470  0.26410  Biso   1.000  C
  C6       1.0000 0.60880  0.42470  0.23590  Biso   1.000  C
  C7       1.0000 0.10880  0.07530  0.73590  Biso   1.000  C
  C8       1.0000 0.39120  0.57530  0.76410  Biso   1.000  C
  H17      1.0000 0.85620  0.87250  0.28720  Biso   1.000  H
  H18      1.0000 0.64380  0.37250  0.21280  Biso   1.000  H
  H19      1.0000 0.14380  0.12750  0.71280  Biso   1.000  H
  H20      1.0000 0.35620  0.62750  0.78720  Biso   1.000  H
  C9       1.0000 0.56380  0.12400  0.67370  Biso   1.000  C
  C10      1.0000 0.93620  0.62400  0.82630  Biso   1.000  C
  C11      1.0000 0.43620  0.87600  0.32630  Biso   1.000  C
  C12      1.0000 0.06380  0.37600  0.17370  Biso   1.000  C
  H21      1.0000 0.51360  0.13800  0.72570  Biso   1.000  H
  H22      1.0000 0.98640  0.63800  0.77430  Biso   1.000  H
  H23      1.0000 0.48640  0.86200  0.27430  Biso   1.000  H
  H24      1.0000 0.01360  0.36200  0.22570  Biso   1.000  H
  C13      1.0000 0.99660  0.00170  0.14770  Biso   1.000  C
  C14      1.0000 0.50340  0.50170  0.35230  Biso   1.000  C
  C15      1.0000 0.00340  0.99830  0.85230  Biso   1.000  C
  C16      1.0000 0.49660  0.49830  0.64770  Biso   1.000  C
  H25      1.0000 0.03540  0.00160  0.08860  Biso   1.000  H
  H26      1.0000 0.46460  0.50160  0.41140  Biso   1.000  H
  H27      1.0000 0.96460  0.99840  0.91140  Biso   1.000  H
  H28      1.0000 0.53540  0.49840  0.58860  Biso   1.000  H
  C17      1.0000 0.60830  0.04060  0.66370  Biso   1.000  C
  C18      1.0000 0.89170  0.54060  0.83630  Biso   1.000  C
  C19      1.0000 0.39170  0.95940  0.33630  Biso   1.000  C
  C20      1.0000 0.10830  0.45940  0.16370  Biso   1.000  C
  H29      1.0000 0.59150  0.99790  0.70970  Biso   1.000  H
  H30      1.0000 0.90850  0.49790  0.79030  Biso   1.000  H
  H31      1.0000 0.40850  0.00210  0.29030  Biso   1.000  H
  H32      1.0000 0.09150  0.50210  0.20970  Biso   1.000  H
  C21      1.0000 0.45780  0.15418  0.97860  Biso   1.000  C
  C22      1.0000 0.04220  0.65418  0.52140  Biso   1.000  C
  C23      1.0000 0.54220  0.84582  0.02140  Biso   1.000  C
  C24      1.0000 0.95780  0.34582  0.47860  Biso   1.000  C
  H33      1.0000 0.50930  0.12420  0.93150  Biso   1.000  H
  H34      1.0000 0.99070  0.62420  0.56850  Biso   1.000  H
  H35      1.0000 0.49070  0.87580  0.06850  Biso   1.000  H
  H36      1.0000 0.00930  0.37580  0.43150  Biso   1.000  H
  H37      1.0000 0.35080  0.17330  0.93810  Biso   1.000  H
  H38      1.0000 0.14920  0.67330  0.56190  Biso   1.000  H
  H39      1.0000 0.64920  0.82670  0.06190  Biso   1.000  H
  H40      1.0000 0.85080  0.32670  0.43810  Biso   1.000  H
  C25      1.0000 0.65550  0.16514  0.53650  Biso   1.000  C
  C26      1.0000 0.84450  0.66514  0.96350  Biso   1.000  C
  C27      1.0000 0.34450  0.83486  0.46350  Biso   1.000  C
  C28      1.0000 0.15550  0.33486  0.03650  Biso   1.000  C
  H41      1.0000 0.67230  0.20910  0.49200  Biso   1.000  H
  H42      1.0000 0.82770  0.70910  0.00800  Biso   1.000  H
  H43      1.0000 0.32770  0.79090  0.50800  Biso   1.000  H
  H44      1.0000 0.17230  0.29090  0.99200  Biso   1.000  H
  C29      1.0000 0.73490  0.21344  0.05380  Biso   1.000  C
  C30      1.0000 0.76510  0.71344  0.44620  Biso   1.000  C
  C31      1.0000 0.26510  0.78656  0.94620  Biso   1.000  C
  C32      1.0000 0.23490  0.28656  0.55380  Biso   1.000  C
  C33      1.0000 0.70060  0.08230  0.52080  Biso   1.000  C
  C34      1.0000 0.79940  0.58230  0.97920  Biso   1.000  C
  C35      1.0000 0.29940  0.91770  0.47920  Biso   1.000  C
  C36      1.0000 0.20060  0.41770  0.02080  Biso   1.000  C
  C37      1.0000 0.82840  0.99610  0.41110  Biso   1.000  C
  C38      1.0000 0.67160  0.49610  0.08890  Biso   1.000  C
  C39      1.0000 0.17160  0.00390  0.58890  Biso   1.000  C
  C40      1.0000 0.32840  0.50390  0.91110  Biso   1.000  C
  C41      1.0000 0.55740  0.23307  0.02250  Biso   1.000  C
  C42      1.0000 0.94260  0.73307  0.47750  Biso   1.000  C
  C43      1.0000 0.44260  0.76693  0.97750  Biso   1.000  C
  C44      1.0000 0.05740  0.26693  0.52250  Biso   1.000  C
  H45      1.0000 0.53590  0.27940  0.97060  Biso   1.000  H
  H46      1.0000 0.96410  0.77940  0.52940  Biso   1.000  H
  H47      1.0000 0.46410  0.72060  0.02940  Biso   1.000  H
  H48      1.0000 0.03590  0.22060  0.47060  Biso   1.000  H
  H49      1.0000 0.52500  0.25400  0.08280  Biso   1.000  H
  H50      1.0000 0.97500  0.75400  0.41720  Biso   1.000  H
  H51      1.0000 0.47500  0.74600  0.91720  Biso   1.000  H
  H52      1.0000 0.02500  0.24600  0.58280  Biso   1.000  H
  C45      1.0000 0.43800  0.09079  0.06060  Biso   1.000  C
  C46      1.0000 0.06200  0.59079  0.43940  Biso   1.000  C
  C47      1.0000 0.56200  0.90921  0.93940  Biso   1.000  C
  C48      1.0000 0.93800  0.40921  0.56060  Biso   1.000  C
  H53      1.0000 0.38660  0.03760  0.02740  Biso   1.000  H
  H54      1.0000 0.11340  0.53760  0.47260  Biso   1.000  H
  H55      1.0000 0.61340  0.96240  0.97260  Biso   1.000  H
  H56      1.0000 0.88660  0.46240  0.52740  Biso   1.000  H
  H57      1.0000 0.54450  0.07540  0.10550  Biso   1.000  H
  H58      1.0000 0.95550  0.57540  0.39450  Biso   1.000  H
  H59      1.0000 0.45550  0.92460  0.89450  Biso   1.000  H
  H60      1.0000 0.04450  0.42460  0.60550  Biso   1.000  H
  C49      1.0000 0.88480  0.00050  0.31620  Biso   1.000  C
  C50      1.0000 0.61520  0.50050  0.18380  Biso   1.000  C
  C51      1.0000 0.11520  0.99950  0.68380  Biso   1.000  C
  C52      1.0000 0.38480  0.49950  0.81620  Biso   1.000  C
  C53      1.0000 0.33690  0.12951  0.12480  Biso   1.000  C
  C54      1.0000 0.16310  0.62951  0.37520  Biso   1.000  C
  C55      1.0000 0.66310  0.87049  0.87520  Biso   1.000  C
  C56      1.0000 0.83690  0.37049  0.62480  Biso   1.000  C
  C57      1.0000 0.93860  0.07471  0.27980  Biso   1.000  C
  C58      1.0000 0.56140  0.57471  0.22020  Biso   1.000  C
  C59      1.0000 0.06140  0.92529  0.72020  Biso   1.000  C
  C60      1.0000 0.43860  0.42529  0.77980  Biso   1.000  C
  H61      1.0000 0.93780  0.12680  0.31610  Biso   1.000  H
  H62      1.0000 0.56220  0.62680  0.18390  Biso   1.000  H
  H63      1.0000 0.06220  0.87320  0.68390  Biso   1.000  H
  H64      1.0000 0.43780  0.37320  0.81610  Biso   1.000  H
  C61      1.0000 0.67810  0.01880  0.58610  Biso   1.000  C
  C62      1.0000 0.82190  0.51880  0.91390  Biso   1.000  C
  C63      1.0000 0.32190  0.98120  0.41390  Biso   1.000  C
  C64      1.0000 0.17810  0.48120  0.08610  Biso   1.000  C
  H65      1.0000 0.70950  0.96120  0.57840  Biso   1.000  H
  H66      1.0000 0.79050  0.46120  0.92160  Biso   1.000  H
  H67      1.0000 0.29050  0.03880  0.42160  Biso   1.000  H
  H68      1.0000 0.20950  0.53880  0.07840  Biso   1.000  H
  O25      1.0000 0.68210  0.21660  0.30839  Biso   1.000  O
  O26      1.0000 0.81790  0.71660  0.19161  Biso   1.000  O
  O27      1.0000 0.31790  0.78340  0.69161  Biso   1.000  O
  O28      1.0000 0.18210  0.28340  0.80839  Biso   1.000  O
  H69      1.0000 0.72800  0.22600  0.26310  Biso   1.000  H
  H70      1.0000 0.77200  0.72600  0.23690  Biso   1.000  H
  H71      1.0000 0.27200  0.77400  0.73690  Biso   1.000  H
  H72      1.0000 0.22800  0.27400  0.76310  Biso   1.000  H
  H73      1.0000 0.58800  0.19550  0.28200  Biso   1.000  H
  H74      1.0000 0.91200  0.69550  0.21800  Biso   1.000  H
  H75      1.0000 0.41200  0.80450  0.71800  Biso   1.000  H
  H76      1.0000 0.08800  0.30450  0.78200  Biso   1.000  H
