data_image0
_cell_length_a       23.476
_cell_length_b       8.8641
_cell_length_c       17.5434
_cell_angle_alpha    90
_cell_angle_beta     110.884
_cell_angle_gamma    90

_symmetry_space_group_name_H-M    "P 1"
_symmetry_int_tables_number       1

loop_
  _symmetry_equiv_pos_as_xyz
  'x, y, z'

loop_
  _atom_site_label
  _atom_site_occupancy
  _atom_site_fract_x
  _atom_site_fract_y
  _atom_site_fract_z
  _atom_site_thermal_displace_type
  _atom_site_B_iso_or_equiv
  _atom_site_type_symbol
  Cu1      1.0000 0.34376  0.87736  0.07139  Biso   1.000  Cu
  Cu2      1.0000 0.65624  0.87736  0.42861  Biso   1.000  Cu
  Cu3      1.0000 0.84376  0.37736  0.07139  Biso   1.000  Cu
  Cu4      1.0000 0.15624  0.37736  0.42861  Biso   1.000  Cu
  Cu5      1.0000 0.65624  0.12264  0.92861  Biso   1.000  Cu
  Cu6      1.0000 0.34376  0.12264  0.57139  Biso   1.000  Cu
  Cu7      1.0000 0.15624  0.62264  0.92861  Biso   1.000  Cu
  Cu8      1.0000 0.84376  0.62264  0.57139  Biso   1.000  Cu
  O1       1.0000 0.51062  0.36900  0.36223  Biso   1.000  O
  O2       1.0000 0.48938  0.36900  0.13777  Biso   1.000  O
  O3       1.0000 0.01062  0.86900  0.36223  Biso   1.000  O
  O4       1.0000 0.98938  0.86900  0.13777  Biso   1.000  O
  O5       1.0000 0.48938  0.63100  0.63777  Biso   1.000  O
  O6       1.0000 0.51062  0.63100  0.86223  Biso   1.000  O
  O7       1.0000 0.98938  0.13100  0.63777  Biso   1.000  O
  O8       1.0000 0.01062  0.13100  0.86223  Biso   1.000  O
  O9       1.0000 0.31818  0.06950  0.01595  Biso   1.000  O
  O10      1.0000 0.68182  0.06950  0.48405  Biso   1.000  O
  O11      1.0000 0.81818  0.56950  0.01595  Biso   1.000  O
  O12      1.0000 0.18182  0.56950  0.48405  Biso   1.000  O
  O13      1.0000 0.68182  0.93050  0.98405  Biso   1.000  O
  O14      1.0000 0.31818  0.93050  0.51595  Biso   1.000  O
  O15      1.0000 0.18182  0.43050  0.98405  Biso   1.000  O
  O16      1.0000 0.81818  0.43050  0.51595  Biso   1.000  O
  O17      1.0000 0.32049  0.01090  0.89335  Biso   1.000  O
  O18      1.0000 0.67951  0.01090  0.60665  Biso   1.000  O
  O19      1.0000 0.82049  0.51090  0.89335  Biso   1.000  O
  O20      1.0000 0.17951  0.51090  0.60665  Biso   1.000  O
  O21      1.0000 0.67951  0.98910  0.10665  Biso   1.000  O
  O22      1.0000 0.32049  0.98910  0.39335  Biso   1.000  O
  O23      1.0000 0.17951  0.48910  0.10665  Biso   1.000  O
  O24      1.0000 0.82049  0.48910  0.39335  Biso   1.000  O
  O25      1.0000 0.22689  0.60139  0.89226  Biso   1.000  O
  O26      1.0000 0.77311  0.60139  0.60774  Biso   1.000  O
  O27      1.0000 0.72689  0.10139  0.89226  Biso   1.000  O
  O28      1.0000 0.27311  0.10139  0.60774  Biso   1.000  O
  O29      1.0000 0.77311  0.39861  0.10774  Biso   1.000  O
  O30      1.0000 0.22689  0.39861  0.39226  Biso   1.000  O
  O31      1.0000 0.27311  0.89861  0.10774  Biso   1.000  O
  O32      1.0000 0.72689  0.89861  0.39226  Biso   1.000  O
  O33      1.0000 0.15860  0.45610  0.80366  Biso   1.000  O
  O34      1.0000 0.84140  0.45610  0.69634  Biso   1.000  O
  O35      1.0000 0.65860  0.95610  0.80366  Biso   1.000  O
  O36      1.0000 0.34140  0.95610  0.69634  Biso   1.000  O
  O37      1.0000 0.84140  0.54390  0.19634  Biso   1.000  O
  O38      1.0000 0.15860  0.54390  0.30366  Biso   1.000  O
  O39      1.0000 0.34140  0.04390  0.19634  Biso   1.000  O
  O40      1.0000 0.65860  0.04390  0.30366  Biso   1.000  O
  O41      1.0000 0.33462  0.74160  0.95881  Biso   1.000  O
  O42      1.0000 0.66538  0.74160  0.54119  Biso   1.000  O
  O43      1.0000 0.83462  0.24160  0.95881  Biso   1.000  O
  O44      1.0000 0.16538  0.24160  0.54119  Biso   1.000  O
  O45      1.0000 0.66538  0.25840  0.04119  Biso   1.000  O
  O46      1.0000 0.33462  0.25840  0.45881  Biso   1.000  O
  O47      1.0000 0.16538  0.75840  0.04119  Biso   1.000  O
  O48      1.0000 0.83462  0.75840  0.45881  Biso   1.000  O
  H1       1.0000 0.33000  0.82000  0.93110  Biso   1.000  H
  H2       1.0000 0.67000  0.82000  0.56890  Biso   1.000  H
  H3       1.0000 0.83000  0.32000  0.93110  Biso   1.000  H
  H4       1.0000 0.17000  0.32000  0.56890  Biso   1.000  H
  H5       1.0000 0.67000  0.18000  0.06890  Biso   1.000  H
  H6       1.0000 0.33000  0.18000  0.43110  Biso   1.000  H
  H7       1.0000 0.17000  0.68000  0.06890  Biso   1.000  H
  H8       1.0000 0.83000  0.68000  0.43110  Biso   1.000  H
  H9       1.0000 0.30120  0.69600  0.93930  Biso   1.000  H
  H10      1.0000 0.69880  0.69600  0.56070  Biso   1.000  H
  H11      1.0000 0.80120  0.19600  0.93930  Biso   1.000  H
  H12      1.0000 0.19880  0.19600  0.56070  Biso   1.000  H
  H13      1.0000 0.69880  0.30400  0.06070  Biso   1.000  H
  H14      1.0000 0.30120  0.30400  0.43930  Biso   1.000  H
  H15      1.0000 0.19880  0.80400  0.06070  Biso   1.000  H
  H16      1.0000 0.80120  0.80400  0.43930  Biso   1.000  H
  N1       1.0000 0.36570  0.68660  0.13644  Biso   1.000  N
  N2       1.0000 0.63430  0.68660  0.36356  Biso   1.000  N
  N3       1.0000 0.86570  0.18660  0.13644  Biso   1.000  N
  N4       1.0000 0.13430  0.18660  0.36356  Biso   1.000  N
  N5       1.0000 0.63430  0.31340  0.86356  Biso   1.000  N
  N6       1.0000 0.36570  0.31340  0.63644  Biso   1.000  N
  N7       1.0000 0.13430  0.81340  0.86356  Biso   1.000  N
  N8       1.0000 0.86570  0.81340  0.63644  Biso   1.000  N
  N9       1.0000 0.56634  0.92810  0.41220  Biso   1.000  N
  N10      1.0000 0.43366  0.92810  0.08780  Biso   1.000  N
  N11      1.0000 0.06634  0.42810  0.41220  Biso   1.000  N
  N12      1.0000 0.93366  0.42810  0.08780  Biso   1.000  N
  N13      1.0000 0.43366  0.07190  0.58780  Biso   1.000  N
  N14      1.0000 0.56634  0.07190  0.91220  Biso   1.000  N
  N15      1.0000 0.93366  0.57190  0.58780  Biso   1.000  N
  N16      1.0000 0.06634  0.57190  0.91220  Biso   1.000  N
  N17      1.0000 0.41698  0.29300  0.27541  Biso   1.000  N
  N18      1.0000 0.58302  0.29300  0.22459  Biso   1.000  N
  N19      1.0000 0.91698  0.79300  0.27541  Biso   1.000  N
  N20      1.0000 0.08302  0.79300  0.22459  Biso   1.000  N
  N21      1.0000 0.58302  0.70700  0.72459  Biso   1.000  N
  N22      1.0000 0.41698  0.70700  0.77541  Biso   1.000  N
  N23      1.0000 0.08302  0.20700  0.72459  Biso   1.000  N
  N24      1.0000 0.91698  0.20700  0.77541  Biso   1.000  N
  H17      1.0000 0.39420  0.21500  0.25450  Biso   1.000  H
  H18      1.0000 0.60580  0.21500  0.24550  Biso   1.000  H
  H19      1.0000 0.89420  0.71500  0.25450  Biso   1.000  H
  H20      1.0000 0.10580  0.71500  0.24550  Biso   1.000  H
  H21      1.0000 0.60580  0.78500  0.74550  Biso   1.000  H
  H22      1.0000 0.39420  0.78500  0.75450  Biso   1.000  H
  H23      1.0000 0.10580  0.28500  0.74550  Biso   1.000  H
  H24      1.0000 0.89420  0.28500  0.75450  Biso   1.000  H
  C1       1.0000 0.40519  0.69140  0.21330  Biso   1.000  C
  C2       1.0000 0.59481  0.69140  0.28670  Biso   1.000  C
  C3       1.0000 0.90519  0.19140  0.21330  Biso   1.000  C
  C4       1.0000 0.09481  0.19140  0.28670  Biso   1.000  C
  C5       1.0000 0.59481  0.30860  0.78670  Biso   1.000  C
  C6       1.0000 0.40519  0.30860  0.71330  Biso   1.000  C
  C7       1.0000 0.09481  0.80860  0.78670  Biso   1.000  C
  C8       1.0000 0.90519  0.80860  0.71330  Biso   1.000  C
  H25      1.0000 0.42200  0.78650  0.23490  Biso   1.000  H
  H26      1.0000 0.57800  0.78650  0.26510  Biso   1.000  H
  H27      1.0000 0.92200  0.28650  0.23490  Biso   1.000  H
  H28      1.0000 0.07800  0.28650  0.26510  Biso   1.000  H
  H29      1.0000 0.57800  0.21350  0.76510  Biso   1.000  H
  H30      1.0000 0.42200  0.21350  0.73490  Biso   1.000  H
  H31      1.0000 0.07800  0.71350  0.76510  Biso   1.000  H
  H32      1.0000 0.92200  0.71350  0.73490  Biso   1.000  H
  C9       1.0000 0.34048  0.55250  0.10849  Biso   1.000  C
  C10      1.0000 0.65952  0.55250  0.39151  Biso   1.000  C
  C11      1.0000 0.84048  0.05250  0.10849  Biso   1.000  C
  C12      1.0000 0.15952  0.05250  0.39151  Biso   1.000  C
  C13      1.0000 0.65952  0.44750  0.89151  Biso   1.000  C
  C14      1.0000 0.34048  0.44750  0.60849  Biso   1.000  C
  C15      1.0000 0.15952  0.94750  0.89151  Biso   1.000  C
  C16      1.0000 0.84048  0.94750  0.60849  Biso   1.000  C
  H33      1.0000 0.31080  0.54730  0.05500  Biso   1.000  H
  H34      1.0000 0.68920  0.54730  0.44500  Biso   1.000  H
  H35      1.0000 0.81080  0.04730  0.05500  Biso   1.000  H
  H36      1.0000 0.18920  0.04730  0.44500  Biso   1.000  H
  H37      1.0000 0.68920  0.45270  0.94500  Biso   1.000  H
  H38      1.0000 0.31080  0.45270  0.55500  Biso   1.000  H
  H39      1.0000 0.18920  0.95270  0.94500  Biso   1.000  H
  H40      1.0000 0.81080  0.95270  0.55500  Biso   1.000  H
  C17      1.0000 0.35556  0.42220  0.15359  Biso   1.000  C
  C18      1.0000 0.64444  0.42220  0.34641  Biso   1.000  C
  C19      1.0000 0.85556  0.92220  0.15359  Biso   1.000  C
  C20      1.0000 0.14444  0.92220  0.34641  Biso   1.000  C
  C21      1.0000 0.64444  0.57780  0.84641  Biso   1.000  C
  C22      1.0000 0.35556  0.57780  0.65359  Biso   1.000  C
  C23      1.0000 0.14444  0.07780  0.84641  Biso   1.000  C
  C24      1.0000 0.85556  0.07780  0.65359  Biso   1.000  C
  H41      1.0000 0.33660  0.32950  0.13140  Biso   1.000  H
  H42      1.0000 0.66340  0.32950  0.36860  Biso   1.000  H
  H43      1.0000 0.83660  0.82950  0.13140  Biso   1.000  H
  H44      1.0000 0.16340  0.82950  0.36860  Biso   1.000  H
  H45      1.0000 0.66340  0.67050  0.86860  Biso   1.000  H
  H46      1.0000 0.33660  0.67050  0.63140  Biso   1.000  H
  H47      1.0000 0.16340  0.17050  0.86860  Biso   1.000  H
  H48      1.0000 0.83660  0.17050  0.63140  Biso   1.000  H
  C25      1.0000 0.39884  0.42740  0.23206  Biso   1.000  C
  C26      1.0000 0.60116  0.42740  0.26794  Biso   1.000  C
  C27      1.0000 0.89884  0.92740  0.23206  Biso   1.000  C
  C28      1.0000 0.10116  0.92740  0.26794  Biso   1.000  C
  C29      1.0000 0.60116  0.57260  0.76794  Biso   1.000  C
  C30      1.0000 0.39884  0.57260  0.73206  Biso   1.000  C
  C31      1.0000 0.10116  0.07260  0.76794  Biso   1.000  C
  C32      1.0000 0.89884  0.07260  0.73206  Biso   1.000  C
  C33      1.0000 0.42283  0.56690  0.26277  Biso   1.000  C
  C34      1.0000 0.57717  0.56690  0.23723  Biso   1.000  C
  C35      1.0000 0.92283  0.06690  0.26277  Biso   1.000  C
  C36      1.0000 0.07717  0.06690  0.23723  Biso   1.000  C
  C37      1.0000 0.57717  0.43310  0.73723  Biso   1.000  C
  C38      1.0000 0.42283  0.43310  0.76277  Biso   1.000  C
  C39      1.0000 0.07717  0.93310  0.73723  Biso   1.000  C
  C40      1.0000 0.92283  0.93310  0.76277  Biso   1.000  C
  H49      1.0000 0.45100  0.57630  0.31710  Biso   1.000  H
  H50      1.0000 0.54900  0.57630  0.18290  Biso   1.000  H
  H51      1.0000 0.95100  0.07630  0.31710  Biso   1.000  H
  H52      1.0000 0.04900  0.07630  0.18290  Biso   1.000  H
  H53      1.0000 0.54900  0.42370  0.68290  Biso   1.000  H
  H54      1.0000 0.45100  0.42370  0.81710  Biso   1.000  H
  H55      1.0000 0.04900  0.92370  0.68290  Biso   1.000  H
  H56      1.0000 0.95100  0.92370  0.81710  Biso   1.000  H
  C41      1.0000 0.29791  0.26310  0.91828  Biso   1.000  C
  C42      1.0000 0.70209  0.26310  0.58172  Biso   1.000  C
  C43      1.0000 0.79791  0.76310  0.91828  Biso   1.000  C
  C44      1.0000 0.20209  0.76310  0.58172  Biso   1.000  C
  C45      1.0000 0.70209  0.73690  0.08172  Biso   1.000  C
  C46      1.0000 0.29791  0.73690  0.41828  Biso   1.000  C
  C47      1.0000 0.20209  0.23690  0.08172  Biso   1.000  C
  C48      1.0000 0.79791  0.23690  0.41828  Biso   1.000  C
  H57      1.0000 0.33430  0.32630  0.94560  Biso   1.000  H
  H58      1.0000 0.66570  0.32630  0.55440  Biso   1.000  H
  H59      1.0000 0.83430  0.82630  0.94560  Biso   1.000  H
  H60      1.0000 0.16570  0.82630  0.55440  Biso   1.000  H
  H61      1.0000 0.66570  0.67370  0.05440  Biso   1.000  H
  H62      1.0000 0.33430  0.67370  0.44560  Biso   1.000  H
  H63      1.0000 0.16570  0.17370  0.05440  Biso   1.000  H
  H64      1.0000 0.83430  0.17370  0.44560  Biso   1.000  H
  H65      1.0000 0.26520  0.29670  0.93770  Biso   1.000  H
  H66      1.0000 0.73480  0.29670  0.56230  Biso   1.000  H
  H67      1.0000 0.76520  0.79670  0.93770  Biso   1.000  H
  H68      1.0000 0.23480  0.79670  0.56230  Biso   1.000  H
  H69      1.0000 0.73480  0.70330  0.06230  Biso   1.000  H
  H70      1.0000 0.26520  0.70330  0.43770  Biso   1.000  H
  H71      1.0000 0.23480  0.20330  0.06230  Biso   1.000  H
  H72      1.0000 0.76520  0.20330  0.43770  Biso   1.000  H
  C49      1.0000 0.47256  0.27020  0.33522  Biso   1.000  C
  C50      1.0000 0.52744  0.27020  0.16478  Biso   1.000  C
  C51      1.0000 0.97256  0.77020  0.33522  Biso   1.000  C
  C52      1.0000 0.02744  0.77020  0.16478  Biso   1.000  C
  C53      1.0000 0.52744  0.72980  0.66478  Biso   1.000  C
  C54      1.0000 0.47256  0.72980  0.83522  Biso   1.000  C
  C55      1.0000 0.02744  0.22980  0.66478  Biso   1.000  C
  C56      1.0000 0.97256  0.22980  0.83522  Biso   1.000  C
  C57      1.0000 0.48680  0.11120  0.36432  Biso   1.000  C
  C58      1.0000 0.51320  0.11120  0.13568  Biso   1.000  C
  C59      1.0000 0.98680  0.61120  0.36432  Biso   1.000  C
  C60      1.0000 0.01320  0.61120  0.13568  Biso   1.000  C
  C61      1.0000 0.51320  0.88880  0.63568  Biso   1.000  C
  C62      1.0000 0.48680  0.88880  0.86432  Biso   1.000  C
  C63      1.0000 0.01320  0.38880  0.63568  Biso   1.000  C
  C64      1.0000 0.98680  0.38880  0.86432  Biso   1.000  C
  C65      1.0000 0.46582  0.86860  0.40670  Biso   1.000  C
  C66      1.0000 0.53418  0.86860  0.09330  Biso   1.000  C
  C67      1.0000 0.96582  0.36860  0.40670  Biso   1.000  C
  C68      1.0000 0.03418  0.36860  0.09330  Biso   1.000  C
  C69      1.0000 0.53418  0.13140  0.59330  Biso   1.000  C
  C70      1.0000 0.46582  0.13140  0.90670  Biso   1.000  C
  C71      1.0000 0.03418  0.63140  0.59330  Biso   1.000  C
  C72      1.0000 0.96582  0.63140  0.90670  Biso   1.000  C
  H73      1.0000 0.43880  0.79830  0.41680  Biso   1.000  H
  H74      1.0000 0.56120  0.79830  0.08320  Biso   1.000  H
  H75      1.0000 0.93880  0.29830  0.41680  Biso   1.000  H
  H76      1.0000 0.06120  0.29830  0.08320  Biso   1.000  H
  H77      1.0000 0.56120  0.20170  0.58320  Biso   1.000  H
  H78      1.0000 0.43880  0.20170  0.91680  Biso   1.000  H
  H79      1.0000 0.06120  0.70170  0.58320  Biso   1.000  H
  H80      1.0000 0.93880  0.70170  0.91680  Biso   1.000  H
  C73      1.0000 0.54691  0.06580  0.38474  Biso   1.000  C
  C74      1.0000 0.45309  0.06580  0.11526  Biso   1.000  C
  C75      1.0000 0.04691  0.56580  0.38474  Biso   1.000  C
  C76      1.0000 0.95309  0.56580  0.11526  Biso   1.000  C
  C77      1.0000 0.45309  0.93420  0.61526  Biso   1.000  C
  C78      1.0000 0.54691  0.93420  0.88474  Biso   1.000  C
  C79      1.0000 0.95309  0.43420  0.61526  Biso   1.000  C
  C80      1.0000 0.04691  0.43420  0.88474  Biso   1.000  C
  H81      1.0000 0.57560  0.13620  0.37890  Biso   1.000  H
  H82      1.0000 0.42440  0.13620  0.12110  Biso   1.000  H
  H83      1.0000 0.07560  0.63620  0.37890  Biso   1.000  H
  H84      1.0000 0.92440  0.63620  0.12110  Biso   1.000  H
  H85      1.0000 0.42440  0.86380  0.62110  Biso   1.000  H
  H86      1.0000 0.57560  0.86380  0.87890  Biso   1.000  H
  H87      1.0000 0.92440  0.36380  0.62110  Biso   1.000  H
  H88      1.0000 0.07560  0.36380  0.87890  Biso   1.000  H
  C81      1.0000 0.44517  0.01020  0.37456  Biso   1.000  C
  C82      1.0000 0.55483  0.01020  0.12544  Biso   1.000  C
  C83      1.0000 0.94517  0.51020  0.37456  Biso   1.000  C
  C84      1.0000 0.05483  0.51020  0.12544  Biso   1.000  C
  C85      1.0000 0.55483  0.98980  0.62544  Biso   1.000  C
  C86      1.0000 0.44517  0.98980  0.87456  Biso   1.000  C
  C87      1.0000 0.05483  0.48980  0.62544  Biso   1.000  C
  C88      1.0000 0.94517  0.48980  0.87456  Biso   1.000  C
  H89      1.0000 0.40350  0.03700  0.36000  Biso   1.000  H
  H90      1.0000 0.59650  0.03700  0.14000  Biso   1.000  H
  H91      1.0000 0.90350  0.53700  0.36000  Biso   1.000  H
  H92      1.0000 0.09650  0.53700  0.14000  Biso   1.000  H
  H93      1.0000 0.59650  0.96300  0.64000  Biso   1.000  H
  H94      1.0000 0.40350  0.96300  0.86000  Biso   1.000  H
  H95      1.0000 0.09650  0.46300  0.64000  Biso   1.000  H
  H96      1.0000 0.90350  0.46300  0.86000  Biso   1.000  H
  C89      1.0000 0.52609  0.83170  0.42367  Biso   1.000  C
  C90      1.0000 0.47391  0.83170  0.07633  Biso   1.000  C
  C91      1.0000 0.02609  0.33170  0.42367  Biso   1.000  C
  C92      1.0000 0.97391  0.33170  0.07633  Biso   1.000  C
  C93      1.0000 0.47391  0.16830  0.57633  Biso   1.000  C
  C94      1.0000 0.52609  0.16830  0.92367  Biso   1.000  C
  C95      1.0000 0.97391  0.66830  0.57633  Biso   1.000  C
  C96      1.0000 0.02609  0.66830  0.92367  Biso   1.000  C
  H97      1.0000 0.53970  0.73390  0.44440  Biso   1.000  H
  H98      1.0000 0.46030  0.73390  0.05560  Biso   1.000  H
  H99      1.0000 0.03970  0.23390  0.44440  Biso   1.000  H
  H100     1.0000 0.96030  0.23390  0.05560  Biso   1.000  H
  H101     1.0000 0.46030  0.26610  0.55560  Biso   1.000  H
  H102     1.0000 0.53970  0.26610  0.94440  Biso   1.000  H
  H103     1.0000 0.96030  0.76610  0.55560  Biso   1.000  H
  H104     1.0000 0.03970  0.76610  0.94440  Biso   1.000  H
  C97      1.0000 0.31334  0.10140  0.94335  Biso   1.000  C
  C98      1.0000 0.68666  0.10140  0.55665  Biso   1.000  C
  C99      1.0000 0.81334  0.60140  0.94335  Biso   1.000  C
  C100     1.0000 0.18666  0.60140  0.55665  Biso   1.000  C
  C101     1.0000 0.68666  0.89860  0.05665  Biso   1.000  C
  C102     1.0000 0.31334  0.89860  0.44335  Biso   1.000  C
  C103     1.0000 0.18666  0.39860  0.05665  Biso   1.000  C
  C104     1.0000 0.81334  0.39860  0.44335  Biso   1.000  C
  C105     1.0000 0.27710  0.28910  0.82642  Biso   1.000  C
  C106     1.0000 0.72290  0.28910  0.67358  Biso   1.000  C
  C107     1.0000 0.77710  0.78910  0.82642  Biso   1.000  C
  C108     1.0000 0.22290  0.78910  0.67358  Biso   1.000  C
  C109     1.0000 0.72290  0.71090  0.17358  Biso   1.000  C
  C110     1.0000 0.27710  0.71090  0.32642  Biso   1.000  C
  C111     1.0000 0.22290  0.21090  0.17358  Biso   1.000  C
  C112     1.0000 0.77710  0.21090  0.32642  Biso   1.000  C
  H105     1.0000 0.31000  0.25770  0.80690  Biso   1.000  H
  H106     1.0000 0.69000  0.25770  0.69310  Biso   1.000  H
  H107     1.0000 0.81000  0.75770  0.80690  Biso   1.000  H
  H108     1.0000 0.19000  0.75770  0.69310  Biso   1.000  H
  H109     1.0000 0.69000  0.74230  0.19310  Biso   1.000  H
  H110     1.0000 0.31000  0.74230  0.30690  Biso   1.000  H
  H111     1.0000 0.19000  0.24230  0.19310  Biso   1.000  H
  H112     1.0000 0.81000  0.24230  0.30690  Biso   1.000  H
  H113     1.0000 0.24100  0.22550  0.79870  Biso   1.000  H
  H114     1.0000 0.75900  0.22550  0.70130  Biso   1.000  H
  H115     1.0000 0.74100  0.72550  0.79870  Biso   1.000  H
  H116     1.0000 0.25900  0.72550  0.70130  Biso   1.000  H
  H117     1.0000 0.75900  0.77450  0.20130  Biso   1.000  H
  H118     1.0000 0.24100  0.77450  0.29870  Biso   1.000  H
  H119     1.0000 0.25900  0.27450  0.20130  Biso   1.000  H
  H120     1.0000 0.74100  0.27450  0.29870  Biso   1.000  H
  C113     1.0000 0.26106  0.45380  0.80351  Biso   1.000  C
  C114     1.0000 0.73894  0.45380  0.69649  Biso   1.000  C
  C115     1.0000 0.76106  0.95380  0.80351  Biso   1.000  C
  C116     1.0000 0.23894  0.95380  0.69649  Biso   1.000  C
  C117     1.0000 0.73894  0.54620  0.19649  Biso   1.000  C
  C118     1.0000 0.26106  0.54620  0.30351  Biso   1.000  C
  C119     1.0000 0.23894  0.04620  0.19649  Biso   1.000  C
  C120     1.0000 0.76106  0.04620  0.30351  Biso   1.000  C
  H121     1.0000 0.29780  0.51730  0.82800  Biso   1.000  H
  H122     1.0000 0.70220  0.51730  0.67200  Biso   1.000  H
  H123     1.0000 0.79780  0.01730  0.82800  Biso   1.000  H
  H124     1.0000 0.20220  0.01730  0.67200  Biso   1.000  H
  H125     1.0000 0.70220  0.48270  0.17200  Biso   1.000  H
  H126     1.0000 0.29780  0.48270  0.32800  Biso   1.000  H
  H127     1.0000 0.20220  0.98270  0.17200  Biso   1.000  H
  H128     1.0000 0.79780  0.98270  0.32800  Biso   1.000  H
  H129     1.0000 0.24710  0.46510  0.74350  Biso   1.000  H
  H130     1.0000 0.75290  0.46510  0.75650  Biso   1.000  H
  H131     1.0000 0.74710  0.96510  0.74350  Biso   1.000  H
  H132     1.0000 0.25290  0.96510  0.75650  Biso   1.000  H
  H133     1.0000 0.75290  0.53490  0.25650  Biso   1.000  H
  H134     1.0000 0.24710  0.53490  0.24350  Biso   1.000  H
  H135     1.0000 0.25290  0.03490  0.25650  Biso   1.000  H
  H136     1.0000 0.74710  0.03490  0.24350  Biso   1.000  H
  C121     1.0000 0.21151  0.50600  0.83353  Biso   1.000  C
  C122     1.0000 0.78849  0.50600  0.66647  Biso   1.000  C
  C123     1.0000 0.71151  0.00600  0.83353  Biso   1.000  C
  C124     1.0000 0.28849  0.00600  0.66647  Biso   1.000  C
  C125     1.0000 0.78849  0.49400  0.16647  Biso   1.000  C
  C126     1.0000 0.21151  0.49400  0.33353  Biso   1.000  C
  C127     1.0000 0.28849  0.99400  0.16647  Biso   1.000  C
  C128     1.0000 0.71151  0.99400  0.33353  Biso   1.000  C
  O49      1.0000 0.57297  0.48890  0.53270  Biso   1.000  O
  O50      1.0000 0.42703  0.48890  0.96730  Biso   1.000  O
  O51      1.0000 0.07297  0.98890  0.53270  Biso   1.000  O
  O52      1.0000 0.92703  0.98890  0.96730  Biso   1.000  O
  O53      1.0000 0.42703  0.51110  0.46730  Biso   1.000  O
  O54      1.0000 0.57297  0.51110  0.03270  Biso   1.000  O
  O55      1.0000 0.92703  0.01110  0.46730  Biso   1.000  O
  O56      1.0000 0.07297  0.01110  0.03270  Biso   1.000  O
  H137     1.0000 0.55200  0.44500  0.48310  Biso   1.000  H
  H138     1.0000 0.44800  0.44500  0.01690  Biso   1.000  H
  H139     1.0000 0.05200  0.94500  0.48310  Biso   1.000  H
  H140     1.0000 0.94800  0.94500  0.01690  Biso   1.000  H
  H141     1.0000 0.44800  0.55500  0.51690  Biso   1.000  H
  H142     1.0000 0.55200  0.55500  0.98310  Biso   1.000  H
  H143     1.0000 0.94800  0.05500  0.51690  Biso   1.000  H
  H144     1.0000 0.05200  0.05500  0.98310  Biso   1.000  H
  H145     1.0000 0.59000  0.57600  0.52200  Biso   1.000  H
  H146     1.0000 0.41000  0.57600  0.97800  Biso   1.000  H
  H147     1.0000 0.09000  0.07600  0.52200  Biso   1.000  H
  H148     1.0000 0.91000  0.07600  0.97800  Biso   1.000  H
  H149     1.0000 0.41000  0.42400  0.47800  Biso   1.000  H
  H150     1.0000 0.59000  0.42400  0.02200  Biso   1.000  H
  H151     1.0000 0.91000  0.92400  0.47800  Biso   1.000  H
  H152     1.0000 0.09000  0.92400  0.02200  Biso   1.000  H
