data_image0
_cell_length_a       7.1518
_cell_length_b       11.2144
_cell_length_c       15.4635
_cell_angle_alpha    82.695
_cell_angle_beta     77.369
_cell_angle_gamma    84.629

_symmetry_space_group_name_H-M    "P 1"
_symmetry_int_tables_number       1

loop_
  _symmetry_equiv_pos_as_xyz
  'x, y, z'

loop_
  _atom_site_label
  _atom_site_occupancy
  _atom_site_fract_x
  _atom_site_fract_y
  _atom_site_fract_z
  _atom_site_thermal_displace_type
  _atom_site_B_iso_or_equiv
  _atom_site_type_symbol
  Dy1      1.0000 0.51564  0.66214  0.35029  Biso   1.000  Dy
  Dy2      1.0000 0.48436  0.33786  0.64971  Biso   1.000  Dy
  Dy3      1.0000 0.47948  0.77067  0.75626  Biso   1.000  Dy
  Dy4      1.0000 0.52052  0.22933  0.24374  Biso   1.000  Dy
  Cu1      1.0000 0.19373  0.81215  0.04263  Biso   1.000  Cu
  Cu2      1.0000 0.80627  0.18785  0.95737  Biso   1.000  Cu
  C1       1.0000 0.38260  0.48990  0.80470  Biso   1.000  C
  C2       1.0000 0.61740  0.51010  0.19530  Biso   1.000  C
  C3       1.0000 0.31370  0.53310  0.89330  Biso   1.000  C
  C4       1.0000 0.68630  0.46690  0.10670  Biso   1.000  C
  C5       1.0000 0.24590  0.47450  0.97740  Biso   1.000  C
  C6       1.0000 0.75410  0.52550  0.02260  Biso   1.000  C
  H1       1.0000 0.23080  0.39090  0.99420  Biso   1.000  H
  H2       1.0000 0.76920  0.60910  0.00580  Biso   1.000  H
  C7       1.0000 0.20530  0.56840  0.03130  Biso   1.000  C
  C8       1.0000 0.79470  0.43160  0.96870  Biso   1.000  C
  C9       1.0000 0.12570  0.58230  0.12580  Biso   1.000  C
  C10      1.0000 0.87430  0.41770  0.87420  Biso   1.000  C
  C11      1.0000 0.56650  0.05290  0.74090  Biso   1.000  C
  C12      1.0000 0.43350  0.94710  0.25910  Biso   1.000  C
  C13      1.0000 0.45530  0.03600  0.83340  Biso   1.000  C
  C14      1.0000 0.54470  0.96400  0.16660  Biso   1.000  C
  C15      1.0000 0.37260  0.11550  0.89550  Biso   1.000  C
  C16      1.0000 0.62740  0.88450  0.10450  Biso   1.000  C
  H3       1.0000 0.37590  0.20070  0.88970  Biso   1.000  H
  H4       1.0000 0.62410  0.79930  0.11030  Biso   1.000  H
  C17      1.0000 0.28430  0.04010  0.96780  Biso   1.000  C
  C18      1.0000 0.71570  0.95990  0.03220  Biso   1.000  C
  C19      1.0000 0.15840  0.05330  0.05680  Biso   1.000  C
  C20      1.0000 0.84160  0.94670  0.94320  Biso   1.000  C
  C21      1.0000 0.56760  0.76520  0.54120  Biso   1.000  C
  C22      1.0000 0.43240  0.23480  0.45880  Biso   1.000  C
  C23      1.0000 0.75970  0.72070  0.55910  Biso   1.000  C
  C24      1.0000 0.24030  0.27930  0.44090  Biso   1.000  C
  C25      1.0000 0.92820  0.67850  0.50370  Biso   1.000  C
  C26      1.0000 0.07180  0.32150  0.49630  Biso   1.000  C
  H5       1.0000 0.95600  0.68170  0.44050  Biso   1.000  H
  H6       1.0000 0.04400  0.31830  0.55950  Biso   1.000  H
  C27      1.0000 0.04340  0.63180  0.56100  Biso   1.000  C
  C28      1.0000 0.95660  0.36820  0.43900  Biso   1.000  C
  C29      1.0000 0.22740  0.55440  0.54560  Biso   1.000  C
  C30      1.0000 0.77260  0.44560  0.45440  Biso   1.000  C
  N1       1.0000 0.31580  0.65300  0.89586  Biso   1.000  N
  N2       1.0000 0.68420  0.34700  0.10414  Biso   1.000  N
  N3       1.0000 0.25000  0.67310  0.98006  Biso   1.000  N
  N4       1.0000 0.75000  0.32690  0.01994  Biso   1.000  N
  N5       1.0000 0.41810  0.92010  0.86645  Biso   1.000  N
  N6       1.0000 0.58190  0.07990  0.13355  Biso   1.000  N
  N7       1.0000 0.31290  0.92470  0.94860  Biso   1.000  N
  N8       1.0000 0.68710  0.07530  0.05140  Biso   1.000  N
  N9       1.0000 0.77390  0.70520  0.64437  Biso   1.000  N
  N10      1.0000 0.22610  0.29480  0.35563  Biso   1.000  N
  N11      1.0000 0.94740  0.64940  0.64450  Biso   1.000  N
  N12      1.0000 0.05260  0.35060  0.35550  Biso   1.000  N
  H7       1.0000 0.99340  0.62690  0.69280  Biso   1.000  H
  H8       1.0000 0.00660  0.37310  0.30720  Biso   1.000  H
  O1       1.0000 0.45540  0.56510  0.74135  Biso   1.000  O
  O2       1.0000 0.54460  0.43490  0.25865  Biso   1.000  O
  O3       1.0000 0.36750  0.38110  0.79579  Biso   1.000  O
  O4       1.0000 0.63250  0.61890  0.20421  Biso   1.000  O
  O5       1.0000 0.08750  0.49480  0.18311  Biso   1.000  O
  O6       1.0000 0.91250  0.50520  0.81689  Biso   1.000  O
  O7       1.0000 0.10250  0.69280  0.14508  Biso   1.000  O
  O8       1.0000 0.89750  0.30720  0.85492  Biso   1.000  O
  O9       1.0000 0.61080  0.95810  0.70060  Biso   1.000  O
  O10      1.0000 0.38920  0.04190  0.29940  Biso   1.000  O
  O11      1.0000 0.61430  0.15570  0.70526  Biso   1.000  O
  O12      1.0000 0.38570  0.84430  0.29474  Biso   1.000  O
  O13      1.0000 0.10050  0.15530  0.08060  Biso   1.000  O
  O14      1.0000 0.89950  0.84470  0.91940  Biso   1.000  O
  O15      1.0000 0.11000  0.95460  0.10446  Biso   1.000  O
  O16      1.0000 0.89000  0.04540  0.89554  Biso   1.000  O
  O17      1.0000 0.44070  0.79330  0.60672  Biso   1.000  O
  O18      1.0000 0.55930  0.20670  0.39328  Biso   1.000  O
  O19      1.0000 0.54150  0.76940  0.46296  Biso   1.000  O
  O20      1.0000 0.45850  0.23060  0.53704  Biso   1.000  O
  O21      1.0000 0.32700  0.56060  0.46822  Biso   1.000  O
  O22      1.0000 0.67300  0.43940  0.53178  Biso   1.000  O
  O23      1.0000 0.26020  0.48510  0.61190  Biso   1.000  O
  O24      1.0000 0.73980  0.51490  0.38810  Biso   1.000  O
  O25      1.0000 0.15910  0.84120  0.75863  Biso   1.000  O
  O26      1.0000 0.84090  0.15880  0.24137  Biso   1.000  O
  H9       1.0000 0.14690  0.89270  0.71390  Biso   1.000  H
  H10      1.0000 0.85310  0.10730  0.28610  Biso   1.000  H
  H11      1.0000 0.08860  0.83760  0.81180  Biso   1.000  H
  H12      1.0000 0.91140  0.16240  0.18820  Biso   1.000  H
  O27      1.0000 0.72300  0.71640  0.83370  Biso   1.000  O
  O28      1.0000 0.27700  0.28360  0.16630  Biso   1.000  O
  H13      1.0000 0.77730  0.64420  0.83440  Biso   1.000  H
  H14      1.0000 0.22270  0.35580  0.16560  Biso   1.000  H
  H15      1.0000 0.74560  0.77420  0.86110  Biso   1.000  H
  H16      1.0000 0.25440  0.22580  0.13890  Biso   1.000  H
  O29      1.0000 0.22420  0.63230  0.30674  Biso   1.000  O
  O30      1.0000 0.77580  0.36770  0.69326  Biso   1.000  O
  H17      1.0000 0.20860  0.67700  0.25940  Biso   1.000  H
  H18      1.0000 0.79140  0.32300  0.74060  Biso   1.000  H
  H19      1.0000 0.19160  0.55920  0.32360  Biso   1.000  H
  H20      1.0000 0.80840  0.44080  0.67640  Biso   1.000  H
  O31      1.0000 0.79780  0.76730  0.29266  Biso   1.000  O
  O32      1.0000 0.20220  0.23270  0.70734  Biso   1.000  O
  H21      1.0000 0.82400  0.82700  0.31740  Biso   1.000  H
  H22      1.0000 0.17600  0.17300  0.68260  Biso   1.000  H
  H23      1.0000 0.85690  0.74410  0.24200  Biso   1.000  H
  H24      1.0000 0.14310  0.25590  0.75800  Biso   1.000  H
  O33      1.0000 0.24120  0.97780  0.48420  Biso   1.000  O
  O34      1.0000 0.75880  0.02220  0.51580  Biso   1.000  O
  H25      1.0000 0.27800  0.01580  0.43220  Biso   1.000  H
  H26      1.0000 0.72200  0.98420  0.56780  Biso   1.000  H
  H27      1.0000 0.28620  0.90910  0.50530  Biso   1.000  H
  H28      1.0000 0.71380  0.09090  0.49470  Biso   1.000  H
  O35      1.0000 0.93270  0.95490  0.35522  Biso   1.000  O
  O36      1.0000 0.06730  0.04510  0.64478  Biso   1.000  O
  H29      1.0000 0.86840  0.96310  0.40860  Biso   1.000  H
  H30      1.0000 0.13160  0.03690  0.59140  Biso   1.000  H
  H31      1.0000 0.05480  0.94090  0.33820  Biso   1.000  H
  H32      1.0000 0.94520  0.05910  0.66180  Biso   1.000  H
