data_image0
_cell_length_a       17.838
_cell_length_b       7.3023
_cell_length_c       19.619
_cell_angle_alpha    90
_cell_angle_beta     109.186
_cell_angle_gamma    90

_symmetry_space_group_name_H-M    "P 1"
_symmetry_int_tables_number       1

loop_
  _symmetry_equiv_pos_as_xyz
  'x, y, z'

loop_
  _atom_site_label
  _atom_site_occupancy
  _atom_site_fract_x
  _atom_site_fract_y
  _atom_site_fract_z
  _atom_site_thermal_displace_type
  _atom_site_B_iso_or_equiv
  _atom_site_type_symbol
  Er1      1.0000 0.50877  0.84126  0.26047  Biso   1.000  Er
  Er2      1.0000 0.99123  0.34126  0.23953  Biso   1.000  Er
  Er3      1.0000 0.49123  0.15874  0.73953  Biso   1.000  Er
  Er4      1.0000 0.00877  0.65874  0.76047  Biso   1.000  Er
  Er5      1.0000 0.34830  0.96373  0.99769  Biso   1.000  Er
  Er6      1.0000 0.15170  0.46373  0.50231  Biso   1.000  Er
  Er7      1.0000 0.65170  0.03627  0.00231  Biso   1.000  Er
  Er8      1.0000 0.84830  0.53627  0.49769  Biso   1.000  Er
  Cu1      1.0000 0.38707  0.86964  0.42838  Biso   1.000  Cu
  Cu2      1.0000 0.11293  0.36964  0.07162  Biso   1.000  Cu
  Cu3      1.0000 0.61293  0.13036  0.57162  Biso   1.000  Cu
  Cu4      1.0000 0.88707  0.63036  0.92838  Biso   1.000  Cu
  C1       1.0000 0.49226  0.73620  0.55370  Biso   1.000  C
  C2       1.0000 0.00774  0.23620  0.94630  Biso   1.000  C
  C3       1.0000 0.50774  0.26380  0.44630  Biso   1.000  C
  C4       1.0000 0.99226  0.76380  0.05370  Biso   1.000  C
  C5       1.0000 0.53648  0.74400  0.50146  Biso   1.000  C
  C6       1.0000 0.96352  0.24400  0.99854  Biso   1.000  C
  C7       1.0000 0.46352  0.25600  0.49854  Biso   1.000  C
  C8       1.0000 0.03648  0.75600  0.00146  Biso   1.000  C
  C9       1.0000 0.61183  0.69800  0.50094  Biso   1.000  C
  C10      1.0000 0.88817  0.19800  0.99906  Biso   1.000  C
  C11      1.0000 0.38817  0.30200  0.49906  Biso   1.000  C
  C12      1.0000 0.11183  0.80200  0.00094  Biso   1.000  C
  H1       1.0000 0.65440  0.65230  0.53860  Biso   1.000  H
  H2       1.0000 0.84560  0.15230  0.96140  Biso   1.000  H
  H3       1.0000 0.34560  0.34770  0.46140  Biso   1.000  H
  H4       1.0000 0.15440  0.84770  0.03860  Biso   1.000  H
  C13      1.0000 0.60817  0.73660  0.43066  Biso   1.000  C
  C14      1.0000 0.89183  0.23660  0.06934  Biso   1.000  C
  C15      1.0000 0.39183  0.26340  0.56934  Biso   1.000  C
  C16      1.0000 0.10817  0.76340  0.93066  Biso   1.000  C
  C17      1.0000 0.66458  0.71020  0.39084  Biso   1.000  C
  C18      1.0000 0.83542  0.21020  0.10916  Biso   1.000  C
  C19      1.0000 0.33542  0.28980  0.60916  Biso   1.000  C
  C20      1.0000 0.16458  0.78980  0.89084  Biso   1.000  C
  C21      1.0000 0.23021  0.94340  0.35587  Biso   1.000  C
  C22      1.0000 0.26979  0.44340  0.14413  Biso   1.000  C
  C23      1.0000 0.76979  0.05660  0.64413  Biso   1.000  C
  C24      1.0000 0.73021  0.55660  0.85587  Biso   1.000  C
  C25      1.0000 0.27001  0.95120  0.30051  Biso   1.000  C
  C26      1.0000 0.22999  0.45120  0.19949  Biso   1.000  C
  C27      1.0000 0.72999  0.04880  0.69949  Biso   1.000  C
  C28      1.0000 0.77001  0.54880  0.80051  Biso   1.000  C
  C29      1.0000 0.24729  0.97340  0.22616  Biso   1.000  C
  C30      1.0000 0.25271  0.47340  0.27384  Biso   1.000  C
  C31      1.0000 0.75271  0.02660  0.77384  Biso   1.000  C
  C32      1.0000 0.74729  0.52660  0.72616  Biso   1.000  C
  H5       1.0000 0.19680  0.99400  0.19350  Biso   1.000  H
  H6       1.0000 0.30320  0.49400  0.30650  Biso   1.000  H
  H7       1.0000 0.80320  0.00600  0.80650  Biso   1.000  H
  H8       1.0000 0.69680  0.50600  0.69350  Biso   1.000  H
  C33      1.0000 0.31900  0.95700  0.21257  Biso   1.000  C
  C34      1.0000 0.18100  0.45700  0.28743  Biso   1.000  C
  C35      1.0000 0.68100  0.04300  0.78743  Biso   1.000  C
  C36      1.0000 0.81900  0.54300  0.71257  Biso   1.000  C
  C37      1.0000 0.33876  0.95740  0.14531  Biso   1.000  C
  C38      1.0000 0.16124  0.45740  0.35469  Biso   1.000  C
  C39      1.0000 0.66124  0.04260  0.85469  Biso   1.000  C
  C40      1.0000 0.83876  0.54260  0.64531  Biso   1.000  C
  C41      1.0000 0.60587  0.87010  0.14762  Biso   1.000  C
  C42      1.0000 0.89413  0.37010  0.35238  Biso   1.000  C
  C43      1.0000 0.39413  0.12990  0.85238  Biso   1.000  C
  C44      1.0000 0.10587  0.62990  0.64762  Biso   1.000  C
  C45      1.0000 0.57822  0.67740  0.13554  Biso   1.000  C
  C46      1.0000 0.92178  0.17740  0.36446  Biso   1.000  C
  C47      1.0000 0.42178  0.32260  0.86446  Biso   1.000  C
  C48      1.0000 0.07822  0.82260  0.63554  Biso   1.000  C
  C49      1.0000 0.58521  0.54250  0.08785  Biso   1.000  C
  C50      1.0000 0.91479  0.04250  0.41215  Biso   1.000  C
  C51      1.0000 0.41479  0.45750  0.91215  Biso   1.000  C
  C52      1.0000 0.08521  0.95750  0.58785  Biso   1.000  C
  H9       1.0000 0.61590  0.54560  0.05770  Biso   1.000  H
  H10      1.0000 0.88410  0.04560  0.44230  Biso   1.000  H
  H11      1.0000 0.38410  0.45440  0.94230  Biso   1.000  H
  H12      1.0000 0.11590  0.95440  0.55770  Biso   1.000  H
  C53      1.0000 0.53647  0.40340  0.09536  Biso   1.000  C
  C54      1.0000 0.96353  0.90340  0.40464  Biso   1.000  C
  C55      1.0000 0.46353  0.59660  0.90464  Biso   1.000  C
  C56      1.0000 0.03647  0.09660  0.59536  Biso   1.000  C
  C57      1.0000 0.50595  0.23800  0.05044  Biso   1.000  C
  C58      1.0000 0.99405  0.73800  0.44956  Biso   1.000  C
  C59      1.0000 0.49405  0.76200  0.94956  Biso   1.000  C
  C60      1.0000 0.00595  0.26200  0.55044  Biso   1.000  C
  O1       1.0000 0.42033  0.78950  0.52907  Biso   1.000  O
  O2       1.0000 0.07967  0.28950  0.97093  Biso   1.000  O
  O3       1.0000 0.57967  0.21050  0.47093  Biso   1.000  O
  O4       1.0000 0.92033  0.71050  0.02907  Biso   1.000  O
  O5       1.0000 0.52579  0.68400  0.61669  Biso   1.000  O
  O6       1.0000 0.97421  0.18400  0.88331  Biso   1.000  O
  O7       1.0000 0.47421  0.31600  0.38331  Biso   1.000  O
  O8       1.0000 0.02579  0.81600  0.11669  Biso   1.000  O
  O9       1.0000 0.63751  0.74010  0.32366  Biso   1.000  O
  O10      1.0000 0.86249  0.24010  0.17634  Biso   1.000  O
  O11      1.0000 0.36249  0.25990  0.67634  Biso   1.000  O
  O12      1.0000 0.13751  0.75990  0.82366  Biso   1.000  O
  O13      1.0000 0.73390  0.65840  0.42285  Biso   1.000  O
  O14      1.0000 0.76610  0.15840  0.07715  Biso   1.000  O
  O15      1.0000 0.26610  0.34160  0.57715  Biso   1.000  O
  O16      1.0000 0.23390  0.84160  0.92285  Biso   1.000  O
  O17      1.0000 0.27647  0.91750  0.42071  Biso   1.000  O
  O18      1.0000 0.22353  0.41750  0.07929  Biso   1.000  O
  O19      1.0000 0.72353  0.08250  0.57929  Biso   1.000  O
  O20      1.0000 0.77647  0.58250  0.92071  Biso   1.000  O
  O21      1.0000 0.15742  0.96380  0.34008  Biso   1.000  O
  O22      1.0000 0.34258  0.46380  0.15992  Biso   1.000  O
  O23      1.0000 0.84258  0.03620  0.65992  Biso   1.000  O
  O24      1.0000 0.65742  0.53620  0.84008  Biso   1.000  O
  O25      1.0000 0.40897  0.90890  0.14962  Biso   1.000  O
  O26      1.0000 0.09103  0.40890  0.35038  Biso   1.000  O
  O27      1.0000 0.59103  0.09110  0.85038  Biso   1.000  O
  O28      1.0000 0.90897  0.59110  0.64962  Biso   1.000  O
  O29      1.0000 0.28805  0.99970  0.08653  Biso   1.000  O
  O30      1.0000 0.21195  0.49970  0.41347  Biso   1.000  O
  O31      1.0000 0.71195  0.00030  0.91347  Biso   1.000  O
  O32      1.0000 0.78805  0.50030  0.58653  Biso   1.000  O
  O33      1.0000 0.58726  0.95830  0.19442  Biso   1.000  O
  O34      1.0000 0.91274  0.45830  0.30558  Biso   1.000  O
  O35      1.0000 0.41274  0.04170  0.80558  Biso   1.000  O
  O36      1.0000 0.08726  0.54170  0.69442  Biso   1.000  O
  O37      1.0000 0.64528  0.93510  0.11066  Biso   1.000  O
  O38      1.0000 0.85472  0.43510  0.38934  Biso   1.000  O
  O39      1.0000 0.35472  0.06490  0.88934  Biso   1.000  O
  O40      1.0000 0.14528  0.56490  0.61066  Biso   1.000  O
  O41      1.0000 0.44130  0.17670  0.05216  Biso   1.000  O
  O42      1.0000 0.05870  0.67670  0.44784  Biso   1.000  O
  O43      1.0000 0.55870  0.82330  0.94784  Biso   1.000  O
  O44      1.0000 0.94130  0.32330  0.55216  Biso   1.000  O
  O45      1.0000 0.54516  0.18190  0.01228  Biso   1.000  O
  O46      1.0000 0.95484  0.68190  0.48772  Biso   1.000  O
  O47      1.0000 0.45484  0.81810  0.98772  Biso   1.000  O
  O48      1.0000 0.04516  0.31810  0.51228  Biso   1.000  O
  N1       1.0000 0.49327  0.80740  0.43593  Biso   1.000  N
  N2       1.0000 0.00673  0.30740  0.06407  Biso   1.000  N
  N3       1.0000 0.50673  0.19260  0.56407  Biso   1.000  N
  N4       1.0000 0.99327  0.69260  0.93593  Biso   1.000  N
  N5       1.0000 0.53645  0.80310  0.39166  Biso   1.000  N
  N6       1.0000 0.96355  0.30310  0.10834  Biso   1.000  N
  N7       1.0000 0.46355  0.19690  0.60834  Biso   1.000  N
  N8       1.0000 0.03645  0.69690  0.89166  Biso   1.000  N
  N9       1.0000 0.34908  0.92590  0.32734  Biso   1.000  N
  N10      1.0000 0.15092  0.42590  0.17266  Biso   1.000  N
  N11      1.0000 0.65092  0.07410  0.67266  Biso   1.000  N
  N12      1.0000 0.84908  0.57410  0.82734  Biso   1.000  N
  N13      1.0000 0.37999  0.92880  0.27382  Biso   1.000  N
  N14      1.0000 0.12001  0.42880  0.22618  Biso   1.000  N
  N15      1.0000 0.62001  0.07120  0.72618  Biso   1.000  N
  N16      1.0000 0.87999  0.57120  0.77382  Biso   1.000  N
  N17      1.0000 0.53096  0.62290  0.17242  Biso   1.000  N
  N18      1.0000 0.96904  0.12290  0.32758  Biso   1.000  N
  N19      1.0000 0.46904  0.37710  0.82758  Biso   1.000  N
  N20      1.0000 0.03096  0.87710  0.67242  Biso   1.000  N
  N21      1.0000 0.50602  0.45690  0.14642  Biso   1.000  N
  N22      1.0000 0.99398  0.95690  0.35358  Biso   1.000  N
  N23      1.0000 0.49398  0.54310  0.85358  Biso   1.000  N
  N24      1.0000 0.00602  0.04310  0.64642  Biso   1.000  N
  H13      1.0000 0.47400  0.39130  0.16070  Biso   1.000  H
  H14      1.0000 0.02600  0.89130  0.33930  Biso   1.000  H
  H15      1.0000 0.52600  0.60870  0.83930  Biso   1.000  H
  H16      1.0000 0.97400  0.10870  0.66070  Biso   1.000  H
  O49      1.0000 0.53105  0.14270  0.28935  Biso   1.000  O
  O50      1.0000 0.96895  0.64270  0.21065  Biso   1.000  O
  O51      1.0000 0.46895  0.85730  0.71065  Biso   1.000  O
  O52      1.0000 0.03105  0.35730  0.78935  Biso   1.000  O
  H17      1.0000 0.52020  0.20610  0.32120  Biso   1.000  H
  H18      1.0000 0.97980  0.70610  0.17880  Biso   1.000  H
  H19      1.0000 0.47980  0.79390  0.67880  Biso   1.000  H
  H20      1.0000 0.02020  0.29390  0.82120  Biso   1.000  H
  H21      1.0000 0.58050  0.16540  0.30630  Biso   1.000  H
  H22      1.0000 0.91950  0.66540  0.19370  Biso   1.000  H
  H23      1.0000 0.41950  0.83460  0.69370  Biso   1.000  H
  H24      1.0000 0.08050  0.33460  0.80630  Biso   1.000  H
  O53      1.0000 0.45449  0.56280  0.27677  Biso   1.000  O
  O54      1.0000 0.04551  0.06280  0.22323  Biso   1.000  O
  O55      1.0000 0.54551  0.43720  0.72323  Biso   1.000  O
  O56      1.0000 0.95449  0.93720  0.77677  Biso   1.000  O
  H25      1.0000 0.41220  0.53060  0.24380  Biso   1.000  H
  H26      1.0000 0.08780  0.03060  0.25620  Biso   1.000  H
  H27      1.0000 0.58780  0.46940  0.75620  Biso   1.000  H
  H28      1.0000 0.91220  0.96940  0.74380  Biso   1.000  H
  H29      1.0000 0.45680  0.53780  0.31970  Biso   1.000  H
  H30      1.0000 0.04320  0.03780  0.18030  Biso   1.000  H
  H31      1.0000 0.54320  0.46220  0.68030  Biso   1.000  H
  H32      1.0000 0.95680  0.96220  0.81970  Biso   1.000  H
  O57      1.0000 0.26640  0.22570  0.96712  Biso   1.000  O
  O58      1.0000 0.23360  0.72570  0.53288  Biso   1.000  O
  O59      1.0000 0.73360  0.77430  0.03288  Biso   1.000  O
  O60      1.0000 0.76640  0.27430  0.46712  Biso   1.000  O
  H33      1.0000 0.23440  0.21020  0.92460  Biso   1.000  H
  H34      1.0000 0.26560  0.71020  0.57540  Biso   1.000  H
  H35      1.0000 0.76560  0.78980  0.07540  Biso   1.000  H
  H36      1.0000 0.73440  0.28980  0.42460  Biso   1.000  H
  H37      1.0000 0.24200  0.26790  0.99430  Biso   1.000  H
  H38      1.0000 0.25800  0.76790  0.50570  Biso   1.000  H
  H39      1.0000 0.75800  0.73210  0.00570  Biso   1.000  H
  H40      1.0000 0.74200  0.23210  0.49430  Biso   1.000  H
  O61      1.0000 0.33627  0.65210  0.03156  Biso   1.000  O
  O62      1.0000 0.16373  0.15210  0.46844  Biso   1.000  O
  O63      1.0000 0.66373  0.34790  0.96844  Biso   1.000  O
  O64      1.0000 0.83627  0.84790  0.53156  Biso   1.000  O
  H41      1.0000 0.36530  0.62150  0.07380  Biso   1.000  H
  H42      1.0000 0.13470  0.12150  0.42620  Biso   1.000  H
  H43      1.0000 0.63470  0.37850  0.92620  Biso   1.000  H
  H44      1.0000 0.86530  0.87850  0.57380  Biso   1.000  H
  H45      1.0000 0.29150  0.59940  0.02160  Biso   1.000  H
  H46      1.0000 0.20850  0.09940  0.47840  Biso   1.000  H
  H47      1.0000 0.70850  0.40060  0.97840  Biso   1.000  H
  H48      1.0000 0.79150  0.90060  0.52160  Biso   1.000  H
  O65      1.0000 0.82580  0.80100  0.18140  Biso   1.000  O
  O66      1.0000 0.67420  0.30100  0.31860  Biso   1.000  O
  O67      1.0000 0.17420  0.19900  0.81860  Biso   1.000  O
  O68      1.0000 0.32580  0.69900  0.68140  Biso   1.000  O
  H49      1.0000 0.80030  0.73490  0.20190  Biso   1.000  H
  H50      1.0000 0.69970  0.23490  0.29810  Biso   1.000  H
  H51      1.0000 0.19970  0.26510  0.79810  Biso   1.000  H
  H52      1.0000 0.30030  0.76510  0.70190  Biso   1.000  H
  H53      1.0000 0.83670  0.90810  0.19880  Biso   1.000  H
  H54      1.0000 0.66330  0.40810  0.30120  Biso   1.000  H
  H55      1.0000 0.16330  0.09190  0.80120  Biso   1.000  H
  H56      1.0000 0.33670  0.59190  0.69880  Biso   1.000  H
  O69      1.0000 0.75480  0.65990  0.26620  Biso   1.000  O
  O70      1.0000 0.74520  0.15990  0.23380  Biso   1.000  O
  O71      1.0000 0.24520  0.34010  0.73380  Biso   1.000  O
  O72      1.0000 0.25480  0.84010  0.76620  Biso   1.000  O
  H57      1.0000 0.72670  0.71250  0.28800  Biso   1.000  H
  H58      1.0000 0.77330  0.21250  0.21200  Biso   1.000  H
  H59      1.0000 0.27330  0.28750  0.71200  Biso   1.000  H
  H60      1.0000 0.22670  0.78750  0.78800  Biso   1.000  H
  H61      1.0000 0.79560  0.63610  0.30230  Biso   1.000  H
  H62      1.0000 0.70440  0.13610  0.19770  Biso   1.000  H
  H63      1.0000 0.20440  0.36390  0.69770  Biso   1.000  H
  H64      1.0000 0.29560  0.86390  0.80230  Biso   1.000  H
