data_image0
_cell_length_a       7.1476
_cell_length_b       11.2218
_cell_length_c       15.4597
_cell_angle_alpha    82.665
_cell_angle_beta     77.383
_cell_angle_gamma    84.547

_symmetry_space_group_name_H-M    "P 1"
_symmetry_int_tables_number       1

loop_
  _symmetry_equiv_pos_as_xyz
  'x, y, z'

loop_
  _atom_site_label
  _atom_site_occupancy
  _atom_site_fract_x
  _atom_site_fract_y
  _atom_site_fract_z
  _atom_site_thermal_displace_type
  _atom_site_B_iso_or_equiv
  _atom_site_type_symbol
  Y1       1.0000 0.51592  0.66326  0.35091  Biso   1.000  Y
  Y2       1.0000 0.48408  0.33674  0.64909  Biso   1.000  Y
  Y3       1.0000 0.48124  0.77147  0.75631  Biso   1.000  Y
  Y4       1.0000 0.51876  0.22853  0.24369  Biso   1.000  Y
  Cu1      1.0000 0.19494  0.81213  0.04293  Biso   1.000  Cu
  Cu2      1.0000 0.80506  0.18787  0.95707  Biso   1.000  Cu
  C1       1.0000 0.38360  0.49190  0.80410  Biso   1.000  C
  C2       1.0000 0.61640  0.50810  0.19590  Biso   1.000  C
  C3       1.0000 0.31410  0.53400  0.89280  Biso   1.000  C
  C4       1.0000 0.68590  0.46600  0.10720  Biso   1.000  C
  C5       1.0000 0.24620  0.47450  0.97680  Biso   1.000  C
  C6       1.0000 0.75380  0.52550  0.02320  Biso   1.000  C
  H1       1.0000 0.23080  0.39100  0.99310  Biso   1.000  H
  H2       1.0000 0.76920  0.60900  0.00690  Biso   1.000  H
  C7       1.0000 0.20590  0.56850  0.03140  Biso   1.000  C
  C8       1.0000 0.79410  0.43150  0.96860  Biso   1.000  C
  C9       1.0000 0.12600  0.58190  0.12610  Biso   1.000  C
  C10      1.0000 0.87400  0.41810  0.87390  Biso   1.000  C
  C11      1.0000 0.56650  0.05320  0.74010  Biso   1.000  C
  C12      1.0000 0.43350  0.94680  0.25990  Biso   1.000  C
  C13      1.0000 0.45550  0.03550  0.83330  Biso   1.000  C
  C14      1.0000 0.54450  0.96450  0.16670  Biso   1.000  C
  C15      1.0000 0.37230  0.11620  0.89540  Biso   1.000  C
  C16      1.0000 0.62770  0.88380  0.10460  Biso   1.000  C
  H3       1.0000 0.37610  0.20130  0.88940  Biso   1.000  H
  H4       1.0000 0.62390  0.79870  0.11060  Biso   1.000  H
  C17      1.0000 0.28330  0.04080  0.96770  Biso   1.000  C
  C18      1.0000 0.71670  0.95920  0.03230  Biso   1.000  C
  C19      1.0000 0.15780  0.05340  0.05690  Biso   1.000  C
  C20      1.0000 0.84220  0.94660  0.94310  Biso   1.000  C
  C21      1.0000 0.56830  0.76510  0.54110  Biso   1.000  C
  C22      1.0000 0.43170  0.23490  0.45890  Biso   1.000  C
  C23      1.0000 0.76040  0.72090  0.55870  Biso   1.000  C
  C24      1.0000 0.23960  0.27910  0.44130  Biso   1.000  C
  C25      1.0000 0.92930  0.67840  0.50350  Biso   1.000  C
  C26      1.0000 0.07070  0.32160  0.49650  Biso   1.000  C
  H5       1.0000 0.95700  0.68120  0.44030  Biso   1.000  H
  H6       1.0000 0.04300  0.31880  0.55970  Biso   1.000  H
  C27      1.0000 0.04560  0.63160  0.56100  Biso   1.000  C
  C28      1.0000 0.95440  0.36840  0.43900  Biso   1.000  C
  C29      1.0000 0.22870  0.55430  0.54540  Biso   1.000  C
  C30      1.0000 0.77130  0.44570  0.45460  Biso   1.000  C
  N1       1.0000 0.31690  0.65390  0.89542  Biso   1.000  N
  N2       1.0000 0.68310  0.34610  0.10458  Biso   1.000  N
  N3       1.0000 0.25150  0.67310  0.98058  Biso   1.000  N
  N4       1.0000 0.74850  0.32690  0.01942  Biso   1.000  N
  N5       1.0000 0.42010  0.92090  0.86610  Biso   1.000  N
  N6       1.0000 0.57990  0.07910  0.13390  Biso   1.000  N
  N7       1.0000 0.31480  0.92580  0.94913  Biso   1.000  N
  N8       1.0000 0.68520  0.07420  0.05087  Biso   1.000  N
  N9       1.0000 0.77480  0.70520  0.64491  Biso   1.000  N
  N10      1.0000 0.22520  0.29480  0.35509  Biso   1.000  N
  N11      1.0000 0.94910  0.64970  0.64448  Biso   1.000  N
  N12      1.0000 0.05090  0.35030  0.35552  Biso   1.000  N
  H7       1.0000 0.99550  0.62750  0.69280  Biso   1.000  H
  H8       1.0000 0.00450  0.37250  0.30720  Biso   1.000  H
  O1       1.0000 0.45650  0.56850  0.74054  Biso   1.000  O
  O2       1.0000 0.54350  0.43150  0.25946  Biso   1.000  O
  O3       1.0000 0.36900  0.38360  0.79358  Biso   1.000  O
  O4       1.0000 0.63100  0.61640  0.20642  Biso   1.000  O
  O5       1.0000 0.08730  0.49390  0.18301  Biso   1.000  O
  O6       1.0000 0.91270  0.50610  0.81699  Biso   1.000  O
  O7       1.0000 0.10350  0.69230  0.14554  Biso   1.000  O
  O8       1.0000 0.89650  0.30770  0.85446  Biso   1.000  O
  O9       1.0000 0.61090  0.95840  0.70079  Biso   1.000  O
  O10      1.0000 0.38910  0.04160  0.29921  Biso   1.000  O
  O11      1.0000 0.61320  0.15610  0.70448  Biso   1.000  O
  O12      1.0000 0.38680  0.84390  0.29552  Biso   1.000  O
  O13      1.0000 0.09860  0.15530  0.08030  Biso   1.000  O
  O14      1.0000 0.90140  0.84470  0.91970  Biso   1.000  O
  O15      1.0000 0.10990  0.95490  0.10504  Biso   1.000  O
  O16      1.0000 0.89010  0.04510  0.89496  Biso   1.000  O
  O17      1.0000 0.44160  0.79420  0.60739  Biso   1.000  O
  O18      1.0000 0.55840  0.20580  0.39261  Biso   1.000  O
  O19      1.0000 0.54040  0.76930  0.46346  Biso   1.000  O
  O20      1.0000 0.45960  0.23070  0.53654  Biso   1.000  O
  O21      1.0000 0.32750  0.56090  0.46818  Biso   1.000  O
  O22      1.0000 0.67250  0.43910  0.53182  Biso   1.000  O
  O23      1.0000 0.26160  0.48360  0.61162  Biso   1.000  O
  O24      1.0000 0.73840  0.51640  0.38838  Biso   1.000  O
  O25      1.0000 0.16260  0.84100  0.75895  Biso   1.000  O
  O26      1.0000 0.83740  0.15900  0.24105  Biso   1.000  O
  H9       1.0000 0.15040  0.89250  0.71420  Biso   1.000  H
  H10      1.0000 0.84960  0.10750  0.28580  Biso   1.000  H
  H11      1.0000 0.09210  0.83740  0.81210  Biso   1.000  H
  H12      1.0000 0.90790  0.16260  0.18790  Biso   1.000  H
  O27      1.0000 0.72350  0.71720  0.83320  Biso   1.000  O
  O28      1.0000 0.27650  0.28280  0.16680  Biso   1.000  O
  H13      1.0000 0.77780  0.64500  0.83390  Biso   1.000  H
  H14      1.0000 0.22220  0.35500  0.16610  Biso   1.000  H
  H15      1.0000 0.74600  0.77500  0.86060  Biso   1.000  H
  H16      1.0000 0.25400  0.22500  0.13940  Biso   1.000  H
  O29      1.0000 0.22660  0.63180  0.30726  Biso   1.000  O
  O30      1.0000 0.77340  0.36820  0.69274  Biso   1.000  O
  H17      1.0000 0.21090  0.67650  0.25990  Biso   1.000  H
  H18      1.0000 0.78910  0.32350  0.74010  Biso   1.000  H
  H19      1.0000 0.19390  0.55870  0.32410  Biso   1.000  H
  H20      1.0000 0.80610  0.44130  0.67590  Biso   1.000  H
  O31      1.0000 0.79720  0.76580  0.29319  Biso   1.000  O
  O32      1.0000 0.20280  0.23420  0.70681  Biso   1.000  O
  H21      1.0000 0.82340  0.82550  0.31790  Biso   1.000  H
  H22      1.0000 0.17660  0.17450  0.68210  Biso   1.000  H
  H23      1.0000 0.85630  0.74270  0.24250  Biso   1.000  H
  H24      1.0000 0.14370  0.25730  0.75750  Biso   1.000  H
  O33      1.0000 0.24010  0.97760  0.48470  Biso   1.000  O
  O34      1.0000 0.75990  0.02240  0.51530  Biso   1.000  O
  H25      1.0000 0.27690  0.01560  0.43260  Biso   1.000  H
  H26      1.0000 0.72310  0.98440  0.56740  Biso   1.000  H
  H27      1.0000 0.28520  0.90890  0.50580  Biso   1.000  H
  H28      1.0000 0.71480  0.09110  0.49420  Biso   1.000  H
  O35      1.0000 0.93150  0.95510  0.35520  Biso   1.000  O
  O36      1.0000 0.06850  0.04490  0.64480  Biso   1.000  O
  H29      1.0000 0.86720  0.96320  0.40850  Biso   1.000  H
  H30      1.0000 0.13280  0.03680  0.59150  Biso   1.000  H
  H31      1.0000 0.05360  0.94100  0.33820  Biso   1.000  H
  H32      1.0000 0.94640  0.05900  0.66180  Biso   1.000  H
