data_image0
_cell_length_a       7.1245
_cell_length_b       11.2018
_cell_length_c       15.4103
_cell_angle_alpha    82.608
_cell_angle_beta     77.436
_cell_angle_gamma    84.553

_symmetry_space_group_name_H-M    "P 1"
_symmetry_int_tables_number       1

loop_
  _symmetry_equiv_pos_as_xyz
  'x, y, z'

loop_
  _atom_site_label
  _atom_site_occupancy
  _atom_site_fract_x
  _atom_site_fract_y
  _atom_site_fract_z
  _atom_site_thermal_displace_type
  _atom_site_B_iso_or_equiv
  _atom_site_type_symbol
  Er1      1.0000 0.51449  0.66346  0.35155  Biso   1.000  Er
  Er2      1.0000 0.48551  0.33654  0.64845  Biso   1.000  Er
  Er3      1.0000 0.48342  0.77192  0.75648  Biso   1.000  Er
  Er4      1.0000 0.51658  0.22808  0.24352  Biso   1.000  Er
  Cu1      1.0000 0.19621  0.81254  0.04277  Biso   1.000  Cu
  Cu2      1.0000 0.80379  0.18746  0.95723  Biso   1.000  Cu
  C1       1.0000 0.38590  0.49270  0.80292  Biso   1.000  C
  C2       1.0000 0.61410  0.50730  0.19708  Biso   1.000  C
  C3       1.0000 0.31640  0.53420  0.89204  Biso   1.000  C
  C4       1.0000 0.68360  0.46580  0.10796  Biso   1.000  C
  C5       1.0000 0.24700  0.47520  0.97632  Biso   1.000  C
  C6       1.0000 0.75300  0.52480  0.02368  Biso   1.000  C
  H1       1.0000 0.23030  0.39170  0.99290  Biso   1.000  H
  H2       1.0000 0.76970  0.60830  0.00710  Biso   1.000  H
  C7       1.0000 0.20820  0.56850  0.03035  Biso   1.000  C
  C8       1.0000 0.79180  0.43150  0.96965  Biso   1.000  C
  C9       1.0000 0.12730  0.58150  0.12583  Biso   1.000  C
  C10      1.0000 0.87270  0.41850  0.87417  Biso   1.000  C
  C11      1.0000 0.56890  0.05330  0.73950  Biso   1.000  C
  C12      1.0000 0.43110  0.94670  0.26050  Biso   1.000  C
  C13      1.0000 0.45730  0.03644  0.83235  Biso   1.000  C
  C14      1.0000 0.54270  0.96356  0.16765  Biso   1.000  C
  C15      1.0000 0.37220  0.11680  0.89438  Biso   1.000  C
  C16      1.0000 0.62780  0.88320  0.10562  Biso   1.000  C
  H3       1.0000 0.37430  0.20210  0.88820  Biso   1.000  H
  H4       1.0000 0.62570  0.79790  0.11180  Biso   1.000  H
  C17      1.0000 0.28410  0.04094  0.96704  Biso   1.000  C
  C18      1.0000 0.71590  0.95906  0.03296  Biso   1.000  C
  C19      1.0000 0.15700  0.05410  0.05644  Biso   1.000  C
  C20      1.0000 0.84300  0.94590  0.94356  Biso   1.000  C
  C21      1.0000 0.56720  0.76577  0.54187  Biso   1.000  C
  C22      1.0000 0.43280  0.23423  0.45813  Biso   1.000  C
  C23      1.0000 0.76030  0.72153  0.55944  Biso   1.000  C
  C24      1.0000 0.23970  0.27847  0.44056  Biso   1.000  C
  C25      1.0000 0.92910  0.67840  0.50362  Biso   1.000  C
  C26      1.0000 0.07090  0.32160  0.49638  Biso   1.000  C
  H5       1.0000 0.95600  0.68070  0.44030  Biso   1.000  H
  H6       1.0000 0.04400  0.31930  0.55970  Biso   1.000  H
  C27      1.0000 0.04700  0.63210  0.56140  Biso   1.000  C
  C28      1.0000 0.95300  0.36790  0.43860  Biso   1.000  C
  C29      1.0000 0.22970  0.55440  0.54600  Biso   1.000  C
  C30      1.0000 0.77030  0.44560  0.45400  Biso   1.000  C
  N1       1.0000 0.32020  0.65454  0.89494  Biso   1.000  N
  N2       1.0000 0.67980  0.34546  0.10506  Biso   1.000  N
  N3       1.0000 0.25420  0.67333  0.97991  Biso   1.000  N
  N4       1.0000 0.74580  0.32667  0.02009  Biso   1.000  N
  N5       1.0000 0.42180  0.92103  0.86557  Biso   1.000  N
  N6       1.0000 0.57820  0.07897  0.13443  Biso   1.000  N
  N7       1.0000 0.31620  0.92575  0.94838  Biso   1.000  N
  N8       1.0000 0.68380  0.07425  0.05162  Biso   1.000  N
  N9       1.0000 0.77610  0.70739  0.64507  Biso   1.000  N
  N10      1.0000 0.22390  0.29261  0.35493  Biso   1.000  N
  N11      1.0000 0.95080  0.65164  0.64510  Biso   1.000  N
  N12      1.0000 0.04920  0.34836  0.35490  Biso   1.000  N
  H7       1.0000 0.99760  0.63020  0.69360  Biso   1.000  H
  H8       1.0000 0.00240  0.36980  0.30640  Biso   1.000  H
  O1       1.0000 0.45970  0.56982  0.73990  Biso   1.000  O
  O2       1.0000 0.54030  0.43018  0.26010  Biso   1.000  O
  O3       1.0000 0.37120  0.38469  0.79227  Biso   1.000  O
  O4       1.0000 0.62880  0.61531  0.20773  Biso   1.000  O
  O5       1.0000 0.08740  0.49433  0.18252  Biso   1.000  O
  O6       1.0000 0.91260  0.50567  0.81748  Biso   1.000  O
  O7       1.0000 0.10390  0.69295  0.14518  Biso   1.000  O
  O8       1.0000 0.89610  0.30705  0.85482  Biso   1.000  O
  O9       1.0000 0.61290  0.95809  0.70014  Biso   1.000  O
  O10      1.0000 0.38710  0.04191  0.29986  Biso   1.000  O
  O11      1.0000 0.61590  0.15598  0.70325  Biso   1.000  O
  O12      1.0000 0.38410  0.84402  0.29675  Biso   1.000  O
  O13      1.0000 0.09770  0.15649  0.07923  Biso   1.000  O
  O14      1.0000 0.90230  0.84351  0.92077  Biso   1.000  O
  O15      1.0000 0.11010  0.95553  0.10461  Biso   1.000  O
  O16      1.0000 0.88990  0.04447  0.89539  Biso   1.000  O
  O17      1.0000 0.44060  0.79462  0.60804  Biso   1.000  O
  O18      1.0000 0.55940  0.20538  0.39196  Biso   1.000  O
  O19      1.0000 0.53860  0.76931  0.46386  Biso   1.000  O
  O20      1.0000 0.46140  0.23069  0.53614  Biso   1.000  O
  O21      1.0000 0.32900  0.55978  0.46820  Biso   1.000  O
  O22      1.0000 0.67100  0.44022  0.53180  Biso   1.000  O
  O23      1.0000 0.26220  0.48371  0.61228  Biso   1.000  O
  O24      1.0000 0.73780  0.51629  0.38772  Biso   1.000  O
  O25      1.0000 0.16440  0.84012  0.75956  Biso   1.000  O
  O26      1.0000 0.83560  0.15988  0.24044  Biso   1.000  O
  H9       1.0000 0.15220  0.89160  0.71480  Biso   1.000  H
  H10      1.0000 0.84780  0.10840  0.28520  Biso   1.000  H
  H11      1.0000 0.09390  0.83650  0.81280  Biso   1.000  H
  H12      1.0000 0.90610  0.16350  0.18720  Biso   1.000  H
  O27      1.0000 0.72540  0.71756  0.83313  Biso   1.000  O
  O28      1.0000 0.27460  0.28244  0.16687  Biso   1.000  O
  H13      1.0000 0.77970  0.64540  0.83380  Biso   1.000  H
  H14      1.0000 0.22030  0.35460  0.16620  Biso   1.000  H
  H15      1.0000 0.74800  0.77540  0.86050  Biso   1.000  H
  H16      1.0000 0.25200  0.22460  0.13950  Biso   1.000  H
  O29      1.0000 0.22640  0.63164  0.30772  Biso   1.000  O
  O30      1.0000 0.77360  0.36836  0.69228  Biso   1.000  O
  H17      1.0000 0.21070  0.67630  0.26040  Biso   1.000  H
  H18      1.0000 0.78930  0.32370  0.73960  Biso   1.000  H
  H19      1.0000 0.19370  0.55860  0.32460  Biso   1.000  H
  H20      1.0000 0.80630  0.44140  0.67540  Biso   1.000  H
  O31      1.0000 0.79530  0.76548  0.29366  Biso   1.000  O
  O32      1.0000 0.20470  0.23452  0.70634  Biso   1.000  O
  H21      1.0000 0.82150  0.82520  0.31840  Biso   1.000  H
  H22      1.0000 0.17850  0.17480  0.68160  Biso   1.000  H
  H23      1.0000 0.85440  0.74240  0.24300  Biso   1.000  H
  H24      1.0000 0.14560  0.25760  0.75700  Biso   1.000  H
  O33      1.0000 0.23940  0.97791  0.48538  Biso   1.000  O
  O34      1.0000 0.76060  0.02209  0.51462  Biso   1.000  O
  H25      1.0000 0.27620  0.01600  0.43330  Biso   1.000  H
  H26      1.0000 0.72380  0.98400  0.56670  Biso   1.000  H
  H27      1.0000 0.28450  0.90930  0.50650  Biso   1.000  H
  H28      1.0000 0.71550  0.09070  0.49350  Biso   1.000  H
  O35      1.0000 0.93040  0.95494  0.35378  Biso   1.000  O
  O36      1.0000 0.06960  0.04506  0.64622  Biso   1.000  O
  H29      1.0000 0.86610  0.96310  0.40710  Biso   1.000  H
  H30      1.0000 0.13390  0.03690  0.59290  Biso   1.000  H
  H31      1.0000 0.05250  0.94090  0.33680  Biso   1.000  H
  H32      1.0000 0.94750  0.05910  0.66320  Biso   1.000  H
