data_image0
_cell_length_a       7.1693
_cell_length_b       11.222
_cell_length_c       15.5135
_cell_angle_alpha    82.772
_cell_angle_beta     77.251
_cell_angle_gamma    84.525

_symmetry_space_group_name_H-M    "P 1"
_symmetry_int_tables_number       1

loop_
  _symmetry_equiv_pos_as_xyz
  'x, y, z'

loop_
  _atom_site_label
  _atom_site_occupancy
  _atom_site_fract_x
  _atom_site_fract_y
  _atom_site_fract_z
  _atom_site_thermal_displace_type
  _atom_site_B_iso_or_equiv
  _atom_site_type_symbol
  Tb1      1.0000 0.51606  0.66178  0.34943  Biso   1.000  Tb
  Tb2      1.0000 0.48394  0.33822  0.65057  Biso   1.000  Tb
  Tb3      1.0000 0.47649  0.76946  0.75622  Biso   1.000  Tb
  Tb4      1.0000 0.52351  0.23054  0.24378  Biso   1.000  Tb
  Cu1      1.0000 0.19190  0.81193  0.04259  Biso   1.000  Cu
  Cu2      1.0000 0.80810  0.18807  0.95741  Biso   1.000  Cu
  C1       1.0000 0.38150  0.48720  0.80630  Biso   1.000  C
  C2       1.0000 0.61850  0.51280  0.19370  Biso   1.000  C
  C3       1.0000 0.31170  0.53190  0.89417  Biso   1.000  C
  C4       1.0000 0.68830  0.46810  0.10583  Biso   1.000  C
  C5       1.0000 0.24470  0.47360  0.97844  Biso   1.000  C
  C6       1.0000 0.75530  0.52640  0.02156  Biso   1.000  C
  H1       1.0000 0.23020  0.39020  0.99550  Biso   1.000  H
  H2       1.0000 0.76980  0.60980  0.00450  Biso   1.000  H
  C7       1.0000 0.20420  0.56840  0.03170  Biso   1.000  C
  C8       1.0000 0.79580  0.43160  0.96830  Biso   1.000  C
  C9       1.0000 0.12500  0.58270  0.12637  Biso   1.000  C
  C10      1.0000 0.87500  0.41730  0.87363  Biso   1.000  C
  C11      1.0000 0.56460  0.05250  0.74140  Biso   1.000  C
  C12      1.0000 0.43540  0.94750  0.25860  Biso   1.000  C
  C13      1.0000 0.45400  0.03500  0.83393  Biso   1.000  C
  C14      1.0000 0.54600  0.96500  0.16607  Biso   1.000  C
  C15      1.0000 0.37250  0.11460  0.89669  Biso   1.000  C
  C16      1.0000 0.62750  0.88540  0.10331  Biso   1.000  C
  H3       1.0000 0.37740  0.19960  0.89140  Biso   1.000  H
  H4       1.0000 0.62260  0.80040  0.10860  Biso   1.000  H
  C17      1.0000 0.28320  0.03930  0.96844  Biso   1.000  C
  C18      1.0000 0.71680  0.96070  0.03156  Biso   1.000  C
  C19      1.0000 0.15910  0.05260  0.05757  Biso   1.000  C
  C20      1.0000 0.84090  0.94740  0.94243  Biso   1.000  C
  C21      1.0000 0.56720  0.76420  0.54083  Biso   1.000  C
  C22      1.0000 0.43280  0.23580  0.45917  Biso   1.000  C
  C23      1.0000 0.75840  0.71940  0.55885  Biso   1.000  C
  C24      1.0000 0.24160  0.28060  0.44115  Biso   1.000  C
  C25      1.0000 0.92760  0.67870  0.50334  Biso   1.000  C
  C26      1.0000 0.07240  0.32130  0.49666  Biso   1.000  C
  H5       1.0000 0.95600  0.68320  0.44030  Biso   1.000  H
  H6       1.0000 0.04400  0.31680  0.55970  Biso   1.000  H
  C27      1.0000 0.04330  0.63070  0.56042  Biso   1.000  C
  C28      1.0000 0.95670  0.36930  0.43958  Biso   1.000  C
  C29      1.0000 0.22600  0.55460  0.54544  Biso   1.000  C
  C30      1.0000 0.77400  0.44540  0.45456  Biso   1.000  C
  N1       1.0000 0.31240  0.65207  0.89627  Biso   1.000  N
  N2       1.0000 0.68760  0.34793  0.10373  Biso   1.000  N
  N3       1.0000 0.24690  0.67224  0.98046  Biso   1.000  N
  N4       1.0000 0.75310  0.32776  0.01954  Biso   1.000  N
  N5       1.0000 0.41520  0.92010  0.86650  Biso   1.000  N
  N6       1.0000 0.58480  0.07990  0.13350  Biso   1.000  N
  N7       1.0000 0.31100  0.92453  0.94904  Biso   1.000  N
  N8       1.0000 0.68900  0.07547  0.05096  Biso   1.000  N
  N9       1.0000 0.77140  0.70270  0.64427  Biso   1.000  N
  N10      1.0000 0.22860  0.29730  0.35573  Biso   1.000  N
  N11      1.0000 0.94570  0.64750  0.64416  Biso   1.000  N
  N12      1.0000 0.05430  0.35250  0.35584  Biso   1.000  N
  H7       1.0000 0.99130  0.62500  0.69230  Biso   1.000  H
  H8       1.0000 0.00870  0.37500  0.30770  Biso   1.000  H
  O1       1.0000 0.45340  0.56208  0.74193  Biso   1.000  O
  O2       1.0000 0.54660  0.43792  0.25807  Biso   1.000  O
  O3       1.0000 0.36700  0.37874  0.79817  Biso   1.000  O
  O4       1.0000 0.63300  0.62126  0.20183  Biso   1.000  O
  O5       1.0000 0.08740  0.49542  0.18342  Biso   1.000  O
  O6       1.0000 0.91260  0.50458  0.81658  Biso   1.000  O
  O7       1.0000 0.10140  0.69353  0.14486  Biso   1.000  O
  O8       1.0000 0.89860  0.30647  0.85514  Biso   1.000  O
  O9       1.0000 0.60770  0.95783  0.70139  Biso   1.000  O
  O10      1.0000 0.39230  0.04217  0.29861  Biso   1.000  O
  O11      1.0000 0.61290  0.15520  0.70677  Biso   1.000  O
  O12      1.0000 0.38710  0.84480  0.29323  Biso   1.000  O
  O13      1.0000 0.10310  0.15480  0.08166  Biso   1.000  O
  O14      1.0000 0.89690  0.84520  0.91834  Biso   1.000  O
  O15      1.0000 0.10970  0.95439  0.10507  Biso   1.000  O
  O16      1.0000 0.89030  0.04561  0.89493  Biso   1.000  O
  O17      1.0000 0.43950  0.79214  0.60641  Biso   1.000  O
  O18      1.0000 0.56050  0.20786  0.39359  Biso   1.000  O
  O19      1.0000 0.54210  0.76923  0.46283  Biso   1.000  O
  O20      1.0000 0.45790  0.23077  0.53717  Biso   1.000  O
  O21      1.0000 0.32580  0.56026  0.46779  Biso   1.000  O
  O22      1.0000 0.67420  0.43974  0.53221  Biso   1.000  O
  O23      1.0000 0.25900  0.48495  0.61121  Biso   1.000  O
  O24      1.0000 0.74100  0.51505  0.38879  Biso   1.000  O
  O25      1.0000 0.15590  0.84166  0.75787  Biso   1.000  O
  O26      1.0000 0.84410  0.15834  0.24213  Biso   1.000  O
  H9       1.0000 0.14360  0.89310  0.71310  Biso   1.000  H
  H10      1.0000 0.85640  0.10690  0.28690  Biso   1.000  H
  H11      1.0000 0.08540  0.83800  0.81110  Biso   1.000  H
  H12      1.0000 0.91460  0.16200  0.18890  Biso   1.000  H
  O27      1.0000 0.72060  0.71505  0.83360  Biso   1.000  O
  O28      1.0000 0.27940  0.28495  0.16640  Biso   1.000  O
  H13      1.0000 0.77490  0.64290  0.83430  Biso   1.000  H
  H14      1.0000 0.22510  0.35710  0.16570  Biso   1.000  H
  H15      1.0000 0.74310  0.77290  0.86100  Biso   1.000  H
  H16      1.0000 0.25690  0.22710  0.13900  Biso   1.000  H
  O29      1.0000 0.22320  0.63370  0.30582  Biso   1.000  O
  O30      1.0000 0.77680  0.36630  0.69418  Biso   1.000  O
  H17      1.0000 0.20750  0.67840  0.25850  Biso   1.000  H
  H18      1.0000 0.79250  0.32160  0.74150  Biso   1.000  H
  H19      1.0000 0.19050  0.56060  0.32270  Biso   1.000  H
  H20      1.0000 0.80950  0.43940  0.67730  Biso   1.000  H
  O31      1.0000 0.79890  0.76817  0.29239  Biso   1.000  O
  O32      1.0000 0.20110  0.23183  0.70761  Biso   1.000  O
  H21      1.0000 0.82510  0.82790  0.31710  Biso   1.000  H
  H22      1.0000 0.17490  0.17210  0.68290  Biso   1.000  H
  H23      1.0000 0.85800  0.74500  0.24170  Biso   1.000  H
  H24      1.0000 0.14200  0.25500  0.75830  Biso   1.000  H
  O33      1.0000 0.24230  0.97760  0.48289  Biso   1.000  O
  O34      1.0000 0.75770  0.02240  0.51711  Biso   1.000  O
  H25      1.0000 0.27920  0.01560  0.43080  Biso   1.000  H
  H26      1.0000 0.72080  0.98440  0.56920  Biso   1.000  H
  H27      1.0000 0.28740  0.90890  0.50400  Biso   1.000  H
  H28      1.0000 0.71260  0.09110  0.49600  Biso   1.000  H
  O35      1.0000 0.93330  0.95541  0.35648  Biso   1.000  O
  O36      1.0000 0.06670  0.04459  0.64352  Biso   1.000  O
  H29      1.0000 0.86910  0.96350  0.40980  Biso   1.000  H
  H30      1.0000 0.13090  0.03650  0.59020  Biso   1.000  H
  H31      1.0000 0.05550  0.94130  0.33950  Biso   1.000  H
  H32      1.0000 0.94450  0.05870  0.66050  Biso   1.000  H
