data_image0
_cell_length_a       6.9914
_cell_length_b       17.1874
_cell_length_c       19.9307
_cell_angle_alpha    66.266
_cell_angle_beta     84.632
_cell_angle_gamma    81.115

_symmetry_space_group_name_H-M    "P 1"
_symmetry_int_tables_number       1

loop_
  _symmetry_equiv_pos_as_xyz
  'x, y, z'

loop_
  _atom_site_label
  _atom_site_occupancy
  _atom_site_fract_x
  _atom_site_fract_y
  _atom_site_fract_z
  _atom_site_thermal_displace_type
  _atom_site_B_iso_or_equiv
  _atom_site_type_symbol
  Eu1      1.0000 0.75835  0.10226  0.29890  Biso   1.000  Eu
  Eu2      1.0000 0.24165  0.89774  0.70110  Biso   1.000  Eu
  Eu3      1.0000 0.18735  0.44625  0.11088  Biso   1.000  Eu
  Eu4      1.0000 0.81265  0.55375  0.88912  Biso   1.000  Eu
  Eu5      1.0000 0.41476  0.21301  0.09135  Biso   1.000  Eu
  Eu6      1.0000 0.58524  0.78699  0.90865  Biso   1.000  Eu
  Eu7      1.0000 0.40617  0.27175  0.60209  Biso   1.000  Eu
  Eu8      1.0000 0.59383  0.72825  0.39791  Biso   1.000  Eu
  Cu1      1.0000 0.75335  0.15589  0.50785  Biso   1.000  Cu
  Cu2      1.0000 0.24665  0.84411  0.49215  Biso   1.000  Cu
  Cu3      1.0000 0.15790  0.54582  0.29130  Biso   1.000  Cu
  Cu4      1.0000 0.84210  0.45418  0.70870  Biso   1.000  Cu
  Cu5      1.0000 0.55330  0.12638  0.90421  Biso   1.000  Cu
  Cu6      1.0000 0.44670  0.87362  0.09579  Biso   1.000  Cu
  C1       1.0000 0.84390  0.99680  0.61850  Biso   1.000  C
  C2       1.0000 0.15610  0.00320  0.38150  Biso   1.000  C
  C3       1.0000 0.78940  0.98030  0.55560  Biso   1.000  C
  C4       1.0000 0.21060  0.01970  0.44440  Biso   1.000  C
  C5       1.0000 0.76400  0.90980  0.54010  Biso   1.000  C
  C6       1.0000 0.23600  0.09020  0.45990  Biso   1.000  C
  H1       1.0000 0.77890  0.85080  0.57180  Biso   1.000  H
  H2       1.0000 0.22110  0.14920  0.42820  Biso   1.000  H
  C7       1.0000 0.71250  0.94700  0.46820  Biso   1.000  C
  C8       1.0000 0.28750  0.05300  0.53180  Biso   1.000  C
  C9       1.0000 0.65000  0.91340  0.41680  Biso   1.000  C
  C10      1.0000 0.35000  0.08660  0.58320  Biso   1.000  C
  C11      1.0000 0.76710  0.32880  0.46220  Biso   1.000  C
  C12      1.0000 0.23290  0.67120  0.53780  Biso   1.000  C
  C13      1.0000 0.79430  0.31090  0.39560  Biso   1.000  C
  C14      1.0000 0.20570  0.68910  0.60440  Biso   1.000  C
  C15      1.0000 0.83470  0.35550  0.32090  Biso   1.000  C
  C16      1.0000 0.16530  0.64450  0.67910  Biso   1.000  C
  H3       1.0000 0.85270  0.41420  0.29590  Biso   1.000  H
  H4       1.0000 0.14730  0.58580  0.70410  Biso   1.000  H
  C17      1.0000 0.84230  0.29400  0.29170  Biso   1.000  C
  C18      1.0000 0.15770  0.70600  0.70830  Biso   1.000  C
  C19      1.0000 0.88920  0.29760  0.21700  Biso   1.000  C
  C20      1.0000 0.11080  0.70240  0.78300  Biso   1.000  C
  C21      1.0000 0.29590  0.40850  0.41570  Biso   1.000  C
  C22      1.0000 0.70410  0.59150  0.58430  Biso   1.000  C
  C23      1.0000 0.29750  0.37480  0.35890  Biso   1.000  C
  C24      1.0000 0.70250  0.62520  0.64110  Biso   1.000  C
  C25      1.0000 0.35710  0.29640  0.35520  Biso   1.000  C
  C26      1.0000 0.64290  0.70360  0.64480  Biso   1.000  C
  H5       1.0000 0.40650  0.24430  0.39320  Biso   1.000  H
  H6       1.0000 0.59350  0.75570  0.60680  Biso   1.000  H
  C27      1.0000 0.32840  0.31130  0.28340  Biso   1.000  C
  C28      1.0000 0.67160  0.68870  0.71660  Biso   1.000  C
  C29      1.0000 0.37380  0.25400  0.24470  Biso   1.000  C
  C30      1.0000 0.62620  0.74600  0.75530  Biso   1.000  C
  C31      1.0000 0.09820  0.72340  0.22270  Biso   1.000  C
  C32      1.0000 0.90180  0.27660  0.77730  Biso   1.000  C
  C33      1.0000 0.13420  0.69260  0.16270  Biso   1.000  C
  C34      1.0000 0.86580  0.30740  0.83730  Biso   1.000  C
  C35      1.0000 0.16710  0.72580  0.08690  Biso   1.000  C
  C36      1.0000 0.83290  0.27420  0.91310  Biso   1.000  C
  H7       1.0000 0.16360  0.78430  0.05440  Biso   1.000  H
  H8       1.0000 0.83640  0.21570  0.94560  Biso   1.000  H
  C37      1.0000 0.20610  0.65400  0.06950  Biso   1.000  C
  C38      1.0000 0.79390  0.34600  0.93050  Biso   1.000  C
  C39      1.0000 0.27290  0.64460  0.00170  Biso   1.000  C
  C40      1.0000 0.72710  0.35540  0.99830  Biso   1.000  C
  C41      1.0000 0.76570  0.05850  0.17520  Biso   1.000  C
  C42      1.0000 0.23430  0.94150  0.82480  Biso   1.000  C
  C43      1.0000 0.74000  0.03900  0.11150  Biso   1.000  C
  C44      1.0000 0.26000  0.96100  0.88850  Biso   1.000  C
  C45      1.0000 0.81890  0.97310  0.08920  Biso   1.000  C
  C46      1.0000 0.18110  0.02690  0.91080  Biso   1.000  C
  H9       1.0000 0.90070  0.92210  0.11570  Biso   1.000  H
  H10      1.0000 0.09930  0.07790  0.88430  Biso   1.000  H
  C47      1.0000 0.75040  0.99940  0.02000  Biso   1.000  C
  C48      1.0000 0.24960  0.00060  0.98000  Biso   1.000  C
  C49      1.0000 0.77150  0.96610  0.96100  Biso   1.000  C
  C50      1.0000 0.22850  0.03390  0.03900  Biso   1.000  C
  C51      1.0000 0.21560  0.40080  0.96290  Biso   1.000  C
  C52      1.0000 0.78440  0.59920  0.03710  Biso   1.000  C
  C53      1.0000 0.28830  0.34840  0.91960  Biso   1.000  C
  C54      1.0000 0.71170  0.65160  0.08040  Biso   1.000  C
  C55      1.0000 0.28190  0.36800  0.84450  Biso   1.000  C
  C56      1.0000 0.71810  0.63200  0.15550  Biso   1.000  C
  H11      1.0000 0.23390  0.42060  0.80670  Biso   1.000  H
  H12      1.0000 0.76610  0.57940  0.19330  Biso   1.000  H
  C57      1.0000 0.36380  0.29110  0.83900  Biso   1.000  C
  C58      1.0000 0.63620  0.70890  0.16100  Biso   1.000  C
  C59      1.0000 0.40950  0.26040  0.77940  Biso   1.000  C
  C60      1.0000 0.59050  0.73960  0.22060  Biso   1.000  C
  N1       1.0000 0.76320  0.05110  0.49420  Biso   1.000  N
  N2       1.0000 0.23680  0.94890  0.50580  Biso   1.000  N
  N3       1.0000 0.71770  0.03260  0.43910  Biso   1.000  N
  N4       1.0000 0.28230  0.96740  0.56090  Biso   1.000  N
  N5       1.0000 0.77940  0.22880  0.40750  Biso   1.000  N
  N6       1.0000 0.22060  0.77120  0.59250  Biso   1.000  N
  N7       1.0000 0.80550  0.21640  0.34530  Biso   1.000  N
  N8       1.0000 0.19450  0.78360  0.65470  Biso   1.000  N
  N9       1.0000 0.24030  0.43270  0.29270  Biso   1.000  N
  N10      1.0000 0.75970  0.56730  0.70730  Biso   1.000  N
  N11      1.0000 0.25930  0.39490  0.24480  Biso   1.000  N
  N12      1.0000 0.74070  0.60510  0.75520  Biso   1.000  N
  N13      1.0000 0.15740  0.60450  0.18760  Biso   1.000  N
  N14      1.0000 0.84260  0.39550  0.81240  Biso   1.000  N
  N15      1.0000 0.20080  0.58130  0.13040  Biso   1.000  N
  N16      1.0000 0.79920  0.41870  0.86960  Biso   1.000  N
  N17      1.0000 0.63060  0.10130  0.05740  Biso   1.000  N
  N18      1.0000 0.36940  0.89870  0.94260  Biso   1.000  N
  N19      1.0000 0.63920  0.07540  0.00170  Biso   1.000  N
  N20      1.0000 0.36080  0.92460  0.99830  Biso   1.000  N
  N21      1.0000 0.36720  0.26610  0.95590  Biso   1.000  N
  N22      1.0000 0.63280  0.73390  0.04410  Biso   1.000  N
  N23      1.0000 0.41490  0.23200  0.90580  Biso   1.000  N
  N24      1.0000 0.58510  0.76800  0.09420  Biso   1.000  N
  O1       1.0000 0.82740  0.07580  0.60840  Biso   1.000  O
  O2       1.0000 0.17260  0.92420  0.39160  Biso   1.000  O
  O3       1.0000 0.91200  0.93710  0.67480  Biso   1.000  O
  O4       1.0000 0.08800  0.06290  0.32520  Biso   1.000  O
  O5       1.0000 0.63810  0.96350  0.35060  Biso   1.000  O
  O6       1.0000 0.36190  0.03650  0.64940  Biso   1.000  O
  O7       1.0000 0.60030  0.83800  0.44350  Biso   1.000  O
  O8       1.0000 0.39970  0.16200  0.55650  Biso   1.000  O
  O9       1.0000 0.71880  0.26590  0.52160  Biso   1.000  O
  O10      1.0000 0.28120  0.73410  0.47840  Biso   1.000  O
  O11      1.0000 0.78020  0.40140  0.46010  Biso   1.000  O
  O12      1.0000 0.21980  0.59860  0.53990  Biso   1.000  O
  O13      1.0000 0.88160  0.22840  0.20870  Biso   1.000  O
  O14      1.0000 0.11840  0.77160  0.79130  Biso   1.000  O
  O15      1.0000 0.93360  0.36490  0.16810  Biso   1.000  O
  O16      1.0000 0.06640  0.63510  0.83190  Biso   1.000  O
  O17      1.0000 0.23850  0.48970  0.39620  Biso   1.000  O
  O18      1.0000 0.76150  0.51030  0.60380  Biso   1.000  O
  O19      1.0000 0.34170  0.35990  0.47960  Biso   1.000  O
  O20      1.0000 0.65830  0.64010  0.52040  Biso   1.000  O
  O21      1.0000 0.33190  0.28190  0.17670  Biso   1.000  O
  O22      1.0000 0.66810  0.71810  0.82330  Biso   1.000  O
  O23      1.0000 0.45020  0.17820  0.28180  Biso   1.000  O
  O24      1.0000 0.54980  0.82180  0.71820  Biso   1.000  O
  O25      1.0000 0.12120  0.66410  0.28800  Biso   1.000  O
  O26      1.0000 0.87880  0.33590  0.71200  Biso   1.000  O
  O27      1.0000 0.04800  0.79970  0.20970  Biso   1.000  O
  O28      1.0000 0.95200  0.20030  0.79030  Biso   1.000  O
  O29      1.0000 0.27380  0.56840  0.00210  Biso   1.000  O
  O30      1.0000 0.72620  0.43160  0.99790  Biso   1.000  O
  O31      1.0000 0.33420  0.70470  0.94830  Biso   1.000  O
  O32      1.0000 0.66580  0.29530  0.05170  Biso   1.000  O
  O33      1.0000 0.66600  0.12780  0.17600  Biso   1.000  O
  O34      1.0000 0.33400  0.87220  0.82400  Biso   1.000  O
  O35      1.0000 0.87780  0.01330  0.22530  Biso   1.000  O
  O36      1.0000 0.12220  0.98670  0.77470  Biso   1.000  O
  O37      1.0000 0.69980  0.02160  0.89850  Biso   1.000  O
  O38      1.0000 0.30020  0.97840  0.10150  Biso   1.000  O
  O39      1.0000 0.85710  0.89490  0.96970  Biso   1.000  O
  O40      1.0000 0.14290  0.10510  0.03030  Biso   1.000  O
  O41      1.0000 0.26950  0.37270  0.02880  Biso   1.000  O
  O42      1.0000 0.73050  0.62730  0.97120  Biso   1.000  O
  O43      1.0000 0.10890  0.46930  0.93290  Biso   1.000  O
  O44      1.0000 0.89110  0.53070  0.06710  Biso   1.000  O
  O45      1.0000 0.49560  0.18270  0.80010  Biso   1.000  O
  O46      1.0000 0.50440  0.81730  0.19990  Biso   1.000  O
  O47      1.0000 0.37130  0.30470  0.71400  Biso   1.000  O
  O48      1.0000 0.62870  0.69530  0.28600  Biso   1.000  O
  O49      1.0000 0.84420  0.53330  0.32480  Biso   1.000  O
  O50      1.0000 0.15580  0.46670  0.67520  Biso   1.000  O
  H13      1.0000 0.84470  0.49590  0.36830  Biso   1.000  H
  H14      1.0000 0.15530  0.50410  0.63170  Biso   1.000  H
  H15      1.0000 0.79790  0.58400  0.31740  Biso   1.000  H
  H16      1.0000 0.20210  0.41600  0.68260  Biso   1.000  H
  O51      1.0000 0.52860  0.44160  0.11460  Biso   1.000  O
  O52      1.0000 0.47140  0.55840  0.88540  Biso   1.000  O
  H17      1.0000 0.55800  0.49230  0.09440  Biso   1.000  H
  H18      1.0000 0.44200  0.50770  0.90560  Biso   1.000  H
  H19      1.0000 0.58620  0.41200  0.09150  Biso   1.000  H
  H20      1.0000 0.41380  0.58800  0.90850  Biso   1.000  H
  O53      1.0000 0.30840  0.07660  0.18170  Biso   1.000  O
  O54      1.0000 0.69160  0.92340  0.81830  Biso   1.000  O
  H21      1.0000 0.23750  0.06900  0.21610  Biso   1.000  H
  H22      1.0000 0.76250  0.93100  0.78390  Biso   1.000  H
  H23      1.0000 0.26970  0.04630  0.15790  Biso   1.000  H
  H24      1.0000 0.73030  0.95370  0.84210  Biso   1.000  H
  O55      1.0000 0.07240  0.22780  0.08260  Biso   1.000  O
  O56      1.0000 0.92760  0.77220  0.91740  Biso   1.000  O
  H25      1.0000 0.01550  0.22500  0.12300  Biso   1.000  H
  H26      1.0000 0.98450  0.77500  0.87700  Biso   1.000  H
  H27      1.0000 0.05190  0.18620  0.07260  Biso   1.000  H
  H28      1.0000 0.94810  0.81380  0.92740  Biso   1.000  H
  O57      1.0000 0.66020  0.17810  0.67620  Biso   1.000  O
  O58      1.0000 0.33980  0.82190  0.32380  Biso   1.000  O
  H29      1.0000 0.64460  0.16520  0.72150  Biso   1.000  H
  H30      1.0000 0.35540  0.83480  0.27850  Biso   1.000  H
  H31      1.0000 0.73860  0.14150  0.66590  Biso   1.000  H
  H32      1.0000 0.26140  0.85850  0.33410  Biso   1.000  H
  O59      1.0000 0.20690  0.17200  0.68800  Biso   1.000  O
  O60      1.0000 0.79310  0.82800  0.31200  Biso   1.000  O
  H33      1.0000 0.21480  0.12040  0.69340  Biso   1.000  H
  H34      1.0000 0.78520  0.87960  0.30660  Biso   1.000  H
  H35      1.0000 0.14240  0.18700  0.71870  Biso   1.000  H
  H36      1.0000 0.85760  0.81300  0.28130  Biso   1.000  H
  O61      1.0000 0.08570  0.34230  0.59280  Biso   1.000  O
  O62      1.0000 0.91430  0.65770  0.40720  Biso   1.000  O
  H37      1.0000 0.03110  0.37960  0.55530  Biso   1.000  H
  H38      1.0000 0.96890  0.62040  0.44470  Biso   1.000  H
  H39      1.0000 0.01060  0.33910  0.62910  Biso   1.000  H
  H40      1.0000 0.98940  0.66090  0.37090  Biso   1.000  H
  O63      1.0000 0.54330  0.40030  0.57740  Biso   1.000  O
  O64      1.0000 0.45670  0.59970  0.42260  Biso   1.000  O
  H41      1.0000 0.61080  0.41490  0.53770  Biso   1.000  H
  H42      1.0000 0.38920  0.58510  0.46230  Biso   1.000  H
  H43      1.0000 0.59910  0.42590  0.59710  Biso   1.000  H
  H44      1.0000 0.40090  0.57410  0.40290  Biso   1.000  H
