data_image0
_cell_length_a       6.9992
_cell_length_b       17.1837
_cell_length_c       19.8953
_cell_angle_alpha    66.216
_cell_angle_beta     84.592
_cell_angle_gamma    81.006

_symmetry_space_group_name_H-M    "P 1"
_symmetry_int_tables_number       1

loop_
  _symmetry_equiv_pos_as_xyz
  'x, y, z'

loop_
  _atom_site_label
  _atom_site_occupancy
  _atom_site_fract_x
  _atom_site_fract_y
  _atom_site_fract_z
  _atom_site_thermal_displace_type
  _atom_site_B_iso_or_equiv
  _atom_site_type_symbol
  Gd1      1.0000 0.75929  0.10286  0.29891  Biso   1.000  Gd
  Gd2      1.0000 0.24071  0.89714  0.70109  Biso   1.000  Gd
  Gd3      1.0000 0.18807  0.44609  0.11126  Biso   1.000  Gd
  Gd4      1.0000 0.81193  0.55391  0.88874  Biso   1.000  Gd
  Gd5      1.0000 0.41623  0.21387  0.09141  Biso   1.000  Gd
  Gd6      1.0000 0.58377  0.78613  0.90859  Biso   1.000  Gd
  Gd7      1.0000 0.40548  0.27101  0.60260  Biso   1.000  Gd
  Gd8      1.0000 0.59452  0.72899  0.39740  Biso   1.000  Gd
  Cu1      1.0000 0.75210  0.15590  0.50813  Biso   1.000  Cu
  Cu2      1.0000 0.24790  0.84410  0.49187  Biso   1.000  Cu
  Cu3      1.0000 0.15745  0.54556  0.29178  Biso   1.000  Cu
  Cu4      1.0000 0.84255  0.45444  0.70822  Biso   1.000  Cu
  Cu5      1.0000 0.55263  0.12591  0.90476  Biso   1.000  Cu
  Cu6      1.0000 0.44737  0.87409  0.09524  Biso   1.000  Cu
  C1       1.0000 0.84520  0.99680  0.61810  Biso   1.000  C
  C2       1.0000 0.15480  0.00320  0.38190  Biso   1.000  C
  C3       1.0000 0.79150  0.98020  0.55530  Biso   1.000  C
  C4       1.0000 0.20850  0.01980  0.44470  Biso   1.000  C
  C5       1.0000 0.76420  0.91100  0.54070  Biso   1.000  C
  C6       1.0000 0.23580  0.08900  0.45930  Biso   1.000  C
  H1       1.0000 0.77650  0.85220  0.57330  Biso   1.000  H
  H2       1.0000 0.22350  0.14780  0.42670  Biso   1.000  H
  C7       1.0000 0.71410  0.94710  0.46700  Biso   1.000  C
  C8       1.0000 0.28590  0.05290  0.53300  Biso   1.000  C
  C9       1.0000 0.64990  0.91350  0.41700  Biso   1.000  C
  C10      1.0000 0.35010  0.08650  0.58300  Biso   1.000  C
  C11      1.0000 0.76300  0.33060  0.46140  Biso   1.000  C
  C12      1.0000 0.23700  0.66940  0.53860  Biso   1.000  C
  C13      1.0000 0.79420  0.31020  0.39560  Biso   1.000  C
  C14      1.0000 0.20580  0.68980  0.60440  Biso   1.000  C
  C15      1.0000 0.83440  0.35540  0.32120  Biso   1.000  C
  C16      1.0000 0.16560  0.64460  0.67880  Biso   1.000  C
  H3       1.0000 0.85180  0.41410  0.29620  Biso   1.000  H
  H4       1.0000 0.14820  0.58590  0.70380  Biso   1.000  H
  C17      1.0000 0.84270  0.29350  0.29220  Biso   1.000  C
  C18      1.0000 0.15730  0.70650  0.70780  Biso   1.000  C
  C19      1.0000 0.89190  0.29630  0.21760  Biso   1.000  C
  C20      1.0000 0.10810  0.70370  0.78240  Biso   1.000  C
  C21      1.0000 0.29230  0.40870  0.41700  Biso   1.000  C
  C22      1.0000 0.70770  0.59130  0.58300  Biso   1.000  C
  C23      1.0000 0.29750  0.37470  0.35930  Biso   1.000  C
  C24      1.0000 0.70250  0.62530  0.64070  Biso   1.000  C
  C25      1.0000 0.35800  0.29580  0.35630  Biso   1.000  C
  C26      1.0000 0.64200  0.70420  0.64370  Biso   1.000  C
  H5       1.0000 0.40680  0.24370  0.39470  Biso   1.000  H
  H6       1.0000 0.59320  0.75630  0.60530  Biso   1.000  H
  C27      1.0000 0.33030  0.31090  0.28310  Biso   1.000  C
  C28      1.0000 0.66970  0.68910  0.71690  Biso   1.000  C
  C29      1.0000 0.37520  0.25280  0.24490  Biso   1.000  C
  C30      1.0000 0.62480  0.74720  0.75510  Biso   1.000  C
  C31      1.0000 0.10100  0.72310  0.22230  Biso   1.000  C
  C32      1.0000 0.89900  0.27690  0.77770  Biso   1.000  C
  C33      1.0000 0.13920  0.69060  0.16280  Biso   1.000  C
  C34      1.0000 0.86080  0.30940  0.83720  Biso   1.000  C
  C35      1.0000 0.16720  0.72480  0.08750  Biso   1.000  C
  C36      1.0000 0.83280  0.27520  0.91250  Biso   1.000  C
  H7       1.0000 0.16100  0.78360  0.05530  Biso   1.000  H
  H8       1.0000 0.83900  0.21640  0.94470  Biso   1.000  H
  C37      1.0000 0.20660  0.65390  0.06970  Biso   1.000  C
  C38      1.0000 0.79340  0.34610  0.93030  Biso   1.000  C
  C39      1.0000 0.27350  0.64310  0.00150  Biso   1.000  C
  C40      1.0000 0.72650  0.35690  0.99850  Biso   1.000  C
  C41      1.0000 0.76670  0.05950  0.17470  Biso   1.000  C
  C42      1.0000 0.23330  0.94050  0.82530  Biso   1.000  C
  C43      1.0000 0.73980  0.04000  0.11100  Biso   1.000  C
  C44      1.0000 0.26020  0.96000  0.88900  Biso   1.000  C
  C45      1.0000 0.81880  0.97290  0.09080  Biso   1.000  C
  C46      1.0000 0.18120  0.02710  0.90920  Biso   1.000  C
  H9       1.0000 0.89980  0.92200  0.11810  Biso   1.000  H
  H10      1.0000 0.10020  0.07800  0.88190  Biso   1.000  H
  C47      1.0000 0.74950  0.99900  0.02050  Biso   1.000  C
  C48      1.0000 0.25050  0.00100  0.97950  Biso   1.000  C
  C49      1.0000 0.77520  0.96640  0.96120  Biso   1.000  C
  C50      1.0000 0.22480  0.03360  0.03880  Biso   1.000  C
  C51      1.0000 0.21420  0.40100  0.96250  Biso   1.000  C
  C52      1.0000 0.78580  0.59900  0.03750  Biso   1.000  C
  C53      1.0000 0.28570  0.34830  0.92050  Biso   1.000  C
  C54      1.0000 0.71430  0.65170  0.07950  Biso   1.000  C
  C55      1.0000 0.28120  0.36750  0.84510  Biso   1.000  C
  C56      1.0000 0.71880  0.63250  0.15490  Biso   1.000  C
  H11      1.0000 0.23300  0.42000  0.80710  Biso   1.000  H
  H12      1.0000 0.76700  0.58000  0.19290  Biso   1.000  H
  C57      1.0000 0.36390  0.29180  0.83920  Biso   1.000  C
  C58      1.0000 0.63610  0.70820  0.16080  Biso   1.000  C
  C59      1.0000 0.41020  0.25960  0.77970  Biso   1.000  C
  C60      1.0000 0.58980  0.74040  0.22030  Biso   1.000  C
  N1       1.0000 0.76110  0.05240  0.49330  Biso   1.000  N
  N2       1.0000 0.23890  0.94760  0.50670  Biso   1.000  N
  N3       1.0000 0.71750  0.03310  0.43900  Biso   1.000  N
  N4       1.0000 0.28250  0.96690  0.56100  Biso   1.000  N
  N5       1.0000 0.77780  0.22880  0.40750  Biso   1.000  N
  N6       1.0000 0.22220  0.77120  0.59250  Biso   1.000  N
  N7       1.0000 0.80880  0.21670  0.34470  Biso   1.000  N
  N8       1.0000 0.19120  0.78330  0.65530  Biso   1.000  N
  N9       1.0000 0.23840  0.43270  0.29250  Biso   1.000  N
  N10      1.0000 0.76160  0.56730  0.70750  Biso   1.000  N
  N11      1.0000 0.25830  0.39430  0.24540  Biso   1.000  N
  N12      1.0000 0.74170  0.60570  0.75460  Biso   1.000  N
  N13      1.0000 0.15850  0.60420  0.18770  Biso   1.000  N
  N14      1.0000 0.84150  0.39580  0.81230  Biso   1.000  N
  N15      1.0000 0.19870  0.58000  0.13150  Biso   1.000  N
  N16      1.0000 0.80130  0.42000  0.86850  Biso   1.000  N
  N17      1.0000 0.62740  0.10160  0.05860  Biso   1.000  N
  N18      1.0000 0.37260  0.89840  0.94140  Biso   1.000  N
  N19      1.0000 0.63710  0.07560  0.00320  Biso   1.000  N
  N20      1.0000 0.36290  0.92440  0.99680  Biso   1.000  N
  N21      1.0000 0.36940  0.26550  0.95660  Biso   1.000  N
  N22      1.0000 0.63060  0.73450  0.04340  Biso   1.000  N
  N23      1.0000 0.41260  0.23190  0.90660  Biso   1.000  N
  N24      1.0000 0.58740  0.76810  0.09340  Biso   1.000  N
  O1       1.0000 0.82610  0.07500  0.60874  Biso   1.000  O
  O2       1.0000 0.17390  0.92500  0.39126  Biso   1.000  O
  O3       1.0000 0.91140  0.93550  0.67530  Biso   1.000  O
  O4       1.0000 0.08860  0.06450  0.32470  Biso   1.000  O
  O5       1.0000 0.63870  0.96450  0.35000  Biso   1.000  O
  O6       1.0000 0.36130  0.03550  0.65000  Biso   1.000  O
  O7       1.0000 0.60050  0.83800  0.44253  Biso   1.000  O
  O8       1.0000 0.39950  0.16200  0.55747  Biso   1.000  O
  O9       1.0000 0.71920  0.26470  0.52210  Biso   1.000  O
  O10      1.0000 0.28080  0.73530  0.47790  Biso   1.000  O
  O11      1.0000 0.77880  0.40110  0.46050  Biso   1.000  O
  O12      1.0000 0.22120  0.59890  0.53950  Biso   1.000  O
  O13      1.0000 0.88280  0.22830  0.20821  Biso   1.000  O
  O14      1.0000 0.11720  0.77170  0.79179  Biso   1.000  O
  O15      1.0000 0.93680  0.36510  0.16738  Biso   1.000  O
  O16      1.0000 0.06320  0.63490  0.83262  Biso   1.000  O
  O17      1.0000 0.23740  0.48900  0.39695  Biso   1.000  O
  O18      1.0000 0.76260  0.51100  0.60305  Biso   1.000  O
  O19      1.0000 0.34100  0.35900  0.48011  Biso   1.000  O
  O20      1.0000 0.65900  0.64100  0.51989  Biso   1.000  O
  O21      1.0000 0.33360  0.28150  0.17779  Biso   1.000  O
  O22      1.0000 0.66640  0.71850  0.82221  Biso   1.000  O
  O23      1.0000 0.45240  0.17750  0.28144  Biso   1.000  O
  O24      1.0000 0.54760  0.82250  0.71856  Biso   1.000  O
  O25      1.0000 0.12480  0.66380  0.28796  Biso   1.000  O
  O26      1.0000 0.87520  0.33620  0.71204  Biso   1.000  O
  O27      1.0000 0.04960  0.80020  0.20873  Biso   1.000  O
  O28      1.0000 0.95040  0.19980  0.79127  Biso   1.000  O
  O29      1.0000 0.27420  0.56840  0.00209  Biso   1.000  O
  O30      1.0000 0.72580  0.43160  0.99791  Biso   1.000  O
  O31      1.0000 0.33390  0.70430  0.94812  Biso   1.000  O
  O32      1.0000 0.66610  0.29570  0.05188  Biso   1.000  O
  O33      1.0000 0.66630  0.12860  0.17671  Biso   1.000  O
  O34      1.0000 0.33370  0.87140  0.82329  Biso   1.000  O
  O35      1.0000 0.87980  0.01480  0.22507  Biso   1.000  O
  O36      1.0000 0.12020  0.98520  0.77493  Biso   1.000  O
  O37      1.0000 0.69940  0.02050  0.89932  Biso   1.000  O
  O38      1.0000 0.30060  0.97950  0.10068  Biso   1.000  O
  O39      1.0000 0.85990  0.89470  0.97139  Biso   1.000  O
  O40      1.0000 0.14010  0.10530  0.02861  Biso   1.000  O
  O41      1.0000 0.26910  0.37280  0.02946  Biso   1.000  O
  O42      1.0000 0.73090  0.62720  0.97054  Biso   1.000  O
  O43      1.0000 0.10550  0.46980  0.93322  Biso   1.000  O
  O44      1.0000 0.89450  0.53020  0.06678  Biso   1.000  O
  O45      1.0000 0.49490  0.18190  0.80090  Biso   1.000  O
  O46      1.0000 0.50510  0.81810  0.19910  Biso   1.000  O
  O47      1.0000 0.36930  0.30430  0.71357  Biso   1.000  O
  O48      1.0000 0.63070  0.69570  0.28643  Biso   1.000  O
  O49      1.0000 0.84360  0.53370  0.32472  Biso   1.000  O
  O50      1.0000 0.15640  0.46630  0.67528  Biso   1.000  O
  H13      1.0000 0.84400  0.49630  0.36830  Biso   1.000  H
  H14      1.0000 0.15600  0.50370  0.63170  Biso   1.000  H
  H15      1.0000 0.79730  0.58440  0.31730  Biso   1.000  H
  H16      1.0000 0.20270  0.41560  0.68270  Biso   1.000  H
  O51      1.0000 0.52800  0.44190  0.11490  Biso   1.000  O
  O52      1.0000 0.47200  0.55810  0.88510  Biso   1.000  O
  H17      1.0000 0.55740  0.49260  0.09470  Biso   1.000  H
  H18      1.0000 0.44260  0.50740  0.90530  Biso   1.000  H
  H19      1.0000 0.58560  0.41220  0.09180  Biso   1.000  H
  H20      1.0000 0.41440  0.58780  0.90820  Biso   1.000  H
  O53      1.0000 0.30740  0.07780  0.18034  Biso   1.000  O
  O54      1.0000 0.69260  0.92220  0.81966  Biso   1.000  O
  H21      1.0000 0.23640  0.07020  0.21480  Biso   1.000  H
  H22      1.0000 0.76360  0.92980  0.78520  Biso   1.000  H
  H23      1.0000 0.26860  0.04740  0.15660  Biso   1.000  H
  H24      1.0000 0.73140  0.95260  0.84340  Biso   1.000  H
  O55      1.0000 0.07520  0.22780  0.08178  Biso   1.000  O
  O56      1.0000 0.92480  0.77220  0.91822  Biso   1.000  O
  H25      1.0000 0.01840  0.22500  0.12220  Biso   1.000  H
  H26      1.0000 0.98160  0.77500  0.87780  Biso   1.000  H
  H27      1.0000 0.05480  0.18630  0.07180  Biso   1.000  H
  H28      1.0000 0.94520  0.81370  0.92820  Biso   1.000  H
  O57      1.0000 0.65620  0.17810  0.67640  Biso   1.000  O
  O58      1.0000 0.34380  0.82190  0.32360  Biso   1.000  O
  H29      1.0000 0.64060  0.16520  0.72160  Biso   1.000  H
  H30      1.0000 0.35940  0.83480  0.27840  Biso   1.000  H
  H31      1.0000 0.73460  0.14150  0.66600  Biso   1.000  H
  H32      1.0000 0.26540  0.85850  0.33400  Biso   1.000  H
  O59      1.0000 0.20670  0.17180  0.68900  Biso   1.000  O
  O60      1.0000 0.79330  0.82820  0.31100  Biso   1.000  O
  H33      1.0000 0.21460  0.12020  0.69440  Biso   1.000  H
  H34      1.0000 0.78540  0.87980  0.30560  Biso   1.000  H
  H35      1.0000 0.14220  0.18680  0.71970  Biso   1.000  H
  H36      1.0000 0.85780  0.81320  0.28030  Biso   1.000  H
  O61      1.0000 0.08440  0.34110  0.59400  Biso   1.000  O
  O62      1.0000 0.91560  0.65890  0.40600  Biso   1.000  O
  H37      1.0000 0.02980  0.37840  0.55660  Biso   1.000  H
  H38      1.0000 0.97020  0.62160  0.44340  Biso   1.000  H
  H39      1.0000 0.00930  0.33800  0.63030  Biso   1.000  H
  H40      1.0000 0.99070  0.66200  0.36970  Biso   1.000  H
  O63      1.0000 0.54190  0.39850  0.57890  Biso   1.000  O
  O64      1.0000 0.45810  0.60150  0.42110  Biso   1.000  O
  H41      1.0000 0.60950  0.41310  0.53920  Biso   1.000  H
  H42      1.0000 0.39050  0.58690  0.46080  Biso   1.000  H
  H43      1.0000 0.59780  0.42410  0.59860  Biso   1.000  H
  H44      1.0000 0.40220  0.57590  0.40140  Biso   1.000  H
