data_image0
_cell_length_a       8.413
_cell_length_b       5.334
_cell_length_c       13.284
_cell_angle_alpha    90
_cell_angle_beta     97.52
_cell_angle_gamma    90

_symmetry_space_group_name_H-M    "P 1"
_symmetry_int_tables_number       1

loop_
  _symmetry_equiv_pos_as_xyz
  'x, y, z'

loop_
  _atom_site_label
  _atom_site_occupancy
  _atom_site_fract_x
  _atom_site_fract_y
  _atom_site_fract_z
  _atom_site_thermal_displace_type
  _atom_site_B_iso_or_equiv
  _atom_site_type_symbol
  Cu1      1.0000 0.95571  0.37199  0.86590  Biso   1.000  Cu
  Cu2      1.0000 0.04429  0.87199  0.13410  Biso   1.000  Cu
  C1       1.0000 0.18540  0.70160  0.97940  Biso   1.000  C
  C2       1.0000 0.81460  0.20160  0.02060  Biso   1.000  C
  C3       1.0000 0.27310  0.48710  0.82600  Biso   1.000  C
  C4       1.0000 0.72690  0.98710  0.17400  Biso   1.000  C
  C5       1.0000 0.29820  0.67830  0.90290  Biso   1.000  C
  C6       1.0000 0.70180  0.17830  0.09710  Biso   1.000  C
  C7       1.0000 0.43240  0.82620  0.91110  Biso   1.000  C
  C8       1.0000 0.56760  0.32620  0.08890  Biso   1.000  C
  H1       1.0000 0.44380  0.95560  0.95840  Biso   1.000  H
  H2       1.0000 0.55620  0.45560  0.04160  Biso   1.000  H
  C9       1.0000 0.55390  0.78520  0.84870  Biso   1.000  C
  C10      1.0000 0.44610  0.28520  0.15130  Biso   1.000  C
  H3       1.0000 0.64390  0.88800  0.85290  Biso   1.000  H
  H4       1.0000 0.35610  0.38800  0.14710  Biso   1.000  H
  C11      1.0000 0.53440  0.58930  0.78190  Biso   1.000  C
  C12      1.0000 0.46560  0.08930  0.21810  Biso   1.000  C
  H5       1.0000 0.61630  0.55020  0.74390  Biso   1.000  H
  H6       1.0000 0.38370  0.05020  0.25610  Biso   1.000  H
  C13      1.0000 0.38220  0.24720  0.69540  Biso   1.000  C
  C14      1.0000 0.61780  0.74720  0.30460  Biso   1.000  C
  H7       1.0000 0.31700  0.11560  0.71930  Biso   1.000  H
  H8       1.0000 0.68300  0.61560  0.28070  Biso   1.000  H
  H9       1.0000 0.48760  0.17750  0.69110  Biso   1.000  H
  H10      1.0000 0.51240  0.67750  0.30890  Biso   1.000  H
  C15      1.0000 0.30800  0.32650  0.59020  Biso   1.000  C
  C16      1.0000 0.69200  0.82650  0.40980  Biso   1.000  C
  C17      1.0000 0.19960  0.17070  0.53520  Biso   1.000  C
  C18      1.0000 0.80040  0.67070  0.46480  Biso   1.000  C
  H11      1.0000 0.16470  0.02820  0.56630  Biso   1.000  H
  H12      1.0000 0.83530  0.52820  0.43370  Biso   1.000  H
  C19      1.0000 0.14020  0.21910  0.43470  Biso   1.000  C
  C20      1.0000 0.85980  0.71910  0.56530  Biso   1.000  C
  H13      1.0000 0.07000  0.10790  0.39790  Biso   1.000  H
  H14      1.0000 0.93000  0.60790  0.60210  Biso   1.000  H
  C21      1.0000 0.18830  0.43780  0.39020  Biso   1.000  C
  C22      1.0000 0.81170  0.93780  0.60980  Biso   1.000  C
  C23      1.0000 0.29280  0.60110  0.44660  Biso   1.000  C
  C24      1.0000 0.70720  0.10110  0.55340  Biso   1.000  C
  H15      1.0000 0.32180  0.75060  0.41800  Biso   1.000  H
  H16      1.0000 0.67820  0.25060  0.58200  Biso   1.000  H
  C25      1.0000 0.35370  0.54180  0.54490  Biso   1.000  C
  C26      1.0000 0.64630  0.04180  0.45510  Biso   1.000  C
  H17      1.0000 0.42690  0.64940  0.58140  Biso   1.000  H
  H18      1.0000 0.57310  0.14940  0.41860  Biso   1.000  H
  C27      1.0000 0.12520  0.50150  0.27940  Biso   1.000  C
  C28      1.0000 0.87480  0.00150  0.72060  Biso   1.000  C
  N1       1.0000 0.39820  0.45080  0.77010  Biso   1.000  N
  N2       1.0000 0.60180  0.95080  0.22990  Biso   1.000  N
  O1       1.0000 0.05850  0.57530  0.97490  Biso   1.000  O
  O2       1.0000 0.94150  0.07530  0.02510  Biso   1.000  O
  O3       1.0000 0.22550  0.84950  0.05370  Biso   1.000  O
  O4       1.0000 0.77450  0.34950  0.94630  Biso   1.000  O
  O5       1.0000 0.15310  0.35160  0.80510  Biso   1.000  O
  O6       1.0000 0.84690  0.85160  0.19490  Biso   1.000  O
  O7       1.0000 0.04960  0.34560  0.22650  Biso   1.000  O
  O8       1.0000 0.95040  0.84560  0.77350  Biso   1.000  O
  O9       1.0000 0.16110  0.72150  0.25110  Biso   1.000  O
  O10      1.0000 0.83890  0.22150  0.74890  Biso   1.000  O
