data_image0
_cell_length_a       14.843
_cell_length_b       9.53
_cell_length_c       12.658
_cell_angle_alpha    90
_cell_angle_beta     103.631
_cell_angle_gamma    90

_symmetry_space_group_name_H-M    "P 1"
_symmetry_int_tables_number       1

loop_
  _symmetry_equiv_pos_as_xyz
  'x, y, z'

loop_
  _atom_site_label
  _atom_site_occupancy
  _atom_site_fract_x
  _atom_site_fract_y
  _atom_site_fract_z
  _atom_site_thermal_displace_type
  _atom_site_B_iso_or_equiv
  _atom_site_type_symbol
  Cu1      1.0000 0.81758  0.99441  0.48507  Biso   1.000  Cu
  Cu2      1.0000 0.18242  0.49441  0.01493  Biso   1.000  Cu
  Cu3      1.0000 0.18242  0.00559  0.51493  Biso   1.000  Cu
  Cu4      1.0000 0.81758  0.50559  0.98507  Biso   1.000  Cu
  C1       1.0000 0.34754  0.90790  0.56120  Biso   1.000  C
  C2       1.0000 0.65246  0.40790  0.93880  Biso   1.000  C
  C3       1.0000 0.65246  0.09210  0.43880  Biso   1.000  C
  C4       1.0000 0.34754  0.59210  0.06120  Biso   1.000  C
  C5       1.0000 0.43628  0.83220  0.56233  Biso   1.000  C
  C6       1.0000 0.56372  0.33220  0.93767  Biso   1.000  C
  C7       1.0000 0.56372  0.16780  0.43767  Biso   1.000  C
  C8       1.0000 0.43628  0.66780  0.06233  Biso   1.000  C
  C9       1.0000 0.48867  0.77740  0.65850  Biso   1.000  C
  C10      1.0000 0.51133  0.27740  0.84150  Biso   1.000  C
  C11      1.0000 0.51133  0.22260  0.34150  Biso   1.000  C
  C12      1.0000 0.48867  0.72260  0.15850  Biso   1.000  C
  H1       1.0000 0.47010  0.79210  0.72280  Biso   1.000  H
  H2       1.0000 0.52990  0.29210  0.77720  Biso   1.000  H
  H3       1.0000 0.52990  0.20790  0.27720  Biso   1.000  H
  H4       1.0000 0.47010  0.70790  0.22280  Biso   1.000  H
  C13      1.0000 0.56816  0.70120  0.66050  Biso   1.000  C
  C14      1.0000 0.43184  0.20120  0.83950  Biso   1.000  C
  C15      1.0000 0.43184  0.29880  0.33950  Biso   1.000  C
  C16      1.0000 0.56816  0.79880  0.16050  Biso   1.000  C
  H5       1.0000 0.60150  0.66320  0.72570  Biso   1.000  H
  H6       1.0000 0.39850  0.16320  0.77430  Biso   1.000  H
  H7       1.0000 0.39850  0.33680  0.27430  Biso   1.000  H
  H8       1.0000 0.60150  0.83680  0.22570  Biso   1.000  H
  C17      1.0000 0.59866  0.68070  0.56688  Biso   1.000  C
  C18      1.0000 0.40134  0.18070  0.93312  Biso   1.000  C
  C19      1.0000 0.40134  0.31930  0.43312  Biso   1.000  C
  C20      1.0000 0.59866  0.81930  0.06688  Biso   1.000  C
  C21      1.0000 0.54732  0.73730  0.47110  Biso   1.000  C
  C22      1.0000 0.45268  0.23730  0.02890  Biso   1.000  C
  C23      1.0000 0.45268  0.26270  0.52890  Biso   1.000  C
  C24      1.0000 0.54732  0.76270  0.97110  Biso   1.000  C
  H9       1.0000 0.56720  0.72580  0.40720  Biso   1.000  H
  H10      1.0000 0.43280  0.22580  0.09280  Biso   1.000  H
  H11      1.0000 0.43280  0.27420  0.59280  Biso   1.000  H
  H12      1.0000 0.56720  0.77420  0.90720  Biso   1.000  H
  C25      1.0000 0.46688  0.81100  0.46910  Biso   1.000  C
  C26      1.0000 0.53312  0.31100  0.03090  Biso   1.000  C
  C27      1.0000 0.53312  0.18900  0.53090  Biso   1.000  C
  C28      1.0000 0.46688  0.68900  0.96910  Biso   1.000  C
  H13      1.0000 0.43270  0.84690  0.40360  Biso   1.000  H
  H14      1.0000 0.56730  0.34690  0.09640  Biso   1.000  H
  H15      1.0000 0.56730  0.15310  0.59640  Biso   1.000  H
  H16      1.0000 0.43270  0.65310  0.90360  Biso   1.000  H
  C29      1.0000 0.68611  0.59640  0.57340  Biso   1.000  C
  C30      1.0000 0.31389  0.09640  0.92660  Biso   1.000  C
  C31      1.0000 0.31389  0.40360  0.42660  Biso   1.000  C
  C32      1.0000 0.68611  0.90360  0.07340  Biso   1.000  C
  H17      1.0000 0.73510  0.63470  0.63080  Biso   1.000  H
  H18      1.0000 0.26490  0.13470  0.86920  Biso   1.000  H
  H19      1.0000 0.26490  0.36530  0.36920  Biso   1.000  H
  H20      1.0000 0.73510  0.86530  0.13080  Biso   1.000  H
  H21      1.0000 0.67530  0.50050  0.59290  Biso   1.000  H
  H22      1.0000 0.32470  0.00050  0.90710  Biso   1.000  H
  H23      1.0000 0.32470  0.49950  0.40710  Biso   1.000  H
  H24      1.0000 0.67530  0.99950  0.09290  Biso   1.000  H
  C33      1.0000 0.69290  0.48740  0.39970  Biso   1.000  C
  C34      1.0000 0.30710  0.98740  0.10030  Biso   1.000  C
  C35      1.0000 0.30710  0.51260  0.60030  Biso   1.000  C
  C36      1.0000 0.69290  0.01260  0.89970  Biso   1.000  C
  H25      1.0000 0.65770  0.41390  0.41690  Biso   1.000  H
  H26      1.0000 0.34230  0.91390  0.08310  Biso   1.000  H
  H27      1.0000 0.34230  0.58610  0.58310  Biso   1.000  H
  H28      1.0000 0.65770  0.08610  0.91690  Biso   1.000  H
  C37      1.0000 0.71830  0.48510  0.30440  Biso   1.000  C
  C38      1.0000 0.28170  0.98510  0.19560  Biso   1.000  C
  C39      1.0000 0.28170  0.51490  0.69560  Biso   1.000  C
  C40      1.0000 0.71830  0.01490  0.80440  Biso   1.000  C
  H29      1.0000 0.69930  0.41260  0.25490  Biso   1.000  H
  H30      1.0000 0.30070  0.91260  0.24510  Biso   1.000  H
  H31      1.0000 0.30070  0.58740  0.74510  Biso   1.000  H
  H32      1.0000 0.69930  0.08740  0.75490  Biso   1.000  H
  C41      1.0000 0.77371  0.59320  0.28140  Biso   1.000  C
  C42      1.0000 0.22629  0.09320  0.21860  Biso   1.000  C
  C43      1.0000 0.22629  0.40680  0.71860  Biso   1.000  C
  C44      1.0000 0.77371  0.90680  0.78140  Biso   1.000  C
  H33      1.0000 0.79200  0.59200  0.21600  Biso   1.000  H
  H34      1.0000 0.20800  0.09200  0.28400  Biso   1.000  H
  H35      1.0000 0.20800  0.40800  0.78400  Biso   1.000  H
  H36      1.0000 0.79200  0.90800  0.71600  Biso   1.000  H
  C45      1.0000 0.80207  0.70160  0.35292  Biso   1.000  C
  C46      1.0000 0.19793  0.20160  0.14708  Biso   1.000  C
  C47      1.0000 0.19793  0.29840  0.64708  Biso   1.000  C
  C48      1.0000 0.80207  0.79840  0.85292  Biso   1.000  C
  C49      1.0000 0.76866  0.70830  0.44981  Biso   1.000  C
  C50      1.0000 0.23134  0.20830  0.05019  Biso   1.000  C
  C51      1.0000 0.23134  0.29170  0.55019  Biso   1.000  C
  C52      1.0000 0.76866  0.79170  0.94981  Biso   1.000  C
  C53      1.0000 0.87056  0.80750  0.32844  Biso   1.000  C
  C54      1.0000 0.12944  0.30750  0.17156  Biso   1.000  C
  C55      1.0000 0.12944  0.19250  0.67156  Biso   1.000  C
  C56      1.0000 0.87056  0.69250  0.82844  Biso   1.000  C
  C57      1.0000 0.87744  0.27220  0.56378  Biso   1.000  C
  C58      1.0000 0.12256  0.77220  0.93622  Biso   1.000  C
  C59      1.0000 0.12256  0.72780  0.43622  Biso   1.000  C
  C60      1.0000 0.87744  0.22780  0.06378  Biso   1.000  C
  H37      1.0000 0.84880  0.24640  0.61870  Biso   1.000  H
  H38      1.0000 0.15120  0.74640  0.88130  Biso   1.000  H
  H39      1.0000 0.15120  0.75360  0.38130  Biso   1.000  H
  H40      1.0000 0.84880  0.25360  0.11870  Biso   1.000  H
  C61      1.0000 0.92637  0.39580  0.57456  Biso   1.000  C
  C62      1.0000 0.07363  0.89580  0.92544  Biso   1.000  C
  C63      1.0000 0.07363  0.60420  0.42544  Biso   1.000  C
  C64      1.0000 0.92637  0.10420  0.07456  Biso   1.000  C
  H41      1.0000 0.92970  0.45220  0.63530  Biso   1.000  H
  H42      1.0000 0.07030  0.95220  0.86470  Biso   1.000  H
  H43      1.0000 0.07030  0.54780  0.36470  Biso   1.000  H
  H44      1.0000 0.92970  0.04780  0.13530  Biso   1.000  H
  C65      1.0000 0.97074  0.43620  0.49450  Biso   1.000  C
  C66      1.0000 0.02926  0.93620  0.00550  Biso   1.000  C
  C67      1.0000 0.02926  0.56380  0.50550  Biso   1.000  C
  C68      1.0000 0.97074  0.06380  0.99450  Biso   1.000  C
  C69      1.0000 0.95730  0.35140  0.40280  Biso   1.000  C
  C70      1.0000 0.04270  0.85140  0.09720  Biso   1.000  C
  C71      1.0000 0.04270  0.64860  0.59720  Biso   1.000  C
  C72      1.0000 0.95730  0.14860  0.90280  Biso   1.000  C
  H45      1.0000 0.98260  0.37660  0.34500  Biso   1.000  H
  H46      1.0000 0.01740  0.87660  0.15500  Biso   1.000  H
  H47      1.0000 0.01740  0.62340  0.65500  Biso   1.000  H
  H48      1.0000 0.98260  0.12340  0.84500  Biso   1.000  H
  C73      1.0000 0.90631  0.22980  0.39794  Biso   1.000  C
  C74      1.0000 0.09369  0.72980  0.10206  Biso   1.000  C
  C75      1.0000 0.09369  0.77020  0.60206  Biso   1.000  C
  C76      1.0000 0.90631  0.27020  0.89794  Biso   1.000  C
  H49      1.0000 0.89760  0.17500  0.33560  Biso   1.000  H
  H50      1.0000 0.10240  0.67500  0.16440  Biso   1.000  H
  H51      1.0000 0.10240  0.82500  0.66440  Biso   1.000  H
  H52      1.0000 0.89760  0.32500  0.83560  Biso   1.000  H
  N1       1.0000 0.71772  0.59525  0.47143  Biso   1.000  N
  N2       1.0000 0.28228  0.09525  0.02857  Biso   1.000  N
  N3       1.0000 0.28228  0.40475  0.52857  Biso   1.000  N
  N4       1.0000 0.71772  0.90475  0.97143  Biso   1.000  N
  N5       1.0000 0.86906  0.18706  0.47774  Biso   1.000  N
  N6       1.0000 0.13094  0.68706  0.02226  Biso   1.000  N
  N7       1.0000 0.13094  0.81294  0.52226  Biso   1.000  N
  N8       1.0000 0.86906  0.31294  0.97774  Biso   1.000  N
  O1       1.0000 0.33056  0.94800  0.64797  Biso   1.000  O
  O2       1.0000 0.66944  0.44800  0.85203  Biso   1.000  O
  O3       1.0000 0.66944  0.05200  0.35203  Biso   1.000  O
  O4       1.0000 0.33056  0.55200  0.14797  Biso   1.000  O
  O5       1.0000 0.29052  0.92444  0.46932  Biso   1.000  O
  O6       1.0000 0.70948  0.42444  0.03068  Biso   1.000  O
  O7       1.0000 0.70948  0.07556  0.53068  Biso   1.000  O
  O8       1.0000 0.29052  0.57556  0.96932  Biso   1.000  O
  O9       1.0000 0.90689  0.78305  0.25264  Biso   1.000  O
  O10      1.0000 0.09311  0.28305  0.24736  Biso   1.000  O
  O11      1.0000 0.09311  0.21695  0.74736  Biso   1.000  O
  O12      1.0000 0.90689  0.71695  0.75264  Biso   1.000  O
  O13      1.0000 0.89016  0.91716  0.38761  Biso   1.000  O
  O14      1.0000 0.10984  0.41716  0.11239  Biso   1.000  O
  O15      1.0000 0.10984  0.08284  0.61239  Biso   1.000  O
  O16      1.0000 0.89016  0.58284  0.88761  Biso   1.000  O
  O17      1.0000 0.78073  0.80653  0.51776  Biso   1.000  O
  O18      1.0000 0.21927  0.30653  0.98224  Biso   1.000  O
  O19      1.0000 0.21927  0.19347  0.48224  Biso   1.000  O
  O20      1.0000 0.78073  0.69347  0.01776  Biso   1.000  O
  O21      1.0000 0.93026  0.97930  0.64954  Biso   1.000  O
  O22      1.0000 0.06974  0.47930  0.85046  Biso   1.000  O
  O23      1.0000 0.06974  0.02070  0.35046  Biso   1.000  O
  O24      1.0000 0.93026  0.52070  0.14954  Biso   1.000  O
  H53      1.0000 0.93300  0.90800  0.67300  Biso   1.000  H
  H54      1.0000 0.06700  0.40800  0.82700  Biso   1.000  H
  H55      1.0000 0.06700  0.09200  0.32700  Biso   1.000  H
  H56      1.0000 0.93300  0.59200  0.17300  Biso   1.000  H
  H57      1.0000 0.97500  0.00200  0.64600  Biso   1.000  H
  H58      1.0000 0.02500  0.50200  0.85400  Biso   1.000  H
  H59      1.0000 0.02500  0.99800  0.35400  Biso   1.000  H
  H60      1.0000 0.97500  0.49800  0.14600  Biso   1.000  H
