data_image0
_cell_length_a       16.2119
_cell_length_b       10.9173
_cell_length_c       15.7225
_cell_angle_alpha    90
_cell_angle_beta     90
_cell_angle_gamma    90

_symmetry_space_group_name_H-M    "P 1"
_symmetry_int_tables_number       1

loop_
  _symmetry_equiv_pos_as_xyz
  'x, y, z'

loop_
  _atom_site_label
  _atom_site_occupancy
  _atom_site_fract_x
  _atom_site_fract_y
  _atom_site_fract_z
  _atom_site_thermal_displace_type
  _atom_site_B_iso_or_equiv
  _atom_site_type_symbol
  Cu1      1.0000 0.68156  0.77842  0.45261  Biso   1.000  Cu
  Cu2      1.0000 0.18156  0.72158  0.54739  Biso   1.000  Cu
  Cu3      1.0000 0.31844  0.77842  0.04739  Biso   1.000  Cu
  Cu4      1.0000 0.81844  0.72158  0.95261  Biso   1.000  Cu
  Cu5      1.0000 0.31844  0.22158  0.54739  Biso   1.000  Cu
  Cu6      1.0000 0.81844  0.27842  0.45261  Biso   1.000  Cu
  Cu7      1.0000 0.68156  0.22158  0.95261  Biso   1.000  Cu
  Cu8      1.0000 0.18156  0.27842  0.04739  Biso   1.000  Cu
  O1       1.0000 0.28618  0.81098  0.52267  Biso   1.000  O
  O2       1.0000 0.78618  0.68902  0.47733  Biso   1.000  O
  O3       1.0000 0.71382  0.81098  0.97733  Biso   1.000  O
  O4       1.0000 0.21382  0.68902  0.02267  Biso   1.000  O
  O5       1.0000 0.71382  0.18902  0.47733  Biso   1.000  O
  O6       1.0000 0.21382  0.31098  0.52267  Biso   1.000  O
  O7       1.0000 0.28618  0.18902  0.02267  Biso   1.000  O
  O8       1.0000 0.78618  0.31098  0.97733  Biso   1.000  O
  O9       1.0000 0.37921  0.67490  0.57081  Biso   1.000  O
  O10      1.0000 0.87921  0.82510  0.42919  Biso   1.000  O
  O11      1.0000 0.62079  0.67490  0.92919  Biso   1.000  O
  O12      1.0000 0.12079  0.82510  0.07081  Biso   1.000  O
  O13      1.0000 0.62079  0.32510  0.42919  Biso   1.000  O
  O14      1.0000 0.12079  0.17490  0.57081  Biso   1.000  O
  O15      1.0000 0.37921  0.32510  0.07081  Biso   1.000  O
  O16      1.0000 0.87921  0.17490  0.92919  Biso   1.000  O
  O17      1.0000 0.81288  0.65995  0.06797  Biso   1.000  O
  O18      1.0000 0.31288  0.84005  0.93203  Biso   1.000  O
  O19      1.0000 0.18712  0.65995  0.43203  Biso   1.000  O
  O20      1.0000 0.68712  0.84005  0.56797  Biso   1.000  O
  O21      1.0000 0.18712  0.34005  0.93203  Biso   1.000  O
  O22      1.0000 0.68712  0.15995  0.06797  Biso   1.000  O
  O23      1.0000 0.81288  0.34005  0.56797  Biso   1.000  O
  O24      1.0000 0.31288  0.15995  0.43203  Biso   1.000  O
  O25      1.0000 0.85990  0.80630  0.15591  Biso   1.000  O
  O26      1.0000 0.35990  0.69370  0.84409  Biso   1.000  O
  O27      1.0000 0.14010  0.80630  0.34409  Biso   1.000  O
  O28      1.0000 0.64010  0.69370  0.65591  Biso   1.000  O
  O29      1.0000 0.14010  0.19370  0.84409  Biso   1.000  O
  O30      1.0000 0.64010  0.30630  0.15591  Biso   1.000  O
  O31      1.0000 0.85990  0.19370  0.65591  Biso   1.000  O
  O32      1.0000 0.35990  0.30630  0.34409  Biso   1.000  O
  O33      1.0000 0.54834  0.53021  0.19328  Biso   1.000  O
  O34      1.0000 0.04834  0.96979  0.80672  Biso   1.000  O
  O35      1.0000 0.45166  0.53021  0.30672  Biso   1.000  O
  O36      1.0000 0.95166  0.96979  0.69328  Biso   1.000  O
  O37      1.0000 0.45166  0.46979  0.80672  Biso   1.000  O
  O38      1.0000 0.95166  0.03021  0.19328  Biso   1.000  O
  O39      1.0000 0.54834  0.46979  0.69328  Biso   1.000  O
  O40      1.0000 0.04834  0.03021  0.30672  Biso   1.000  O
  O41      1.0000 0.44085  0.03101  0.29431  Biso   1.000  O
  O42      1.0000 0.94085  0.46899  0.70569  Biso   1.000  O
  O43      1.0000 0.55915  0.03101  0.20569  Biso   1.000  O
  O44      1.0000 0.05915  0.46899  0.79431  Biso   1.000  O
  O45      1.0000 0.55915  0.96899  0.70569  Biso   1.000  O
  O46      1.0000 0.05915  0.53101  0.29431  Biso   1.000  O
  O47      1.0000 0.44085  0.96899  0.79431  Biso   1.000  O
  O48      1.0000 0.94085  0.53101  0.20569  Biso   1.000  O
  O49      1.0000 0.61165  0.57150  0.50372  Biso   1.000  O
  O50      1.0000 0.11165  0.92850  0.49628  Biso   1.000  O
  O51      1.0000 0.38835  0.57150  0.99628  Biso   1.000  O
  O52      1.0000 0.88835  0.92850  0.00372  Biso   1.000  O
  O53      1.0000 0.38835  0.42850  0.49628  Biso   1.000  O
  O54      1.0000 0.88835  0.07150  0.50372  Biso   1.000  O
  O55      1.0000 0.61165  0.42850  0.00372  Biso   1.000  O
  O56      1.0000 0.11165  0.07150  0.99628  Biso   1.000  O
  H1       1.0000 0.61470  0.50020  0.48150  Biso   1.000  H
  H2       1.0000 0.11470  0.99980  0.51850  Biso   1.000  H
  H3       1.0000 0.38530  0.50020  0.01850  Biso   1.000  H
  H4       1.0000 0.88530  0.99980  0.98150  Biso   1.000  H
  H5       1.0000 0.38530  0.49980  0.51850  Biso   1.000  H
  H6       1.0000 0.88530  0.00020  0.48150  Biso   1.000  H
  H7       1.0000 0.61470  0.49980  0.98150  Biso   1.000  H
  H8       1.0000 0.11470  0.00020  0.01850  Biso   1.000  H
  H9       1.0000 0.61120  0.58830  0.56200  Biso   1.000  H
  H10      1.0000 0.11120  0.91170  0.43800  Biso   1.000  H
  H11      1.0000 0.38880  0.58830  0.93800  Biso   1.000  H
  H12      1.0000 0.88880  0.91170  0.06200  Biso   1.000  H
  H13      1.0000 0.38880  0.41170  0.43800  Biso   1.000  H
  H14      1.0000 0.88880  0.08830  0.56200  Biso   1.000  H
  H15      1.0000 0.61120  0.41170  0.06200  Biso   1.000  H
  H16      1.0000 0.11120  0.08830  0.93800  Biso   1.000  H
  O57      1.0000 0.73697  0.95706  0.40145  Biso   1.000  O
  O58      1.0000 0.23697  0.54294  0.59855  Biso   1.000  O
  O59      1.0000 0.26303  0.95706  0.09855  Biso   1.000  O
  O60      1.0000 0.76303  0.54294  0.90145  Biso   1.000  O
  O61      1.0000 0.26303  0.04294  0.59855  Biso   1.000  O
  O62      1.0000 0.76303  0.45706  0.40145  Biso   1.000  O
  O63      1.0000 0.73697  0.04294  0.90145  Biso   1.000  O
  O64      1.0000 0.23697  0.45706  0.09855  Biso   1.000  O
  H17      1.0000 0.78230  0.92790  0.40690  Biso   1.000  H
  H18      1.0000 0.28230  0.57210  0.59310  Biso   1.000  H
  H19      1.0000 0.21770  0.92790  0.09310  Biso   1.000  H
  H20      1.0000 0.71770  0.57210  0.90690  Biso   1.000  H
  H21      1.0000 0.21770  0.07210  0.59310  Biso   1.000  H
  H22      1.0000 0.71770  0.42790  0.40690  Biso   1.000  H
  H23      1.0000 0.78230  0.07210  0.90690  Biso   1.000  H
  H24      1.0000 0.28230  0.42790  0.09310  Biso   1.000  H
  H25      1.0000 0.73410  0.02630  0.42410  Biso   1.000  H
  H26      1.0000 0.23410  0.47370  0.57590  Biso   1.000  H
  H27      1.0000 0.26590  0.02630  0.07590  Biso   1.000  H
  H28      1.0000 0.76590  0.47370  0.92410  Biso   1.000  H
  H29      1.0000 0.26590  0.97370  0.57590  Biso   1.000  H
  H30      1.0000 0.76590  0.52630  0.42410  Biso   1.000  H
  H31      1.0000 0.73410  0.97370  0.92410  Biso   1.000  H
  H32      1.0000 0.23410  0.52630  0.07590  Biso   1.000  H
  N1       1.0000 0.56581  0.84453  0.43884  Biso   1.000  N
  N2       1.0000 0.06581  0.65547  0.56116  Biso   1.000  N
  N3       1.0000 0.43419  0.84453  0.06116  Biso   1.000  N
  N4       1.0000 0.93419  0.65547  0.93884  Biso   1.000  N
  N5       1.0000 0.43419  0.15547  0.56116  Biso   1.000  N
  N6       1.0000 0.93419  0.34453  0.43884  Biso   1.000  N
  N7       1.0000 0.56581  0.15547  0.93884  Biso   1.000  N
  N8       1.0000 0.06581  0.34453  0.06116  Biso   1.000  N
  N9       1.0000 0.68122  0.71025  0.33392  Biso   1.000  N
  N10      1.0000 0.18122  0.78975  0.66608  Biso   1.000  N
  N11      1.0000 0.31878  0.71025  0.16608  Biso   1.000  N
  N12      1.0000 0.81878  0.78975  0.83392  Biso   1.000  N
  N13      1.0000 0.31878  0.28975  0.66608  Biso   1.000  N
  N14      1.0000 0.81878  0.21025  0.33392  Biso   1.000  N
  N15      1.0000 0.68122  0.28975  0.83392  Biso   1.000  N
  N16      1.0000 0.18122  0.21025  0.16608  Biso   1.000  N
  C1       1.0000 0.50594  0.80050  0.48854  Biso   1.000  C
  C2       1.0000 0.00594  0.69950  0.51146  Biso   1.000  C
  C3       1.0000 0.49406  0.80050  0.01146  Biso   1.000  C
  C4       1.0000 0.99406  0.69950  0.98854  Biso   1.000  C
  C5       1.0000 0.49406  0.19950  0.51146  Biso   1.000  C
  C6       1.0000 0.99406  0.30050  0.48854  Biso   1.000  C
  C7       1.0000 0.50594  0.19950  0.98854  Biso   1.000  C
  C8       1.0000 0.00594  0.30050  0.01146  Biso   1.000  C
  H33      1.0000 0.52020  0.74830  0.53460  Biso   1.000  H
  H34      1.0000 0.02020  0.75170  0.46540  Biso   1.000  H
  H35      1.0000 0.47980  0.74830  0.96540  Biso   1.000  H
  H36      1.0000 0.97980  0.75170  0.03460  Biso   1.000  H
  H37      1.0000 0.47980  0.25170  0.46540  Biso   1.000  H
  H38      1.0000 0.97980  0.24830  0.53460  Biso   1.000  H
  H39      1.0000 0.52020  0.25170  0.03460  Biso   1.000  H
  H40      1.0000 0.02020  0.24830  0.96540  Biso   1.000  H
  C9       1.0000 0.42332  0.82870  0.47490  Biso   1.000  C
  C10      1.0000 0.92332  0.67130  0.52510  Biso   1.000  C
  C11      1.0000 0.57668  0.82870  0.02510  Biso   1.000  C
  C12      1.0000 0.07668  0.67130  0.97490  Biso   1.000  C
  C13      1.0000 0.57668  0.17130  0.52510  Biso   1.000  C
  C14      1.0000 0.07668  0.32870  0.47490  Biso   1.000  C
  C15      1.0000 0.42332  0.17130  0.97490  Biso   1.000  C
  C16      1.0000 0.92332  0.32870  0.02510  Biso   1.000  C
  C17      1.0000 0.40255  0.90800  0.40931  Biso   1.000  C
  C18      1.0000 0.90255  0.59200  0.59069  Biso   1.000  C
  C19      1.0000 0.59745  0.90800  0.09069  Biso   1.000  C
  C20      1.0000 0.09745  0.59200  0.90931  Biso   1.000  C
  C21      1.0000 0.59745  0.09200  0.59069  Biso   1.000  C
  C22      1.0000 0.09745  0.40800  0.40931  Biso   1.000  C
  C23      1.0000 0.40255  0.09200  0.90931  Biso   1.000  C
  C24      1.0000 0.90255  0.40800  0.09069  Biso   1.000  C
  H41      1.0000 0.34670  0.92940  0.39890  Biso   1.000  H
  H42      1.0000 0.84670  0.57060  0.60110  Biso   1.000  H
  H43      1.0000 0.65330  0.92940  0.10110  Biso   1.000  H
  H44      1.0000 0.15330  0.57060  0.89890  Biso   1.000  H
  H45      1.0000 0.65330  0.07060  0.60110  Biso   1.000  H
  H46      1.0000 0.15330  0.42940  0.39890  Biso   1.000  H
  H47      1.0000 0.34670  0.07060  0.89890  Biso   1.000  H
  H48      1.0000 0.84670  0.42940  0.10110  Biso   1.000  H
  C25      1.0000 0.46578  0.95530  0.35911  Biso   1.000  C
  C26      1.0000 0.96578  0.54470  0.64089  Biso   1.000  C
  C27      1.0000 0.53422  0.95530  0.14089  Biso   1.000  C
  C28      1.0000 0.03422  0.54470  0.85911  Biso   1.000  C
  C29      1.0000 0.53422  0.04470  0.64089  Biso   1.000  C
  C30      1.0000 0.03422  0.45530  0.35911  Biso   1.000  C
  C31      1.0000 0.46578  0.04470  0.85911  Biso   1.000  C
  C32      1.0000 0.96578  0.45530  0.14089  Biso   1.000  C
  C33      1.0000 0.54678  0.92120  0.37457  Biso   1.000  C
  C34      1.0000 0.04678  0.57880  0.62543  Biso   1.000  C
  C35      1.0000 0.45322  0.92120  0.12543  Biso   1.000  C
  C36      1.0000 0.95322  0.57880  0.87457  Biso   1.000  C
  C37      1.0000 0.45322  0.07880  0.62543  Biso   1.000  C
  C38      1.0000 0.95322  0.42120  0.37457  Biso   1.000  C
  C39      1.0000 0.54678  0.07880  0.87457  Biso   1.000  C
  C40      1.0000 0.04678  0.42120  0.12543  Biso   1.000  C
  H49      1.0000 0.58950  0.95230  0.33930  Biso   1.000  H
  H50      1.0000 0.08950  0.54770  0.66070  Biso   1.000  H
  H51      1.0000 0.41050  0.95230  0.16070  Biso   1.000  H
  H52      1.0000 0.91050  0.54770  0.83930  Biso   1.000  H
  H53      1.0000 0.41050  0.04770  0.66070  Biso   1.000  H
  H54      1.0000 0.91050  0.45230  0.33930  Biso   1.000  H
  H55      1.0000 0.58950  0.04770  0.83930  Biso   1.000  H
  H56      1.0000 0.08950  0.45230  0.16070  Biso   1.000  H
  C41      1.0000 0.50000  0.10160  0.25000  Biso   1.000  C
  C42      1.0000 0.00000  0.39840  0.75000  Biso   1.000  C
  C43      1.0000 0.50000  0.89840  0.75000  Biso   1.000  C
  C44      1.0000 0.00000  0.60160  0.25000  Biso   1.000  C
  H57      1.0000 0.52900  0.15510  0.29110  Biso   1.000  H
  H58      1.0000 0.02900  0.34490  0.70890  Biso   1.000  H
  H59      1.0000 0.47100  0.15510  0.20890  Biso   1.000  H
  H60      1.0000 0.97100  0.34490  0.79110  Biso   1.000  H
  H61      1.0000 0.47100  0.84490  0.70890  Biso   1.000  H
  H62      1.0000 0.97100  0.65510  0.29110  Biso   1.000  H
  H63      1.0000 0.52900  0.84490  0.79110  Biso   1.000  H
  H64      1.0000 0.02900  0.65510  0.20890  Biso   1.000  H
  C45      1.0000 0.35836  0.76620  0.52830  Biso   1.000  C
  C46      1.0000 0.85836  0.73380  0.47170  Biso   1.000  C
  C47      1.0000 0.64164  0.76620  0.97170  Biso   1.000  C
  C48      1.0000 0.14164  0.73380  0.02830  Biso   1.000  C
  C49      1.0000 0.64164  0.23380  0.47170  Biso   1.000  C
  C50      1.0000 0.14164  0.26620  0.52830  Biso   1.000  C
  C51      1.0000 0.35836  0.23380  0.02830  Biso   1.000  C
  C52      1.0000 0.85836  0.26620  0.97170  Biso   1.000  C
  C53      1.0000 0.74423  0.68850  0.19742  Biso   1.000  C
  C54      1.0000 0.24423  0.81150  0.80258  Biso   1.000  C
  C55      1.0000 0.25577  0.68850  0.30258  Biso   1.000  C
  C56      1.0000 0.75577  0.81150  0.69742  Biso   1.000  C
  C57      1.0000 0.25577  0.31150  0.80258  Biso   1.000  C
  C58      1.0000 0.75577  0.18850  0.19742  Biso   1.000  C
  C59      1.0000 0.74423  0.31150  0.69742  Biso   1.000  C
  C60      1.0000 0.24423  0.18850  0.30258  Biso   1.000  C
  C61      1.0000 0.81228  0.72280  0.13595  Biso   1.000  C
  C62      1.0000 0.31228  0.77720  0.86405  Biso   1.000  C
  C63      1.0000 0.18772  0.72280  0.36405  Biso   1.000  C
  C64      1.0000 0.68772  0.77720  0.63595  Biso   1.000  C
  C65      1.0000 0.18772  0.27720  0.86405  Biso   1.000  C
  C66      1.0000 0.68772  0.22280  0.13595  Biso   1.000  C
  C67      1.0000 0.81228  0.27720  0.63595  Biso   1.000  C
  C68      1.0000 0.31228  0.22280  0.36405  Biso   1.000  C
  C69      1.0000 0.67905  0.61640  0.17015  Biso   1.000  C
  C70      1.0000 0.17905  0.88360  0.82985  Biso   1.000  C
  C71      1.0000 0.32095  0.61640  0.32985  Biso   1.000  C
  C72      1.0000 0.82095  0.88360  0.67015  Biso   1.000  C
  C73      1.0000 0.32095  0.38360  0.82985  Biso   1.000  C
  C74      1.0000 0.82095  0.11640  0.17015  Biso   1.000  C
  C75      1.0000 0.67905  0.38360  0.67015  Biso   1.000  C
  C76      1.0000 0.17905  0.11640  0.32985  Biso   1.000  C
  H65      1.0000 0.67860  0.58300  0.11430  Biso   1.000  H
  H66      1.0000 0.17860  0.91700  0.88570  Biso   1.000  H
  H67      1.0000 0.32140  0.58300  0.38570  Biso   1.000  H
  H68      1.0000 0.82140  0.91700  0.61430  Biso   1.000  H
  H69      1.0000 0.32140  0.41700  0.88570  Biso   1.000  H
  H70      1.0000 0.82140  0.08300  0.11430  Biso   1.000  H
  H71      1.0000 0.67860  0.41700  0.61430  Biso   1.000  H
  H72      1.0000 0.17860  0.08300  0.38570  Biso   1.000  H
  C77      1.0000 0.61432  0.59370  0.22594  Biso   1.000  C
  C78      1.0000 0.11432  0.90630  0.77406  Biso   1.000  C
  C79      1.0000 0.38568  0.59370  0.27406  Biso   1.000  C
  C80      1.0000 0.88568  0.90630  0.72594  Biso   1.000  C
  C81      1.0000 0.38568  0.40630  0.77406  Biso   1.000  C
  C82      1.0000 0.88568  0.09370  0.22594  Biso   1.000  C
  C83      1.0000 0.61432  0.40630  0.72594  Biso   1.000  C
  C84      1.0000 0.11432  0.09370  0.27406  Biso   1.000  C
  C85      1.0000 0.50000  0.45900  0.25000  Biso   1.000  C
  C86      1.0000 0.00000  0.04100  0.75000  Biso   1.000  C
  C87      1.0000 0.50000  0.54100  0.75000  Biso   1.000  C
  C88      1.0000 0.00000  0.95900  0.25000  Biso   1.000  C
  H73      1.0000 0.46300  0.40550  0.21640  Biso   1.000  H
  H74      1.0000 0.96300  0.09450  0.78360  Biso   1.000  H
  H75      1.0000 0.53700  0.40550  0.28360  Biso   1.000  H
  H76      1.0000 0.03700  0.09450  0.71640  Biso   1.000  H
  H77      1.0000 0.53700  0.59450  0.78360  Biso   1.000  H
  H78      1.0000 0.03700  0.90550  0.21640  Biso   1.000  H
  H79      1.0000 0.46300  0.59450  0.71640  Biso   1.000  H
  H80      1.0000 0.96300  0.90550  0.28360  Biso   1.000  H
  C89      1.0000 0.61726  0.64090  0.30763  Biso   1.000  C
  C90      1.0000 0.11726  0.85910  0.69237  Biso   1.000  C
  C91      1.0000 0.38274  0.64090  0.19237  Biso   1.000  C
  C92      1.0000 0.88274  0.85910  0.80763  Biso   1.000  C
  C93      1.0000 0.38274  0.35910  0.69237  Biso   1.000  C
  C94      1.0000 0.88274  0.14090  0.30763  Biso   1.000  C
  C95      1.0000 0.61726  0.35910  0.80763  Biso   1.000  C
  C96      1.0000 0.11726  0.14090  0.19237  Biso   1.000  C
  H81      1.0000 0.57330  0.62420  0.34590  Biso   1.000  H
  H82      1.0000 0.07330  0.87580  0.65410  Biso   1.000  H
  H83      1.0000 0.42670  0.62420  0.15410  Biso   1.000  H
  H84      1.0000 0.92670  0.87580  0.84590  Biso   1.000  H
  H85      1.0000 0.42670  0.37580  0.65410  Biso   1.000  H
  H86      1.0000 0.92670  0.12420  0.34590  Biso   1.000  H
  H87      1.0000 0.57330  0.37580  0.84590  Biso   1.000  H
  H88      1.0000 0.07330  0.12420  0.15410  Biso   1.000  H
  C97      1.0000 0.74320  0.73440  0.28005  Biso   1.000  C
  C98      1.0000 0.24320  0.76560  0.71995  Biso   1.000  C
  C99      1.0000 0.25680  0.73440  0.21995  Biso   1.000  C
  C100     1.0000 0.75680  0.76560  0.78005  Biso   1.000  C
  C101     1.0000 0.25680  0.26560  0.71995  Biso   1.000  C
  C102     1.0000 0.75680  0.23440  0.28005  Biso   1.000  C
  C103     1.0000 0.74320  0.26560  0.78005  Biso   1.000  C
  C104     1.0000 0.24320  0.23440  0.21995  Biso   1.000  C
  H89      1.0000 0.78770  0.78430  0.29880  Biso   1.000  H
  H90      1.0000 0.28770  0.71570  0.70120  Biso   1.000  H
  H91      1.0000 0.21230  0.78430  0.20120  Biso   1.000  H
  H92      1.0000 0.71230  0.71570  0.79880  Biso   1.000  H
  H93      1.0000 0.21230  0.21570  0.70120  Biso   1.000  H
  H94      1.0000 0.71230  0.28430  0.29880  Biso   1.000  H
  H95      1.0000 0.78770  0.21570  0.79880  Biso   1.000  H
  H96      1.0000 0.28770  0.28430  0.20120  Biso   1.000  H
