data_image0
_cell_length_a       21.06
_cell_length_b       17.305
_cell_length_c       15.15
_cell_angle_alpha    90
_cell_angle_beta     131.239
_cell_angle_gamma    90

_symmetry_space_group_name_H-M    "P 1"
_symmetry_int_tables_number       1

loop_
  _symmetry_equiv_pos_as_xyz
  'x, y, z'

loop_
  _atom_site_label
  _atom_site_occupancy
  _atom_site_fract_x
  _atom_site_fract_y
  _atom_site_fract_z
  _atom_site_thermal_displace_type
  _atom_site_B_iso_or_equiv
  _atom_site_type_symbol
  La1      1.0000 0.50000  0.27242  0.25000  Biso   1.000  La
  La2      1.0000 0.00000  0.77242  0.25000  Biso   1.000  La
  La3      1.0000 0.50000  0.72758  0.75000  Biso   1.000  La
  La4      1.0000 0.00000  0.22758  0.75000  Biso   1.000  La
  Cu1      1.0000 0.78407  0.50299  0.67020  Biso   1.000  Cu
  Cu2      1.0000 0.28407  0.00299  0.67020  Biso   1.000  Cu
  Cu3      1.0000 0.21593  0.50299  0.82980  Biso   1.000  Cu
  Cu4      1.0000 0.71593  0.00299  0.82980  Biso   1.000  Cu
  Cu5      1.0000 0.21593  0.49701  0.32980  Biso   1.000  Cu
  Cu6      1.0000 0.71593  0.99701  0.32980  Biso   1.000  Cu
  Cu7      1.0000 0.78407  0.49701  0.17020  Biso   1.000  Cu
  Cu8      1.0000 0.28407  0.99701  0.17020  Biso   1.000  Cu
  C1       1.0000 0.63260  0.42660  0.46200  Biso   1.000  C
  C2       1.0000 0.13260  0.92660  0.46200  Biso   1.000  C
  C3       1.0000 0.36740  0.42660  0.03800  Biso   1.000  C
  C4       1.0000 0.86740  0.92660  0.03800  Biso   1.000  C
  C5       1.0000 0.36740  0.57340  0.53800  Biso   1.000  C
  C6       1.0000 0.86740  0.07340  0.53800  Biso   1.000  C
  C7       1.0000 0.63260  0.57340  0.96200  Biso   1.000  C
  C8       1.0000 0.13260  0.07340  0.96200  Biso   1.000  C
  C9       1.0000 0.65150  0.49540  0.42200  Biso   1.000  C
  C10      1.0000 0.15150  0.99540  0.42200  Biso   1.000  C
  C11      1.0000 0.34850  0.49540  0.07800  Biso   1.000  C
  C12      1.0000 0.84850  0.99540  0.07800  Biso   1.000  C
  C13      1.0000 0.34850  0.50460  0.57800  Biso   1.000  C
  C14      1.0000 0.84850  0.00460  0.57800  Biso   1.000  C
  C15      1.0000 0.65150  0.50460  0.92200  Biso   1.000  C
  C16      1.0000 0.15150  0.00460  0.92200  Biso   1.000  C
  C17      1.0000 0.60510  0.51470  0.30500  Biso   1.000  C
  C18      1.0000 0.10510  0.01470  0.30500  Biso   1.000  C
  C19      1.0000 0.39490  0.51470  0.19500  Biso   1.000  C
  C20      1.0000 0.89490  0.01470  0.19500  Biso   1.000  C
  C21      1.0000 0.39490  0.48530  0.69500  Biso   1.000  C
  C22      1.0000 0.89490  0.98530  0.69500  Biso   1.000  C
  C23      1.0000 0.60510  0.48530  0.80500  Biso   1.000  C
  C24      1.0000 0.10510  0.98530  0.80500  Biso   1.000  C
  H1       1.0000 0.55890  0.48520  0.24520  Biso   1.000  H
  H2       1.0000 0.05890  0.98520  0.24520  Biso   1.000  H
  H3       1.0000 0.44110  0.48520  0.25480  Biso   1.000  H
  H4       1.0000 0.94110  0.98520  0.25480  Biso   1.000  H
  H5       1.0000 0.44110  0.51480  0.75480  Biso   1.000  H
  H6       1.0000 0.94110  0.01480  0.75480  Biso   1.000  H
  H7       1.0000 0.55890  0.51480  0.74520  Biso   1.000  H
  H8       1.0000 0.05890  0.01480  0.74520  Biso   1.000  H
  C25      1.0000 0.62900  0.57900  0.28000  Biso   1.000  C
  C26      1.0000 0.12900  0.07900  0.28000  Biso   1.000  C
  C27      1.0000 0.37100  0.57900  0.22000  Biso   1.000  C
  C28      1.0000 0.87100  0.07900  0.22000  Biso   1.000  C
  C29      1.0000 0.37100  0.42100  0.72000  Biso   1.000  C
  C30      1.0000 0.87100  0.92100  0.72000  Biso   1.000  C
  C31      1.0000 0.62900  0.42100  0.78000  Biso   1.000  C
  C32      1.0000 0.12900  0.92100  0.78000  Biso   1.000  C
  H9       1.0000 0.59920  0.59320  0.20250  Biso   1.000  H
  H10      1.0000 0.09920  0.09320  0.20250  Biso   1.000  H
  H11      1.0000 0.40080  0.59320  0.29750  Biso   1.000  H
  H12      1.0000 0.90080  0.09320  0.29750  Biso   1.000  H
  H13      1.0000 0.40080  0.40680  0.79750  Biso   1.000  H
  H14      1.0000 0.90080  0.90680  0.79750  Biso   1.000  H
  H15      1.0000 0.59920  0.40680  0.70250  Biso   1.000  H
  H16      1.0000 0.09920  0.90680  0.70250  Biso   1.000  H
  C33      1.0000 0.69800  0.62180  0.36900  Biso   1.000  C
  C34      1.0000 0.19800  0.12180  0.36900  Biso   1.000  C
  C35      1.0000 0.30200  0.62180  0.13100  Biso   1.000  C
  C36      1.0000 0.80200  0.12180  0.13100  Biso   1.000  C
  C37      1.0000 0.30200  0.37820  0.63100  Biso   1.000  C
  C38      1.0000 0.80200  0.87820  0.63100  Biso   1.000  C
  C39      1.0000 0.69800  0.37820  0.86900  Biso   1.000  C
  C40      1.0000 0.19800  0.87820  0.86900  Biso   1.000  C
  H17      1.0000 0.71360  0.66550  0.35240  Biso   1.000  H
  H18      1.0000 0.21360  0.16550  0.35240  Biso   1.000  H
  H19      1.0000 0.28640  0.66550  0.14760  Biso   1.000  H
  H20      1.0000 0.78640  0.16550  0.14760  Biso   1.000  H
  H21      1.0000 0.28640  0.33450  0.64760  Biso   1.000  H
  H22      1.0000 0.78640  0.83450  0.64760  Biso   1.000  H
  H23      1.0000 0.71360  0.33450  0.85240  Biso   1.000  H
  H24      1.0000 0.21360  0.83450  0.85240  Biso   1.000  H
  C41      1.0000 0.74300  0.59930  0.48500  Biso   1.000  C
  C42      1.0000 0.24300  0.09930  0.48500  Biso   1.000  C
  C43      1.0000 0.25700  0.59930  0.01500  Biso   1.000  C
  C44      1.0000 0.75700  0.09930  0.01500  Biso   1.000  C
  C45      1.0000 0.25700  0.40070  0.51500  Biso   1.000  C
  C46      1.0000 0.75700  0.90070  0.51500  Biso   1.000  C
  C47      1.0000 0.74300  0.40070  0.98500  Biso   1.000  C
  C48      1.0000 0.24300  0.90070  0.98500  Biso   1.000  C
  C49      1.0000 0.82270  0.63600  0.59100  Biso   1.000  C
  C50      1.0000 0.32270  0.13600  0.59100  Biso   1.000  C
  C51      1.0000 0.17730  0.63600  0.90900  Biso   1.000  C
  C52      1.0000 0.67730  0.13600  0.90900  Biso   1.000  C
  C53      1.0000 0.17730  0.36400  0.40900  Biso   1.000  C
  C54      1.0000 0.67730  0.86400  0.40900  Biso   1.000  C
  C55      1.0000 0.82270  0.36400  0.09100  Biso   1.000  C
  C56      1.0000 0.32270  0.86400  0.09100  Biso   1.000  C
  C57      1.0000 0.26820  0.93040  0.32900  Biso   1.000  C
  C58      1.0000 0.76820  0.43040  0.32900  Biso   1.000  C
  C59      1.0000 0.73180  0.93040  0.17100  Biso   1.000  C
  C60      1.0000 0.23180  0.43040  0.17100  Biso   1.000  C
  C61      1.0000 0.73180  0.06960  0.67100  Biso   1.000  C
  C62      1.0000 0.23180  0.56960  0.67100  Biso   1.000  C
  C63      1.0000 0.26820  0.06960  0.82900  Biso   1.000  C
  C64      1.0000 0.76820  0.56960  0.82900  Biso   1.000  C
  C65      1.0000 0.34110  0.98670  0.39900  Biso   1.000  C
  C66      1.0000 0.84110  0.48670  0.39900  Biso   1.000  C
  C67      1.0000 0.65890  0.98670  0.10100  Biso   1.000  C
  C68      1.0000 0.15890  0.48670  0.10100  Biso   1.000  C
  C69      1.0000 0.65890  0.01330  0.60100  Biso   1.000  C
  C70      1.0000 0.15890  0.51330  0.60100  Biso   1.000  C
  C71      1.0000 0.34110  0.01330  0.89900  Biso   1.000  C
  C72      1.0000 0.84110  0.51330  0.89900  Biso   1.000  C
  C73      1.0000 0.39300  0.00020  0.51700  Biso   1.000  C
  C74      1.0000 0.89300  0.50020  0.51700  Biso   1.000  C
  C75      1.0000 0.60700  0.00020  0.98300  Biso   1.000  C
  C76      1.0000 0.10700  0.50020  0.98300  Biso   1.000  C
  C77      1.0000 0.60700  0.99980  0.48300  Biso   1.000  C
  C78      1.0000 0.10700  0.49980  0.48300  Biso   1.000  C
  C79      1.0000 0.39300  0.99980  0.01700  Biso   1.000  C
  C80      1.0000 0.89300  0.49980  0.01700  Biso   1.000  C
  H25      1.0000 0.38640  0.97270  0.56360  Biso   1.000  H
  H26      1.0000 0.88640  0.47270  0.56360  Biso   1.000  H
  H27      1.0000 0.61360  0.97270  0.93640  Biso   1.000  H
  H28      1.0000 0.11360  0.47270  0.93640  Biso   1.000  H
  H29      1.0000 0.61360  0.02730  0.43640  Biso   1.000  H
  H30      1.0000 0.11360  0.52730  0.43640  Biso   1.000  H
  H31      1.0000 0.38640  0.02730  0.06360  Biso   1.000  H
  H32      1.0000 0.88640  0.52730  0.06360  Biso   1.000  H
  C81      1.0000 0.45540  0.05570  0.56600  Biso   1.000  C
  C82      1.0000 0.95540  0.55570  0.56600  Biso   1.000  C
  C83      1.0000 0.54460  0.05570  0.93400  Biso   1.000  C
  C84      1.0000 0.04460  0.55570  0.93400  Biso   1.000  C
  C85      1.0000 0.54460  0.94430  0.43400  Biso   1.000  C
  C86      1.0000 0.04460  0.44430  0.43400  Biso   1.000  C
  C87      1.0000 0.45540  0.94430  0.06600  Biso   1.000  C
  C88      1.0000 0.95540  0.44430  0.06600  Biso   1.000  C
  H33      1.0000 0.49080  0.06610  0.64630  Biso   1.000  H
  H34      1.0000 0.99080  0.56610  0.64630  Biso   1.000  H
  H35      1.0000 0.50920  0.06610  0.85370  Biso   1.000  H
  H36      1.0000 0.00920  0.56610  0.85370  Biso   1.000  H
  H37      1.0000 0.50920  0.93390  0.35370  Biso   1.000  H
  H38      1.0000 0.00920  0.43390  0.35370  Biso   1.000  H
  H39      1.0000 0.49080  0.93390  0.14630  Biso   1.000  H
  H40      1.0000 0.99080  0.43390  0.14630  Biso   1.000  H
  C89      1.0000 0.46530  0.09600  0.49700  Biso   1.000  C
  C90      1.0000 0.96530  0.59600  0.49700  Biso   1.000  C
  C91      1.0000 0.53470  0.09600  0.00300  Biso   1.000  C
  C92      1.0000 0.03470  0.59600  0.00300  Biso   1.000  C
  C93      1.0000 0.53470  0.90400  0.50300  Biso   1.000  C
  C94      1.0000 0.03470  0.40400  0.50300  Biso   1.000  C
  C95      1.0000 0.46530  0.90400  0.99700  Biso   1.000  C
  C96      1.0000 0.96530  0.40400  0.99700  Biso   1.000  C
  H41      1.0000 0.50630  0.13410  0.52930  Biso   1.000  H
  H42      1.0000 0.00630  0.63410  0.52930  Biso   1.000  H
  H43      1.0000 0.49370  0.13410  0.97070  Biso   1.000  H
  H44      1.0000 0.99370  0.63410  0.97070  Biso   1.000  H
  H45      1.0000 0.49370  0.86590  0.47070  Biso   1.000  H
  H46      1.0000 0.99370  0.36590  0.47070  Biso   1.000  H
  H47      1.0000 0.50630  0.86590  0.02930  Biso   1.000  H
  H48      1.0000 0.00630  0.36590  0.02930  Biso   1.000  H
  C97      1.0000 0.41290  0.07790  0.37970  Biso   1.000  C
  C98      1.0000 0.91290  0.57790  0.37970  Biso   1.000  C
  C99      1.0000 0.58710  0.07790  0.12030  Biso   1.000  C
  C100     1.0000 0.08710  0.57790  0.12030  Biso   1.000  C
  C101     1.0000 0.58710  0.92210  0.62030  Biso   1.000  C
  C102     1.0000 0.08710  0.42210  0.62030  Biso   1.000  C
  C103     1.0000 0.41290  0.92210  0.87970  Biso   1.000  C
  C104     1.0000 0.91290  0.42210  0.87970  Biso   1.000  C
  C105     1.0000 0.41660  0.11120  0.29000  Biso   1.000  C
  C106     1.0000 0.91660  0.61120  0.29000  Biso   1.000  C
  C107     1.0000 0.58340  0.11120  0.21000  Biso   1.000  C
  C108     1.0000 0.08340  0.61120  0.21000  Biso   1.000  C
  C109     1.0000 0.58340  0.88880  0.71000  Biso   1.000  C
  C110     1.0000 0.08340  0.38880  0.71000  Biso   1.000  C
  C111     1.0000 0.41660  0.88880  0.79000  Biso   1.000  C
  C112     1.0000 0.91660  0.38880  0.79000  Biso   1.000  C
  N1       1.0000 0.71860  0.53620  0.50820  Biso   1.000  N
  N2       1.0000 0.21860  0.03620  0.50820  Biso   1.000  N
  N3       1.0000 0.28140  0.53620  0.99180  Biso   1.000  N
  N4       1.0000 0.78140  0.03620  0.99180  Biso   1.000  N
  N5       1.0000 0.28140  0.46380  0.49180  Biso   1.000  N
  N6       1.0000 0.78140  0.96380  0.49180  Biso   1.000  N
  N7       1.0000 0.71860  0.46380  0.00820  Biso   1.000  N
  N8       1.0000 0.21860  0.96380  0.00820  Biso   1.000  N
  N9       1.0000 0.35260  0.02490  0.33340  Biso   1.000  N
  N10      1.0000 0.85260  0.52490  0.33340  Biso   1.000  N
  N11      1.0000 0.64740  0.02490  0.16660  Biso   1.000  N
  N12      1.0000 0.14740  0.52490  0.16660  Biso   1.000  N
  N13      1.0000 0.64740  0.97510  0.66660  Biso   1.000  N
  N14      1.0000 0.14740  0.47510  0.66660  Biso   1.000  N
  N15      1.0000 0.35260  0.97510  0.83340  Biso   1.000  N
  N16      1.0000 0.85260  0.47510  0.83340  Biso   1.000  N
  O1       1.0000 0.67780  0.41910  0.57000  Biso   1.000  O
  O2       1.0000 0.17780  0.91910  0.57000  Biso   1.000  O
  O3       1.0000 0.32220  0.41910  0.93000  Biso   1.000  O
  O4       1.0000 0.82220  0.91910  0.93000  Biso   1.000  O
  O5       1.0000 0.32220  0.58090  0.43000  Biso   1.000  O
  O6       1.0000 0.82220  0.08090  0.43000  Biso   1.000  O
  O7       1.0000 0.67780  0.58090  0.07000  Biso   1.000  O
  O8       1.0000 0.17780  0.08090  0.07000  Biso   1.000  O
  O9       1.0000 0.18800  0.76700  0.13200  Biso   1.000  O
  O10      1.0000 0.68800  0.26700  0.13200  Biso   1.000  O
  O11      1.0000 0.81200  0.76700  0.36800  Biso   1.000  O
  O12      1.0000 0.31200  0.26700  0.36800  Biso   1.000  O
  O13      1.0000 0.81200  0.23300  0.86800  Biso   1.000  O
  O14      1.0000 0.31200  0.73300  0.86800  Biso   1.000  O
  O15      1.0000 0.18800  0.23300  0.63200  Biso   1.000  O
  O16      1.0000 0.68800  0.73300  0.63200  Biso   1.000  O
  H49      1.0000 0.19330  0.80050  0.17590  Biso   1.000  H
  H50      1.0000 0.69330  0.30050  0.17590  Biso   1.000  H
  H51      1.0000 0.80670  0.80050  0.32410  Biso   1.000  H
  H52      1.0000 0.30670  0.30050  0.32410  Biso   1.000  H
  H53      1.0000 0.80670  0.19950  0.82410  Biso   1.000  H
  H54      1.0000 0.30670  0.69950  0.82410  Biso   1.000  H
  H55      1.0000 0.19330  0.19950  0.67590  Biso   1.000  H
  H56      1.0000 0.69330  0.69950  0.67590  Biso   1.000  H
  H57      1.0000 0.18390  0.73260  0.17130  Biso   1.000  H
  H58      1.0000 0.68390  0.23260  0.17130  Biso   1.000  H
  H59      1.0000 0.81610  0.73260  0.32870  Biso   1.000  H
  H60      1.0000 0.31610  0.23260  0.32870  Biso   1.000  H
  H61      1.0000 0.81610  0.26740  0.82870  Biso   1.000  H
  H62      1.0000 0.31610  0.76740  0.82870  Biso   1.000  H
  H63      1.0000 0.18390  0.26740  0.67130  Biso   1.000  H
  H64      1.0000 0.68390  0.76740  0.67130  Biso   1.000  H
  O17      1.0000 0.85850  0.60610  0.68820  Biso   1.000  O
  O18      1.0000 0.35850  0.10610  0.68820  Biso   1.000  O
  O19      1.0000 0.14150  0.60610  0.81180  Biso   1.000  O
  O20      1.0000 0.64150  0.10610  0.81180  Biso   1.000  O
  O21      1.0000 0.14150  0.39390  0.31180  Biso   1.000  O
  O22      1.0000 0.64150  0.89390  0.31180  Biso   1.000  O
  O23      1.0000 0.85850  0.39390  0.18820  Biso   1.000  O
  O24      1.0000 0.35850  0.89390  0.18820  Biso   1.000  O
  O25      1.0000 0.17000  0.22700  0.13200  Biso   1.000  O
  O26      1.0000 0.67000  0.72700  0.13200  Biso   1.000  O
  O27      1.0000 0.83000  0.22700  0.36800  Biso   1.000  O
  O28      1.0000 0.33000  0.72700  0.36800  Biso   1.000  O
  O29      1.0000 0.83000  0.77300  0.86800  Biso   1.000  O
  O30      1.0000 0.33000  0.27300  0.86800  Biso   1.000  O
  O31      1.0000 0.17000  0.77300  0.63200  Biso   1.000  O
  O32      1.0000 0.67000  0.27300  0.63200  Biso   1.000  O
  H65      1.0000 0.19000  0.24400  0.19690  Biso   1.000  H
  H66      1.0000 0.69000  0.74400  0.19690  Biso   1.000  H
  H67      1.0000 0.81000  0.24400  0.30310  Biso   1.000  H
  H68      1.0000 0.31000  0.74400  0.30310  Biso   1.000  H
  H69      1.0000 0.81000  0.75600  0.80310  Biso   1.000  H
  H70      1.0000 0.31000  0.25600  0.80310  Biso   1.000  H
  H71      1.0000 0.19000  0.75600  0.69690  Biso   1.000  H
  H72      1.0000 0.69000  0.25600  0.69690  Biso   1.000  H
  H73      1.0000 0.21690  0.20610  0.12530  Biso   1.000  H
  H74      1.0000 0.71690  0.70610  0.12530  Biso   1.000  H
  H75      1.0000 0.78310  0.20610  0.37470  Biso   1.000  H
  H76      1.0000 0.28310  0.70610  0.37470  Biso   1.000  H
  H77      1.0000 0.78310  0.79390  0.87470  Biso   1.000  H
  H78      1.0000 0.28310  0.29390  0.87470  Biso   1.000  H
  H79      1.0000 0.21690  0.79390  0.62530  Biso   1.000  H
  H80      1.0000 0.71690  0.29390  0.62530  Biso   1.000  H
  O33      1.0000 0.84930  0.69520  0.57500  Biso   1.000  O
  O34      1.0000 0.34930  0.19520  0.57500  Biso   1.000  O
  O35      1.0000 0.15070  0.69520  0.92500  Biso   1.000  O
  O36      1.0000 0.65070  0.19520  0.92500  Biso   1.000  O
  O37      1.0000 0.15070  0.30480  0.42500  Biso   1.000  O
  O38      1.0000 0.65070  0.80480  0.42500  Biso   1.000  O
  O39      1.0000 0.84930  0.30480  0.07500  Biso   1.000  O
  O40      1.0000 0.34930  0.80480  0.07500  Biso   1.000  O
  O41      1.0000 0.50000  0.74800  0.25000  Biso   1.000  O
  O42      1.0000 0.00000  0.24800  0.25000  Biso   1.000  O
  O43      1.0000 0.50000  0.25200  0.75000  Biso   1.000  O
  O44      1.0000 0.00000  0.75200  0.75000  Biso   1.000  O
  H81      1.0000 0.45310  0.74520  0.18440  Biso   1.000  H
  H82      1.0000 0.95310  0.24520  0.18440  Biso   1.000  H
  H83      1.0000 0.54690  0.74520  0.31560  Biso   1.000  H
  H84      1.0000 0.04690  0.24520  0.31560  Biso   1.000  H
  H85      1.0000 0.54690  0.25480  0.81560  Biso   1.000  H
  H86      1.0000 0.04690  0.75480  0.81560  Biso   1.000  H
  H87      1.0000 0.45310  0.25480  0.68440  Biso   1.000  H
  H88      1.0000 0.95310  0.75480  0.68440  Biso   1.000  H
  O45      1.0000 0.25080  0.89250  0.37910  Biso   1.000  O
  O46      1.0000 0.75080  0.39250  0.37910  Biso   1.000  O
  O47      1.0000 0.74920  0.89250  0.12090  Biso   1.000  O
  O48      1.0000 0.24920  0.39250  0.12090  Biso   1.000  O
  O49      1.0000 0.74920  0.10750  0.62090  Biso   1.000  O
  O50      1.0000 0.24920  0.60750  0.62090  Biso   1.000  O
  O51      1.0000 0.25080  0.10750  0.87910  Biso   1.000  O
  O52      1.0000 0.75080  0.60750  0.87910  Biso   1.000  O
  O53      1.0000 0.04980  0.93680  0.02600  Biso   1.000  O
  O54      1.0000 0.54980  0.43680  0.02600  Biso   1.000  O
  O55      1.0000 0.95020  0.93680  0.47400  Biso   1.000  O
  O56      1.0000 0.45020  0.43680  0.47400  Biso   1.000  O
  O57      1.0000 0.95020  0.06320  0.97400  Biso   1.000  O
  O58      1.0000 0.45020  0.56320  0.97400  Biso   1.000  O
  O59      1.0000 0.04980  0.06320  0.52600  Biso   1.000  O
  O60      1.0000 0.54980  0.56320  0.52600  Biso   1.000  O
  H89      1.0000 0.06930  0.93210  0.09360  Biso   1.000  H
  H90      1.0000 0.56930  0.43210  0.09360  Biso   1.000  H
  H91      1.0000 0.93070  0.93210  0.40640  Biso   1.000  H
  H92      1.0000 0.43070  0.43210  0.40640  Biso   1.000  H
  H93      1.0000 0.93070  0.06790  0.90640  Biso   1.000  H
  H94      1.0000 0.43070  0.56790  0.90640  Biso   1.000  H
  H95      1.0000 0.06930  0.06790  0.59360  Biso   1.000  H
  H96      1.0000 0.56930  0.56790  0.59360  Biso   1.000  H
  H97      1.0000 0.03210  0.97780  0.98550  Biso   1.000  H
  H98      1.0000 0.53210  0.47780  0.98550  Biso   1.000  H
  H99      1.0000 0.96790  0.97780  0.51450  Biso   1.000  H
  H100     1.0000 0.46790  0.47780  0.51450  Biso   1.000  H
  H101     1.0000 0.96790  0.02220  0.01450  Biso   1.000  H
  H102     1.0000 0.46790  0.52220  0.01450  Biso   1.000  H
  H103     1.0000 0.03210  0.02220  0.48550  Biso   1.000  H
  H104     1.0000 0.53210  0.52220  0.48550  Biso   1.000  H
  O61      1.0000 0.22900  0.92790  0.21890  Biso   1.000  O
  O62      1.0000 0.72900  0.42790  0.21890  Biso   1.000  O
  O63      1.0000 0.77100  0.92790  0.28110  Biso   1.000  O
  O64      1.0000 0.27100  0.42790  0.28110  Biso   1.000  O
  O65      1.0000 0.77100  0.07210  0.78110  Biso   1.000  O
  O66      1.0000 0.27100  0.57210  0.78110  Biso   1.000  O
  O67      1.0000 0.22900  0.07210  0.71890  Biso   1.000  O
  O68      1.0000 0.72900  0.57210  0.71890  Biso   1.000  O
  O69      1.0000 0.00600  0.20800  0.06500  Biso   1.000  O
  O70      1.0000 0.50600  0.70800  0.06500  Biso   1.000  O
  O71      1.0000 0.99400  0.20800  0.43500  Biso   1.000  O
  O72      1.0000 0.49400  0.70800  0.43500  Biso   1.000  O
  O73      1.0000 0.99400  0.79200  0.93500  Biso   1.000  O
  O74      1.0000 0.49400  0.29200  0.93500  Biso   1.000  O
  O75      1.0000 0.00600  0.79200  0.56500  Biso   1.000  O
  O76      1.0000 0.50600  0.29200  0.56500  Biso   1.000  O
  H105     1.0000 0.02320  0.23200  0.12400  Biso   1.000  H
  H106     1.0000 0.52320  0.73200  0.12400  Biso   1.000  H
  H107     1.0000 0.97680  0.23200  0.37600  Biso   1.000  H
  H108     1.0000 0.47680  0.73200  0.37600  Biso   1.000  H
  H109     1.0000 0.97680  0.76800  0.87600  Biso   1.000  H
  H110     1.0000 0.47680  0.26800  0.87600  Biso   1.000  H
  H111     1.0000 0.02320  0.76800  0.62400  Biso   1.000  H
  H112     1.0000 0.52320  0.26800  0.62400  Biso   1.000  H
  H113     1.0000 0.96100  0.23480  0.01920  Biso   1.000  H
  H114     1.0000 0.46100  0.73480  0.01920  Biso   1.000  H
  H115     1.0000 0.03900  0.23480  0.48080  Biso   1.000  H
  H116     1.0000 0.53900  0.73480  0.48080  Biso   1.000  H
  H117     1.0000 0.03900  0.76520  0.98080  Biso   1.000  H
  H118     1.0000 0.53900  0.26520  0.98080  Biso   1.000  H
  H119     1.0000 0.96100  0.76520  0.51920  Biso   1.000  H
  H120     1.0000 0.46100  0.26520  0.51920  Biso   1.000  H
  O77      1.0000 0.36510  0.08330  0.18920  Biso   1.000  O
  O78      1.0000 0.86510  0.58330  0.18920  Biso   1.000  O
  O79      1.0000 0.63490  0.08330  0.31080  Biso   1.000  O
  O80      1.0000 0.13490  0.58330  0.31080  Biso   1.000  O
  O81      1.0000 0.63490  0.91670  0.81080  Biso   1.000  O
  O82      1.0000 0.13490  0.41670  0.81080  Biso   1.000  O
  O83      1.0000 0.36510  0.91670  0.68920  Biso   1.000  O
  O84      1.0000 0.86510  0.41670  0.68920  Biso   1.000  O
  O85      1.0000 0.46970  0.16240  0.32450  Biso   1.000  O
  O86      1.0000 0.96970  0.66240  0.32450  Biso   1.000  O
  O87      1.0000 0.53030  0.16240  0.17550  Biso   1.000  O
  O88      1.0000 0.03030  0.66240  0.17550  Biso   1.000  O
  O89      1.0000 0.53030  0.83760  0.67550  Biso   1.000  O
  O90      1.0000 0.03030  0.33760  0.67550  Biso   1.000  O
  O91      1.0000 0.46970  0.83760  0.82450  Biso   1.000  O
  O92      1.0000 0.96970  0.33760  0.82450  Biso   1.000  O
  O93      1.0000 0.39930  0.31850  0.27650  Biso   1.000  O
  O94      1.0000 0.89930  0.81850  0.27650  Biso   1.000  O
  O95      1.0000 0.60070  0.31850  0.22350  Biso   1.000  O
  O96      1.0000 0.10070  0.81850  0.22350  Biso   1.000  O
  O97      1.0000 0.60070  0.68150  0.72350  Biso   1.000  O
  O98      1.0000 0.10070  0.18150  0.72350  Biso   1.000  O
  O99      1.0000 0.39930  0.68150  0.77650  Biso   1.000  O
  O100     1.0000 0.89930  0.18150  0.77650  Biso   1.000  O
  H121     1.0000 0.35840  0.33930  0.21590  Biso   1.000  H
  H122     1.0000 0.85840  0.83930  0.21590  Biso   1.000  H
  H123     1.0000 0.64160  0.33930  0.28410  Biso   1.000  H
  H124     1.0000 0.14160  0.83930  0.28410  Biso   1.000  H
  H125     1.0000 0.64160  0.66070  0.78410  Biso   1.000  H
  H126     1.0000 0.14160  0.16070  0.78410  Biso   1.000  H
  H127     1.0000 0.35840  0.66070  0.71590  Biso   1.000  H
  H128     1.0000 0.85840  0.16070  0.71590  Biso   1.000  H
  H129     1.0000 0.41140  0.31660  0.32400  Biso   1.000  H
  H130     1.0000 0.91140  0.81660  0.32400  Biso   1.000  H
  H131     1.0000 0.58860  0.31660  0.17600  Biso   1.000  H
  H132     1.0000 0.08860  0.81660  0.17600  Biso   1.000  H
  H133     1.0000 0.58860  0.68340  0.67600  Biso   1.000  H
  H134     1.0000 0.08860  0.18340  0.67600  Biso   1.000  H
  H135     1.0000 0.41140  0.68340  0.82400  Biso   1.000  H
  H136     1.0000 0.91140  0.18340  0.82400  Biso   1.000  H
  O101     1.0000 0.35810  0.22130  0.07100  Biso   1.000  O
  O102     1.0000 0.85810  0.72130  0.07100  Biso   1.000  O
  O103     1.0000 0.64190  0.22130  0.42900  Biso   1.000  O
  O104     1.0000 0.14190  0.72130  0.42900  Biso   1.000  O
  O105     1.0000 0.64190  0.77870  0.92900  Biso   1.000  O
  O106     1.0000 0.14190  0.27870  0.92900  Biso   1.000  O
  O107     1.0000 0.35810  0.77870  0.57100  Biso   1.000  O
  O108     1.0000 0.85810  0.27870  0.57100  Biso   1.000  O
  H137     1.0000 0.34850  0.23570  0.01160  Biso   1.000  H
  H138     1.0000 0.84850  0.73570  0.01160  Biso   1.000  H
  H139     1.0000 0.65150  0.23570  0.48840  Biso   1.000  H
  H140     1.0000 0.15150  0.73570  0.48840  Biso   1.000  H
  H141     1.0000 0.65150  0.76430  0.98840  Biso   1.000  H
  H142     1.0000 0.15150  0.26430  0.98840  Biso   1.000  H
  H143     1.0000 0.34850  0.76430  0.51160  Biso   1.000  H
  H144     1.0000 0.84850  0.26430  0.51160  Biso   1.000  H
  H145     1.0000 0.33280  0.18980  0.05970  Biso   1.000  H
  H146     1.0000 0.83280  0.68980  0.05970  Biso   1.000  H
  H147     1.0000 0.66720  0.18980  0.44030  Biso   1.000  H
  H148     1.0000 0.16720  0.68980  0.44030  Biso   1.000  H
  H149     1.0000 0.66720  0.81020  0.94030  Biso   1.000  H
  H150     1.0000 0.16720  0.31020  0.94030  Biso   1.000  H
  H151     1.0000 0.33280  0.81020  0.55970  Biso   1.000  H
  H152     1.0000 0.83280  0.31020  0.55970  Biso   1.000  H
  O109     1.0000 0.57340  0.38240  0.38660  Biso   1.000  O
  O110     1.0000 0.07340  0.88240  0.38660  Biso   1.000  O
  O111     1.0000 0.42660  0.38240  0.11340  Biso   1.000  O
  O112     1.0000 0.92660  0.88240  0.11340  Biso   1.000  O
  O113     1.0000 0.42660  0.61760  0.61340  Biso   1.000  O
  O114     1.0000 0.92660  0.11760  0.61340  Biso   1.000  O
  O115     1.0000 0.57340  0.61760  0.88660  Biso   1.000  O
  O116     1.0000 0.07340  0.11760  0.88660  Biso   1.000  O
