data_image0
_cell_length_a       21.008
_cell_length_b       17.104
_cell_length_c       15.041
_cell_angle_alpha    90
_cell_angle_beta     131.08
_cell_angle_gamma    90

_symmetry_space_group_name_H-M    "P 1"
_symmetry_int_tables_number       1

loop_
  _symmetry_equiv_pos_as_xyz
  'x, y, z'

loop_
  _atom_site_label
  _atom_site_occupancy
  _atom_site_fract_x
  _atom_site_fract_y
  _atom_site_fract_z
  _atom_site_thermal_displace_type
  _atom_site_B_iso_or_equiv
  _atom_site_type_symbol
  Pr1      1.0000 0.50000  0.27243  0.25000  Biso   1.000  Pr
  Pr2      1.0000 0.00000  0.77243  0.25000  Biso   1.000  Pr
  Pr3      1.0000 0.50000  0.72757  0.75000  Biso   1.000  Pr
  Pr4      1.0000 0.00000  0.22757  0.75000  Biso   1.000  Pr
  Cu1      1.0000 0.78408  0.50301  0.67010  Biso   1.000  Cu
  Cu2      1.0000 0.28408  0.00301  0.67010  Biso   1.000  Cu
  Cu3      1.0000 0.21592  0.50301  0.82990  Biso   1.000  Cu
  Cu4      1.0000 0.71592  0.00301  0.82990  Biso   1.000  Cu
  Cu5      1.0000 0.21592  0.49699  0.32990  Biso   1.000  Cu
  Cu6      1.0000 0.71592  0.99699  0.32990  Biso   1.000  Cu
  Cu7      1.0000 0.78408  0.49699  0.17010  Biso   1.000  Cu
  Cu8      1.0000 0.28408  0.99699  0.17010  Biso   1.000  Cu
  C1       1.0000 0.63240  0.42640  0.46200  Biso   1.000  C
  C2       1.0000 0.13240  0.92640  0.46200  Biso   1.000  C
  C3       1.0000 0.36760  0.42640  0.03800  Biso   1.000  C
  C4       1.0000 0.86760  0.92640  0.03800  Biso   1.000  C
  C5       1.0000 0.36760  0.57360  0.53800  Biso   1.000  C
  C6       1.0000 0.86760  0.07360  0.53800  Biso   1.000  C
  C7       1.0000 0.63240  0.57360  0.96200  Biso   1.000  C
  C8       1.0000 0.13240  0.07360  0.96200  Biso   1.000  C
  C9       1.0000 0.65140  0.49510  0.42100  Biso   1.000  C
  C10      1.0000 0.15140  0.99510  0.42100  Biso   1.000  C
  C11      1.0000 0.34860  0.49510  0.07900  Biso   1.000  C
  C12      1.0000 0.84860  0.99510  0.07900  Biso   1.000  C
  C13      1.0000 0.34860  0.50490  0.57900  Biso   1.000  C
  C14      1.0000 0.84860  0.00490  0.57900  Biso   1.000  C
  C15      1.0000 0.65140  0.50490  0.92100  Biso   1.000  C
  C16      1.0000 0.15140  0.00490  0.92100  Biso   1.000  C
  C17      1.0000 0.60500  0.51500  0.30500  Biso   1.000  C
  C18      1.0000 0.10500  0.01500  0.30500  Biso   1.000  C
  C19      1.0000 0.39500  0.51500  0.19500  Biso   1.000  C
  C20      1.0000 0.89500  0.01500  0.19500  Biso   1.000  C
  C21      1.0000 0.39500  0.48500  0.69500  Biso   1.000  C
  C22      1.0000 0.89500  0.98500  0.69500  Biso   1.000  C
  C23      1.0000 0.60500  0.48500  0.80500  Biso   1.000  C
  C24      1.0000 0.10500  0.98500  0.80500  Biso   1.000  C
  H1       1.0000 0.55880  0.48550  0.24500  Biso   1.000  H
  H2       1.0000 0.05880  0.98550  0.24500  Biso   1.000  H
  H3       1.0000 0.44120  0.48550  0.25500  Biso   1.000  H
  H4       1.0000 0.94120  0.98550  0.25500  Biso   1.000  H
  H5       1.0000 0.44120  0.51450  0.75500  Biso   1.000  H
  H6       1.0000 0.94120  0.01450  0.75500  Biso   1.000  H
  H7       1.0000 0.55880  0.51450  0.74500  Biso   1.000  H
  H8       1.0000 0.05880  0.01450  0.74500  Biso   1.000  H
  C25      1.0000 0.63000  0.57900  0.28100  Biso   1.000  C
  C26      1.0000 0.13000  0.07900  0.28100  Biso   1.000  C
  C27      1.0000 0.37000  0.57900  0.21900  Biso   1.000  C
  C28      1.0000 0.87000  0.07900  0.21900  Biso   1.000  C
  C29      1.0000 0.37000  0.42100  0.71900  Biso   1.000  C
  C30      1.0000 0.87000  0.92100  0.71900  Biso   1.000  C
  C31      1.0000 0.63000  0.42100  0.78100  Biso   1.000  C
  C32      1.0000 0.13000  0.92100  0.78100  Biso   1.000  C
  H9       1.0000 0.59960  0.59390  0.20280  Biso   1.000  H
  H10      1.0000 0.09960  0.09390  0.20280  Biso   1.000  H
  H11      1.0000 0.40040  0.59390  0.29720  Biso   1.000  H
  H12      1.0000 0.90040  0.09390  0.29720  Biso   1.000  H
  H13      1.0000 0.40040  0.40610  0.79720  Biso   1.000  H
  H14      1.0000 0.90040  0.90610  0.79720  Biso   1.000  H
  H15      1.0000 0.59960  0.40610  0.70280  Biso   1.000  H
  H16      1.0000 0.09960  0.90610  0.70280  Biso   1.000  H
  C33      1.0000 0.69700  0.62140  0.36900  Biso   1.000  C
  C34      1.0000 0.19700  0.12140  0.36900  Biso   1.000  C
  C35      1.0000 0.30300  0.62140  0.13100  Biso   1.000  C
  C36      1.0000 0.80300  0.12140  0.13100  Biso   1.000  C
  C37      1.0000 0.30300  0.37860  0.63100  Biso   1.000  C
  C38      1.0000 0.80300  0.87860  0.63100  Biso   1.000  C
  C39      1.0000 0.69700  0.37860  0.86900  Biso   1.000  C
  C40      1.0000 0.19700  0.87860  0.86900  Biso   1.000  C
  H17      1.0000 0.71320  0.66560  0.35140  Biso   1.000  H
  H18      1.0000 0.21320  0.16560  0.35140  Biso   1.000  H
  H19      1.0000 0.28680  0.66560  0.14860  Biso   1.000  H
  H20      1.0000 0.78680  0.16560  0.14860  Biso   1.000  H
  H21      1.0000 0.28680  0.33440  0.64860  Biso   1.000  H
  H22      1.0000 0.78680  0.83440  0.64860  Biso   1.000  H
  H23      1.0000 0.71320  0.33440  0.85140  Biso   1.000  H
  H24      1.0000 0.21320  0.83440  0.85140  Biso   1.000  H
  C41      1.0000 0.74300  0.59940  0.48400  Biso   1.000  C
  C42      1.0000 0.24300  0.09940  0.48400  Biso   1.000  C
  C43      1.0000 0.25700  0.59940  0.01600  Biso   1.000  C
  C44      1.0000 0.75700  0.09940  0.01600  Biso   1.000  C
  C45      1.0000 0.25700  0.40060  0.51600  Biso   1.000  C
  C46      1.0000 0.75700  0.90060  0.51600  Biso   1.000  C
  C47      1.0000 0.74300  0.40060  0.98400  Biso   1.000  C
  C48      1.0000 0.24300  0.90060  0.98400  Biso   1.000  C
  C49      1.0000 0.82270  0.63620  0.59100  Biso   1.000  C
  C50      1.0000 0.32270  0.13620  0.59100  Biso   1.000  C
  C51      1.0000 0.17730  0.63620  0.90900  Biso   1.000  C
  C52      1.0000 0.67730  0.13620  0.90900  Biso   1.000  C
  C53      1.0000 0.17730  0.36380  0.40900  Biso   1.000  C
  C54      1.0000 0.67730  0.86380  0.40900  Biso   1.000  C
  C55      1.0000 0.82270  0.36380  0.09100  Biso   1.000  C
  C56      1.0000 0.32270  0.86380  0.09100  Biso   1.000  C
  C57      1.0000 0.26820  0.93050  0.32800  Biso   1.000  C
  C58      1.0000 0.76820  0.43050  0.32800  Biso   1.000  C
  C59      1.0000 0.73180  0.93050  0.17200  Biso   1.000  C
  C60      1.0000 0.23180  0.43050  0.17200  Biso   1.000  C
  C61      1.0000 0.73180  0.06950  0.67200  Biso   1.000  C
  C62      1.0000 0.23180  0.56950  0.67200  Biso   1.000  C
  C63      1.0000 0.26820  0.06950  0.82800  Biso   1.000  C
  C64      1.0000 0.76820  0.56950  0.82800  Biso   1.000  C
  C65      1.0000 0.34100  0.98640  0.39800  Biso   1.000  C
  C66      1.0000 0.84100  0.48640  0.39800  Biso   1.000  C
  C67      1.0000 0.65900  0.98640  0.10200  Biso   1.000  C
  C68      1.0000 0.15900  0.48640  0.10200  Biso   1.000  C
  C69      1.0000 0.65900  0.01360  0.60200  Biso   1.000  C
  C70      1.0000 0.15900  0.51360  0.60200  Biso   1.000  C
  C71      1.0000 0.34100  0.01360  0.89800  Biso   1.000  C
  C72      1.0000 0.84100  0.51360  0.89800  Biso   1.000  C
  C73      1.0000 0.39290  0.00030  0.51700  Biso   1.000  C
  C74      1.0000 0.89290  0.50030  0.51700  Biso   1.000  C
  C75      1.0000 0.60710  0.00030  0.98300  Biso   1.000  C
  C76      1.0000 0.10710  0.50030  0.98300  Biso   1.000  C
  C77      1.0000 0.60710  0.99970  0.48300  Biso   1.000  C
  C78      1.0000 0.10710  0.49970  0.48300  Biso   1.000  C
  C79      1.0000 0.39290  0.99970  0.01700  Biso   1.000  C
  C80      1.0000 0.89290  0.49970  0.01700  Biso   1.000  C
  H25      1.0000 0.38620  0.97250  0.56390  Biso   1.000  H
  H26      1.0000 0.88620  0.47250  0.56390  Biso   1.000  H
  H27      1.0000 0.61380  0.97250  0.93610  Biso   1.000  H
  H28      1.0000 0.11380  0.47250  0.93610  Biso   1.000  H
  H29      1.0000 0.61380  0.02750  0.43610  Biso   1.000  H
  H30      1.0000 0.11380  0.52750  0.43610  Biso   1.000  H
  H31      1.0000 0.38620  0.02750  0.06390  Biso   1.000  H
  H32      1.0000 0.88620  0.52750  0.06390  Biso   1.000  H
  C81      1.0000 0.45530  0.05600  0.56700  Biso   1.000  C
  C82      1.0000 0.95530  0.55600  0.56700  Biso   1.000  C
  C83      1.0000 0.54470  0.05600  0.93300  Biso   1.000  C
  C84      1.0000 0.04470  0.55600  0.93300  Biso   1.000  C
  C85      1.0000 0.54470  0.94400  0.43300  Biso   1.000  C
  C86      1.0000 0.04470  0.44400  0.43300  Biso   1.000  C
  C87      1.0000 0.45530  0.94400  0.06700  Biso   1.000  C
  C88      1.0000 0.95530  0.44400  0.06700  Biso   1.000  C
  H33      1.0000 0.49070  0.06650  0.64690  Biso   1.000  H
  H34      1.0000 0.99070  0.56650  0.64690  Biso   1.000  H
  H35      1.0000 0.50930  0.06650  0.85310  Biso   1.000  H
  H36      1.0000 0.00930  0.56650  0.85310  Biso   1.000  H
  H37      1.0000 0.50930  0.93350  0.35310  Biso   1.000  H
  H38      1.0000 0.00930  0.43350  0.35310  Biso   1.000  H
  H39      1.0000 0.49070  0.93350  0.14690  Biso   1.000  H
  H40      1.0000 0.99070  0.43350  0.14690  Biso   1.000  H
  C89      1.0000 0.46520  0.09620  0.49700  Biso   1.000  C
  C90      1.0000 0.96520  0.59620  0.49700  Biso   1.000  C
  C91      1.0000 0.53480  0.09620  0.00300  Biso   1.000  C
  C92      1.0000 0.03480  0.59620  0.00300  Biso   1.000  C
  C93      1.0000 0.53480  0.90380  0.50300  Biso   1.000  C
  C94      1.0000 0.03480  0.40380  0.50300  Biso   1.000  C
  C95      1.0000 0.46520  0.90380  0.99700  Biso   1.000  C
  C96      1.0000 0.96520  0.40380  0.99700  Biso   1.000  C
  H41      1.0000 0.50630  0.13460  0.52920  Biso   1.000  H
  H42      1.0000 0.00630  0.63460  0.52920  Biso   1.000  H
  H43      1.0000 0.49370  0.13460  0.97080  Biso   1.000  H
  H44      1.0000 0.99370  0.63460  0.97080  Biso   1.000  H
  H45      1.0000 0.49370  0.86540  0.47080  Biso   1.000  H
  H46      1.0000 0.99370  0.36540  0.47080  Biso   1.000  H
  H47      1.0000 0.50630  0.86540  0.02920  Biso   1.000  H
  H48      1.0000 0.00630  0.36540  0.02920  Biso   1.000  H
  C97      1.0000 0.41300  0.07800  0.38000  Biso   1.000  C
  C98      1.0000 0.91300  0.57800  0.38000  Biso   1.000  C
  C99      1.0000 0.58700  0.07800  0.12000  Biso   1.000  C
  C100     1.0000 0.08700  0.57800  0.12000  Biso   1.000  C
  C101     1.0000 0.58700  0.92200  0.62000  Biso   1.000  C
  C102     1.0000 0.08700  0.42200  0.62000  Biso   1.000  C
  C103     1.0000 0.41300  0.92200  0.88000  Biso   1.000  C
  C104     1.0000 0.91300  0.42200  0.88000  Biso   1.000  C
  C105     1.0000 0.41670  0.11150  0.29000  Biso   1.000  C
  C106     1.0000 0.91670  0.61150  0.29000  Biso   1.000  C
  C107     1.0000 0.58330  0.11150  0.21000  Biso   1.000  C
  C108     1.0000 0.08330  0.61150  0.21000  Biso   1.000  C
  C109     1.0000 0.58330  0.88850  0.71000  Biso   1.000  C
  C110     1.0000 0.08330  0.38850  0.71000  Biso   1.000  C
  C111     1.0000 0.41670  0.88850  0.79000  Biso   1.000  C
  C112     1.0000 0.91670  0.38850  0.79000  Biso   1.000  C
  N1       1.0000 0.71870  0.53620  0.50820  Biso   1.000  N
  N2       1.0000 0.21870  0.03620  0.50820  Biso   1.000  N
  N3       1.0000 0.28130  0.53620  0.99180  Biso   1.000  N
  N4       1.0000 0.78130  0.03620  0.99180  Biso   1.000  N
  N5       1.0000 0.28130  0.46380  0.49180  Biso   1.000  N
  N6       1.0000 0.78130  0.96380  0.49180  Biso   1.000  N
  N7       1.0000 0.71870  0.46380  0.00820  Biso   1.000  N
  N8       1.0000 0.21870  0.96380  0.00820  Biso   1.000  N
  N9       1.0000 0.35260  0.02490  0.33320  Biso   1.000  N
  N10      1.0000 0.85260  0.52490  0.33320  Biso   1.000  N
  N11      1.0000 0.64740  0.02490  0.16680  Biso   1.000  N
  N12      1.0000 0.14740  0.52490  0.16680  Biso   1.000  N
  N13      1.0000 0.64740  0.97510  0.66680  Biso   1.000  N
  N14      1.0000 0.14740  0.47510  0.66680  Biso   1.000  N
  N15      1.0000 0.35260  0.97510  0.83320  Biso   1.000  N
  N16      1.0000 0.85260  0.47510  0.83320  Biso   1.000  N
  O1       1.0000 0.67790  0.41910  0.57000  Biso   1.000  O
  O2       1.0000 0.17790  0.91910  0.57000  Biso   1.000  O
  O3       1.0000 0.32210  0.41910  0.93000  Biso   1.000  O
  O4       1.0000 0.82210  0.91910  0.93000  Biso   1.000  O
  O5       1.0000 0.32210  0.58090  0.43000  Biso   1.000  O
  O6       1.0000 0.82210  0.08090  0.43000  Biso   1.000  O
  O7       1.0000 0.67790  0.58090  0.07000  Biso   1.000  O
  O8       1.0000 0.17790  0.08090  0.07000  Biso   1.000  O
  O9       1.0000 0.19000  0.76700  0.13400  Biso   1.000  O
  O10      1.0000 0.69000  0.26700  0.13400  Biso   1.000  O
  O11      1.0000 0.81000  0.76700  0.36600  Biso   1.000  O
  O12      1.0000 0.31000  0.26700  0.36600  Biso   1.000  O
  O13      1.0000 0.81000  0.23300  0.86600  Biso   1.000  O
  O14      1.0000 0.31000  0.73300  0.86600  Biso   1.000  O
  O15      1.0000 0.19000  0.23300  0.63400  Biso   1.000  O
  O16      1.0000 0.69000  0.73300  0.63400  Biso   1.000  O
  H49      1.0000 0.19530  0.80090  0.17790  Biso   1.000  H
  H50      1.0000 0.69530  0.30090  0.17790  Biso   1.000  H
  H51      1.0000 0.80470  0.80090  0.32210  Biso   1.000  H
  H52      1.0000 0.30470  0.30090  0.32210  Biso   1.000  H
  H53      1.0000 0.80470  0.19910  0.82210  Biso   1.000  H
  H54      1.0000 0.30470  0.69910  0.82210  Biso   1.000  H
  H55      1.0000 0.19530  0.19910  0.67790  Biso   1.000  H
  H56      1.0000 0.69530  0.69910  0.67790  Biso   1.000  H
  H57      1.0000 0.18580  0.73270  0.17300  Biso   1.000  H
  H58      1.0000 0.68580  0.23270  0.17300  Biso   1.000  H
  H59      1.0000 0.81420  0.73270  0.32700  Biso   1.000  H
  H60      1.0000 0.31420  0.23270  0.32700  Biso   1.000  H
  H61      1.0000 0.81420  0.26730  0.82700  Biso   1.000  H
  H62      1.0000 0.31420  0.76730  0.82700  Biso   1.000  H
  H63      1.0000 0.18580  0.26730  0.67300  Biso   1.000  H
  H64      1.0000 0.68580  0.76730  0.67300  Biso   1.000  H
  O17      1.0000 0.85840  0.60640  0.68810  Biso   1.000  O
  O18      1.0000 0.35840  0.10640  0.68810  Biso   1.000  O
  O19      1.0000 0.14160  0.60640  0.81190  Biso   1.000  O
  O20      1.0000 0.64160  0.10640  0.81190  Biso   1.000  O
  O21      1.0000 0.14160  0.39360  0.31190  Biso   1.000  O
  O22      1.0000 0.64160  0.89360  0.31190  Biso   1.000  O
  O23      1.0000 0.85840  0.39360  0.18810  Biso   1.000  O
  O24      1.0000 0.35840  0.89360  0.18810  Biso   1.000  O
  O25      1.0000 0.17100  0.22690  0.13300  Biso   1.000  O
  O26      1.0000 0.67100  0.72690  0.13300  Biso   1.000  O
  O27      1.0000 0.82900  0.22690  0.36700  Biso   1.000  O
  O28      1.0000 0.32900  0.72690  0.36700  Biso   1.000  O
  O29      1.0000 0.82900  0.77310  0.86700  Biso   1.000  O
  O30      1.0000 0.32900  0.27310  0.86700  Biso   1.000  O
  O31      1.0000 0.17100  0.77310  0.63300  Biso   1.000  O
  O32      1.0000 0.67100  0.27310  0.63300  Biso   1.000  O
  H65      1.0000 0.19090  0.24390  0.19770  Biso   1.000  H
  H66      1.0000 0.69090  0.74390  0.19770  Biso   1.000  H
  H67      1.0000 0.80910  0.24390  0.30230  Biso   1.000  H
  H68      1.0000 0.30910  0.74390  0.30230  Biso   1.000  H
  H69      1.0000 0.80910  0.75610  0.80230  Biso   1.000  H
  H70      1.0000 0.30910  0.25610  0.80230  Biso   1.000  H
  H71      1.0000 0.19090  0.75610  0.69770  Biso   1.000  H
  H72      1.0000 0.69090  0.25610  0.69770  Biso   1.000  H
  H73      1.0000 0.21790  0.20600  0.12580  Biso   1.000  H
  H74      1.0000 0.71790  0.70600  0.12580  Biso   1.000  H
  H75      1.0000 0.78210  0.20600  0.37420  Biso   1.000  H
  H76      1.0000 0.28210  0.70600  0.37420  Biso   1.000  H
  H77      1.0000 0.78210  0.79400  0.87420  Biso   1.000  H
  H78      1.0000 0.28210  0.29400  0.87420  Biso   1.000  H
  H79      1.0000 0.21790  0.79400  0.62580  Biso   1.000  H
  H80      1.0000 0.71790  0.29400  0.62580  Biso   1.000  H
  O33      1.0000 0.84900  0.69500  0.57500  Biso   1.000  O
  O34      1.0000 0.34900  0.19500  0.57500  Biso   1.000  O
  O35      1.0000 0.15100  0.69500  0.92500  Biso   1.000  O
  O36      1.0000 0.65100  0.19500  0.92500  Biso   1.000  O
  O37      1.0000 0.15100  0.30500  0.42500  Biso   1.000  O
  O38      1.0000 0.65100  0.80500  0.42500  Biso   1.000  O
  O39      1.0000 0.84900  0.30500  0.07500  Biso   1.000  O
  O40      1.0000 0.34900  0.80500  0.07500  Biso   1.000  O
  O41      1.0000 0.50000  0.74900  0.25000  Biso   1.000  O
  O42      1.0000 0.00000  0.24900  0.25000  Biso   1.000  O
  O43      1.0000 0.50000  0.25100  0.75000  Biso   1.000  O
  O44      1.0000 0.00000  0.75100  0.75000  Biso   1.000  O
  H81      1.0000 0.45320  0.74630  0.18400  Biso   1.000  H
  H82      1.0000 0.95320  0.24630  0.18400  Biso   1.000  H
  H83      1.0000 0.54680  0.74630  0.31600  Biso   1.000  H
  H84      1.0000 0.04680  0.24630  0.31600  Biso   1.000  H
  H85      1.0000 0.54680  0.25370  0.81600  Biso   1.000  H
  H86      1.0000 0.04680  0.75370  0.81600  Biso   1.000  H
  H87      1.0000 0.45320  0.25370  0.68400  Biso   1.000  H
  H88      1.0000 0.95320  0.75370  0.68400  Biso   1.000  H
  O45      1.0000 0.25070  0.89260  0.37890  Biso   1.000  O
  O46      1.0000 0.75070  0.39260  0.37890  Biso   1.000  O
  O47      1.0000 0.74930  0.89260  0.12110  Biso   1.000  O
  O48      1.0000 0.24930  0.39260  0.12110  Biso   1.000  O
  O49      1.0000 0.74930  0.10740  0.62110  Biso   1.000  O
  O50      1.0000 0.24930  0.60740  0.62110  Biso   1.000  O
  O51      1.0000 0.25070  0.10740  0.87890  Biso   1.000  O
  O52      1.0000 0.75070  0.60740  0.87890  Biso   1.000  O
  O53      1.0000 0.04980  0.93710  0.02600  Biso   1.000  O
  O54      1.0000 0.54980  0.43710  0.02600  Biso   1.000  O
  O55      1.0000 0.95020  0.93710  0.47400  Biso   1.000  O
  O56      1.0000 0.45020  0.43710  0.47400  Biso   1.000  O
  O57      1.0000 0.95020  0.06290  0.97400  Biso   1.000  O
  O58      1.0000 0.45020  0.56290  0.97400  Biso   1.000  O
  O59      1.0000 0.04980  0.06290  0.52600  Biso   1.000  O
  O60      1.0000 0.54980  0.56290  0.52600  Biso   1.000  O
  H89      1.0000 0.06910  0.93240  0.09390  Biso   1.000  H
  H90      1.0000 0.56910  0.43240  0.09390  Biso   1.000  H
  H91      1.0000 0.93090  0.93240  0.40610  Biso   1.000  H
  H92      1.0000 0.43090  0.43240  0.40610  Biso   1.000  H
  H93      1.0000 0.93090  0.06760  0.90610  Biso   1.000  H
  H94      1.0000 0.43090  0.56760  0.90610  Biso   1.000  H
  H95      1.0000 0.06910  0.06760  0.59390  Biso   1.000  H
  H96      1.0000 0.56910  0.56760  0.59390  Biso   1.000  H
  H97      1.0000 0.03210  0.97800  0.98550  Biso   1.000  H
  H98      1.0000 0.53210  0.47800  0.98550  Biso   1.000  H
  H99      1.0000 0.96790  0.97800  0.51450  Biso   1.000  H
  H100     1.0000 0.46790  0.47800  0.51450  Biso   1.000  H
  H101     1.0000 0.96790  0.02200  0.01450  Biso   1.000  H
  H102     1.0000 0.46790  0.52200  0.01450  Biso   1.000  H
  H103     1.0000 0.03210  0.02200  0.48550  Biso   1.000  H
  H104     1.0000 0.53210  0.52200  0.48550  Biso   1.000  H
  O61      1.0000 0.22900  0.92800  0.21900  Biso   1.000  O
  O62      1.0000 0.72900  0.42800  0.21900  Biso   1.000  O
  O63      1.0000 0.77100  0.92800  0.28100  Biso   1.000  O
  O64      1.0000 0.27100  0.42800  0.28100  Biso   1.000  O
  O65      1.0000 0.77100  0.07200  0.78100  Biso   1.000  O
  O66      1.0000 0.27100  0.57200  0.78100  Biso   1.000  O
  O67      1.0000 0.22900  0.07200  0.71900  Biso   1.000  O
  O68      1.0000 0.72900  0.57200  0.71900  Biso   1.000  O
  O69      1.0000 0.00500  0.20900  0.06400  Biso   1.000  O
  O70      1.0000 0.50500  0.70900  0.06400  Biso   1.000  O
  O71      1.0000 0.99500  0.20900  0.43600  Biso   1.000  O
  O72      1.0000 0.49500  0.70900  0.43600  Biso   1.000  O
  O73      1.0000 0.99500  0.79100  0.93600  Biso   1.000  O
  O74      1.0000 0.49500  0.29100  0.93600  Biso   1.000  O
  O75      1.0000 0.00500  0.79100  0.56400  Biso   1.000  O
  O76      1.0000 0.50500  0.29100  0.56400  Biso   1.000  O
  H105     1.0000 0.02220  0.23320  0.12360  Biso   1.000  H
  H106     1.0000 0.52220  0.73320  0.12360  Biso   1.000  H
  H107     1.0000 0.97780  0.23320  0.37640  Biso   1.000  H
  H108     1.0000 0.47780  0.73320  0.37640  Biso   1.000  H
  H109     1.0000 0.97780  0.76680  0.87640  Biso   1.000  H
  H110     1.0000 0.47780  0.26680  0.87640  Biso   1.000  H
  H111     1.0000 0.02220  0.76680  0.62360  Biso   1.000  H
  H112     1.0000 0.52220  0.26680  0.62360  Biso   1.000  H
  H113     1.0000 0.96000  0.23570  0.01830  Biso   1.000  H
  H114     1.0000 0.46000  0.73570  0.01830  Biso   1.000  H
  H115     1.0000 0.04000  0.23570  0.48170  Biso   1.000  H
  H116     1.0000 0.54000  0.73570  0.48170  Biso   1.000  H
  H117     1.0000 0.04000  0.76430  0.98170  Biso   1.000  H
  H118     1.0000 0.54000  0.26430  0.98170  Biso   1.000  H
  H119     1.0000 0.96000  0.76430  0.51830  Biso   1.000  H
  H120     1.0000 0.46000  0.26430  0.51830  Biso   1.000  H
  O77      1.0000 0.36510  0.08320  0.18910  Biso   1.000  O
  O78      1.0000 0.86510  0.58320  0.18910  Biso   1.000  O
  O79      1.0000 0.63490  0.08320  0.31090  Biso   1.000  O
  O80      1.0000 0.13490  0.58320  0.31090  Biso   1.000  O
  O81      1.0000 0.63490  0.91680  0.81090  Biso   1.000  O
  O82      1.0000 0.13490  0.41680  0.81090  Biso   1.000  O
  O83      1.0000 0.36510  0.91680  0.68910  Biso   1.000  O
  O84      1.0000 0.86510  0.41680  0.68910  Biso   1.000  O
  O85      1.0000 0.46970  0.16220  0.32450  Biso   1.000  O
  O86      1.0000 0.96970  0.66220  0.32450  Biso   1.000  O
  O87      1.0000 0.53030  0.16220  0.17550  Biso   1.000  O
  O88      1.0000 0.03030  0.66220  0.17550  Biso   1.000  O
  O89      1.0000 0.53030  0.83780  0.67550  Biso   1.000  O
  O90      1.0000 0.03030  0.33780  0.67550  Biso   1.000  O
  O91      1.0000 0.46970  0.83780  0.82450  Biso   1.000  O
  O92      1.0000 0.96970  0.33780  0.82450  Biso   1.000  O
  O93      1.0000 0.39960  0.31840  0.27700  Biso   1.000  O
  O94      1.0000 0.89960  0.81840  0.27700  Biso   1.000  O
  O95      1.0000 0.60040  0.31840  0.22300  Biso   1.000  O
  O96      1.0000 0.10040  0.81840  0.22300  Biso   1.000  O
  O97      1.0000 0.60040  0.68160  0.72300  Biso   1.000  O
  O98      1.0000 0.10040  0.18160  0.72300  Biso   1.000  O
  O99      1.0000 0.39960  0.68160  0.77700  Biso   1.000  O
  O100     1.0000 0.89960  0.18160  0.77700  Biso   1.000  O
  H121     1.0000 0.35860  0.33940  0.21610  Biso   1.000  H
  H122     1.0000 0.85860  0.83940  0.21610  Biso   1.000  H
  H123     1.0000 0.64140  0.33940  0.28390  Biso   1.000  H
  H124     1.0000 0.14140  0.83940  0.28390  Biso   1.000  H
  H125     1.0000 0.64140  0.66060  0.78390  Biso   1.000  H
  H126     1.0000 0.14140  0.16060  0.78390  Biso   1.000  H
  H127     1.0000 0.35860  0.66060  0.71610  Biso   1.000  H
  H128     1.0000 0.85860  0.16060  0.71610  Biso   1.000  H
  H129     1.0000 0.41170  0.31660  0.32440  Biso   1.000  H
  H130     1.0000 0.91170  0.81660  0.32440  Biso   1.000  H
  H131     1.0000 0.58830  0.31660  0.17560  Biso   1.000  H
  H132     1.0000 0.08830  0.81660  0.17560  Biso   1.000  H
  H133     1.0000 0.58830  0.68340  0.67560  Biso   1.000  H
  H134     1.0000 0.08830  0.18340  0.67560  Biso   1.000  H
  H135     1.0000 0.41170  0.68340  0.82440  Biso   1.000  H
  H136     1.0000 0.91170  0.18340  0.82440  Biso   1.000  H
  O101     1.0000 0.35810  0.22160  0.07110  Biso   1.000  O
  O102     1.0000 0.85810  0.72160  0.07110  Biso   1.000  O
  O103     1.0000 0.64190  0.22160  0.42890  Biso   1.000  O
  O104     1.0000 0.14190  0.72160  0.42890  Biso   1.000  O
  O105     1.0000 0.64190  0.77840  0.92890  Biso   1.000  O
  O106     1.0000 0.14190  0.27840  0.92890  Biso   1.000  O
  O107     1.0000 0.35810  0.77840  0.57110  Biso   1.000  O
  O108     1.0000 0.85810  0.27840  0.57110  Biso   1.000  O
  H137     1.0000 0.34850  0.23610  0.01130  Biso   1.000  H
  H138     1.0000 0.84850  0.73610  0.01130  Biso   1.000  H
  H139     1.0000 0.65150  0.23610  0.48870  Biso   1.000  H
  H140     1.0000 0.15150  0.73610  0.48870  Biso   1.000  H
  H141     1.0000 0.65150  0.76390  0.98870  Biso   1.000  H
  H142     1.0000 0.15150  0.26390  0.98870  Biso   1.000  H
  H143     1.0000 0.34850  0.76390  0.51130  Biso   1.000  H
  H144     1.0000 0.84850  0.26390  0.51130  Biso   1.000  H
  H145     1.0000 0.33280  0.19000  0.05980  Biso   1.000  H
  H146     1.0000 0.83280  0.69000  0.05980  Biso   1.000  H
  H147     1.0000 0.66720  0.19000  0.44020  Biso   1.000  H
  H148     1.0000 0.16720  0.69000  0.44020  Biso   1.000  H
  H149     1.0000 0.66720  0.81000  0.94020  Biso   1.000  H
  H150     1.0000 0.16720  0.31000  0.94020  Biso   1.000  H
  H151     1.0000 0.33280  0.81000  0.55980  Biso   1.000  H
  H152     1.0000 0.83280  0.31000  0.55980  Biso   1.000  H
  O109     1.0000 0.57350  0.38230  0.38670  Biso   1.000  O
  O110     1.0000 0.07350  0.88230  0.38670  Biso   1.000  O
  O111     1.0000 0.42650  0.38230  0.11330  Biso   1.000  O
  O112     1.0000 0.92650  0.88230  0.11330  Biso   1.000  O
  O113     1.0000 0.42650  0.61770  0.61330  Biso   1.000  O
  O114     1.0000 0.92650  0.11770  0.61330  Biso   1.000  O
  O115     1.0000 0.57350  0.61770  0.88670  Biso   1.000  O
  O116     1.0000 0.07350  0.11770  0.88670  Biso   1.000  O
