data_image0
_cell_length_a       13.314
_cell_length_b       12.901
_cell_length_c       8.9039
_cell_angle_alpha    90
_cell_angle_beta     99.26
_cell_angle_gamma    90

_symmetry_space_group_name_H-M    "P 1"
_symmetry_int_tables_number       1

loop_
  _symmetry_equiv_pos_as_xyz
  'x, y, z'

loop_
  _atom_site_label
  _atom_site_occupancy
  _atom_site_fract_x
  _atom_site_fract_y
  _atom_site_fract_z
  _atom_site_thermal_displace_type
  _atom_site_B_iso_or_equiv
  _atom_site_type_symbol
  Cu1      1.0000 0.07552  0.00000  0.86914  Biso   1.000  Cu
  Cu2      1.0000 0.57552  0.50000  0.86914  Biso   1.000  Cu
  Cu3      1.0000 0.92448  0.00000  0.13086  Biso   1.000  Cu
  Cu4      1.0000 0.42448  0.50000  0.13086  Biso   1.000  Cu
  P1       1.0000 0.33989  0.00000  0.69642  Biso   1.000  P
  P2       1.0000 0.83989  0.50000  0.69642  Biso   1.000  P
  P3       1.0000 0.66011  0.00000  0.30358  Biso   1.000  P
  P4       1.0000 0.16011  0.50000  0.30358  Biso   1.000  P
  N1       1.0000 0.07933  0.15535  0.82870  Biso   1.000  N
  N2       1.0000 0.57933  0.65535  0.82870  Biso   1.000  N
  N3       1.0000 0.92067  0.15535  0.17130  Biso   1.000  N
  N4       1.0000 0.42067  0.65535  0.17130  Biso   1.000  N
  N5       1.0000 0.92067  0.84465  0.17130  Biso   1.000  N
  N6       1.0000 0.42067  0.34465  0.17130  Biso   1.000  N
  N7       1.0000 0.07933  0.84465  0.82870  Biso   1.000  N
  N8       1.0000 0.57933  0.34465  0.82870  Biso   1.000  N
  N9       1.0000 0.04260  0.00000  0.64460  Biso   1.000  N
  N10      1.0000 0.54260  0.50000  0.64460  Biso   1.000  N
  N11      1.0000 0.95740  0.00000  0.35540  Biso   1.000  N
  N12      1.0000 0.45740  0.50000  0.35540  Biso   1.000  N
  C1       1.0000 0.11500  0.22840  0.93050  Biso   1.000  C
  C2       1.0000 0.61500  0.72840  0.93050  Biso   1.000  C
  C3       1.0000 0.88500  0.22840  0.06950  Biso   1.000  C
  C4       1.0000 0.38500  0.72840  0.06950  Biso   1.000  C
  C5       1.0000 0.88500  0.77160  0.06950  Biso   1.000  C
  C6       1.0000 0.38500  0.27160  0.06950  Biso   1.000  C
  C7       1.0000 0.11500  0.77160  0.93050  Biso   1.000  C
  C8       1.0000 0.61500  0.27160  0.93050  Biso   1.000  C
  H1       1.0000 0.12280  0.21240  0.03470  Biso   1.000  H
  H2       1.0000 0.62280  0.71240  0.03470  Biso   1.000  H
  H3       1.0000 0.87720  0.21240  0.96530  Biso   1.000  H
  H4       1.0000 0.37720  0.71240  0.96530  Biso   1.000  H
  H5       1.0000 0.87720  0.78760  0.96530  Biso   1.000  H
  H6       1.0000 0.37720  0.28760  0.96530  Biso   1.000  H
  H7       1.0000 0.12280  0.78760  0.03470  Biso   1.000  H
  H8       1.0000 0.62280  0.28760  0.03470  Biso   1.000  H
  C9       1.0000 0.14090  0.32710  0.88700  Biso   1.000  C
  C10      1.0000 0.64090  0.82710  0.88700  Biso   1.000  C
  C11      1.0000 0.85910  0.32710  0.11300  Biso   1.000  C
  C12      1.0000 0.35910  0.82710  0.11300  Biso   1.000  C
  C13      1.0000 0.85910  0.67290  0.11300  Biso   1.000  C
  C14      1.0000 0.35910  0.17290  0.11300  Biso   1.000  C
  C15      1.0000 0.14090  0.67290  0.88700  Biso   1.000  C
  C16      1.0000 0.64090  0.17290  0.88700  Biso   1.000  C
  H9       1.0000 0.16160  0.37830  0.96060  Biso   1.000  H
  H10      1.0000 0.66160  0.87830  0.96060  Biso   1.000  H
  H11      1.0000 0.83840  0.37830  0.03940  Biso   1.000  H
  H12      1.0000 0.33840  0.87830  0.03940  Biso   1.000  H
  H13      1.0000 0.83840  0.62170  0.03940  Biso   1.000  H
  H14      1.0000 0.33840  0.12170  0.03940  Biso   1.000  H
  H15      1.0000 0.16160  0.62170  0.96060  Biso   1.000  H
  H16      1.0000 0.66160  0.12170  0.96060  Biso   1.000  H
  C17      1.0000 0.13580  0.34890  0.73390  Biso   1.000  C
  C18      1.0000 0.63580  0.84890  0.73390  Biso   1.000  C
  C19      1.0000 0.86420  0.34890  0.26610  Biso   1.000  C
  C20      1.0000 0.36420  0.84890  0.26610  Biso   1.000  C
  C21      1.0000 0.86420  0.65110  0.26610  Biso   1.000  C
  C22      1.0000 0.36420  0.15110  0.26610  Biso   1.000  C
  C23      1.0000 0.13580  0.65110  0.73390  Biso   1.000  C
  C24      1.0000 0.63580  0.15110  0.73390  Biso   1.000  C
  H17      1.0000 0.15890  0.41300  0.70240  Biso   1.000  H
  H18      1.0000 0.65890  0.91300  0.70240  Biso   1.000  H
  H19      1.0000 0.84110  0.41300  0.29760  Biso   1.000  H
  H20      1.0000 0.34110  0.91300  0.29760  Biso   1.000  H
  H21      1.0000 0.84110  0.58700  0.29760  Biso   1.000  H
  H22      1.0000 0.34110  0.08700  0.29760  Biso   1.000  H
  H23      1.0000 0.15890  0.58700  0.70240  Biso   1.000  H
  H24      1.0000 0.65890  0.08700  0.70240  Biso   1.000  H
  C25      1.0000 0.09570  0.27440  0.62620  Biso   1.000  C
  C26      1.0000 0.59570  0.77440  0.62620  Biso   1.000  C
  C27      1.0000 0.90430  0.27440  0.37380  Biso   1.000  C
  C28      1.0000 0.40430  0.77440  0.37380  Biso   1.000  C
  C29      1.0000 0.90430  0.72560  0.37380  Biso   1.000  C
  C30      1.0000 0.40430  0.22560  0.37380  Biso   1.000  C
  C31      1.0000 0.09570  0.72560  0.62620  Biso   1.000  C
  C32      1.0000 0.59570  0.22560  0.62620  Biso   1.000  C
  H25      1.0000 0.08960  0.28810  0.52150  Biso   1.000  H
  H26      1.0000 0.58960  0.78810  0.52150  Biso   1.000  H
  H27      1.0000 0.91040  0.28810  0.47850  Biso   1.000  H
  H28      1.0000 0.41040  0.78810  0.47850  Biso   1.000  H
  H29      1.0000 0.91040  0.71190  0.47850  Biso   1.000  H
  H30      1.0000 0.41040  0.21190  0.47850  Biso   1.000  H
  H31      1.0000 0.08960  0.71190  0.52150  Biso   1.000  H
  H32      1.0000 0.58960  0.21190  0.52150  Biso   1.000  H
  C33      1.0000 0.06520  0.17980  0.67800  Biso   1.000  C
  C34      1.0000 0.56520  0.67980  0.67800  Biso   1.000  C
  C35      1.0000 0.93480  0.17980  0.32200  Biso   1.000  C
  C36      1.0000 0.43480  0.67980  0.32200  Biso   1.000  C
  C37      1.0000 0.93480  0.82020  0.32200  Biso   1.000  C
  C38      1.0000 0.43480  0.32020  0.32200  Biso   1.000  C
  C39      1.0000 0.06520  0.82020  0.67800  Biso   1.000  C
  C40      1.0000 0.56520  0.32020  0.67800  Biso   1.000  C
  C41      1.0000 0.02400  0.09240  0.57650  Biso   1.000  C
  C42      1.0000 0.52400  0.59240  0.57650  Biso   1.000  C
  C43      1.0000 0.97600  0.09240  0.42350  Biso   1.000  C
  C44      1.0000 0.47600  0.59240  0.42350  Biso   1.000  C
  C45      1.0000 0.97600  0.90760  0.42350  Biso   1.000  C
  C46      1.0000 0.47600  0.40760  0.42350  Biso   1.000  C
  C47      1.0000 0.02400  0.90760  0.57650  Biso   1.000  C
  C48      1.0000 0.52400  0.40760  0.57650  Biso   1.000  C
  F1       1.0000 0.34170  0.12170  0.70130  Biso   1.000  F
  F2       1.0000 0.84170  0.62170  0.70130  Biso   1.000  F
  F3       1.0000 0.65830  0.12170  0.29870  Biso   1.000  F
  F4       1.0000 0.15830  0.62170  0.29870  Biso   1.000  F
  F5       1.0000 0.65830  0.87830  0.29870  Biso   1.000  F
  F6       1.0000 0.15830  0.37830  0.29870  Biso   1.000  F
  F7       1.0000 0.34170  0.87830  0.70130  Biso   1.000  F
  F8       1.0000 0.84170  0.37830  0.70130  Biso   1.000  F
  F9       1.0000 0.24820  0.00000  0.56410  Biso   1.000  F
  F10      1.0000 0.74820  0.50000  0.56410  Biso   1.000  F
  F11      1.0000 0.75180  0.00000  0.43590  Biso   1.000  F
  F12      1.0000 0.25180  0.50000  0.43590  Biso   1.000  F
  F13      1.0000 0.41540  0.00000  0.57420  Biso   1.000  F
  F14      1.0000 0.91540  0.50000  0.57420  Biso   1.000  F
  F15      1.0000 0.58460  0.00000  0.42580  Biso   1.000  F
  F16      1.0000 0.08460  0.50000  0.42580  Biso   1.000  F
  F17      1.0000 0.43120  0.00000  0.83460  Biso   1.000  F
  F18      1.0000 0.93120  0.50000  0.83460  Biso   1.000  F
  F19      1.0000 0.56880  0.00000  0.16540  Biso   1.000  F
  F20      1.0000 0.06880  0.50000  0.16540  Biso   1.000  F
  F21      1.0000 0.26200  0.00000  0.81980  Biso   1.000  F
  F22      1.0000 0.76200  0.50000  0.81980  Biso   1.000  F
  F23      1.0000 0.73800  0.00000  0.18020  Biso   1.000  F
  F24      1.0000 0.23800  0.50000  0.18020  Biso   1.000  F
  Cl1      1.0000 0.12766  0.00000  0.12157  Biso   1.000  Cl
  Cl2      1.0000 0.62766  0.50000  0.12157  Biso   1.000  Cl
  Cl3      1.0000 0.87234  0.00000  0.87843  Biso   1.000  Cl
  Cl4      1.0000 0.37234  0.50000  0.87843  Biso   1.000  Cl
