data_image0
_cell_length_a       18.2284
_cell_length_b       6.6962
_cell_length_c       14.9753
_cell_angle_alpha    90
_cell_angle_beta     114.218
_cell_angle_gamma    90

_symmetry_space_group_name_H-M    "P 1"
_symmetry_int_tables_number       1

loop_
  _symmetry_equiv_pos_as_xyz
  'x, y, z'

loop_
  _atom_site_label
  _atom_site_occupancy
  _atom_site_fract_x
  _atom_site_fract_y
  _atom_site_fract_z
  _atom_site_thermal_displace_type
  _atom_site_B_iso_or_equiv
  _atom_site_type_symbol
  C1       1.0000 0.27050  0.96430  0.58960  Biso   1.000  C
  C2       1.0000 0.72950  0.46430  0.91040  Biso   1.000  C
  C3       1.0000 0.72950  0.03570  0.41040  Biso   1.000  C
  C4       1.0000 0.27050  0.53570  0.08960  Biso   1.000  C
  H1       1.0000 0.26040  0.83840  0.61740  Biso   1.000  H
  H2       1.0000 0.73960  0.33840  0.88260  Biso   1.000  H
  H3       1.0000 0.73960  0.16160  0.38260  Biso   1.000  H
  H4       1.0000 0.26040  0.66160  0.11740  Biso   1.000  H
  H5       1.0000 0.31170  0.04130  0.64330  Biso   1.000  H
  H6       1.0000 0.68830  0.54130  0.85670  Biso   1.000  H
  H7       1.0000 0.68830  0.95870  0.35670  Biso   1.000  H
  H8       1.0000 0.31170  0.45870  0.14330  Biso   1.000  H
  C5       1.0000 0.30080  0.91770  0.51160  Biso   1.000  C
  C6       1.0000 0.69920  0.41770  0.98840  Biso   1.000  C
  C7       1.0000 0.69920  0.08230  0.48840  Biso   1.000  C
  C8       1.0000 0.30080  0.58230  0.01160  Biso   1.000  C
  H9       1.0000 0.35510  0.85700  0.54140  Biso   1.000  H
  H10      1.0000 0.64490  0.35700  0.95860  Biso   1.000  H
  H11      1.0000 0.64490  0.14300  0.45860  Biso   1.000  H
  H12      1.0000 0.35510  0.64300  0.04140  Biso   1.000  H
  H13      1.0000 0.26410  0.82340  0.46280  Biso   1.000  H
  H14      1.0000 0.73590  0.32340  0.03720  Biso   1.000  H
  H15      1.0000 0.73590  0.17660  0.53720  Biso   1.000  H
  H16      1.0000 0.26410  0.67660  0.96280  Biso   1.000  H
  C9       1.0000 0.36560  0.15770  0.44850  Biso   1.000  C
  C10      1.0000 0.63440  0.65770  0.05150  Biso   1.000  C
  C11      1.0000 0.63440  0.84230  0.55150  Biso   1.000  C
  C12      1.0000 0.36560  0.34230  0.94850  Biso   1.000  C
  H17      1.0000 0.40910  0.06590  0.46700  Biso   1.000  H
  H18      1.0000 0.59090  0.56590  0.03300  Biso   1.000  H
  H19      1.0000 0.59090  0.93410  0.53300  Biso   1.000  H
  H20      1.0000 0.40910  0.43410  0.96700  Biso   1.000  H
  C13      1.0000 0.37310  0.34280  0.40380  Biso   1.000  C
  C14      1.0000 0.62690  0.84280  0.09620  Biso   1.000  C
  C15      1.0000 0.62690  0.65720  0.59620  Biso   1.000  C
  C16      1.0000 0.37310  0.15720  0.90380  Biso   1.000  C
  C17      1.0000 0.31184  0.49290  0.37340  Biso   1.000  C
  C18      1.0000 0.68816  0.99290  0.12660  Biso   1.000  C
  C19      1.0000 0.68816  0.50710  0.62660  Biso   1.000  C
  C20      1.0000 0.31184  0.00710  0.87340  Biso   1.000  C
  C21      1.0000 0.32820  0.67290  0.33440  Biso   1.000  C
  C22      1.0000 0.67180  0.17290  0.16560  Biso   1.000  C
  C23      1.0000 0.67180  0.32710  0.66560  Biso   1.000  C
  C24      1.0000 0.32820  0.82710  0.83440  Biso   1.000  C
  H21      1.0000 0.28840  0.77460  0.31360  Biso   1.000  H
  H22      1.0000 0.71160  0.27460  0.18640  Biso   1.000  H
  H23      1.0000 0.71160  0.22540  0.68640  Biso   1.000  H
  H24      1.0000 0.28840  0.72540  0.81360  Biso   1.000  H
  C25      1.0000 0.39920  0.70510  0.32570  Biso   1.000  C
  C26      1.0000 0.60080  0.20510  0.17430  Biso   1.000  C
  C27      1.0000 0.60080  0.29490  0.67430  Biso   1.000  C
  C28      1.0000 0.39920  0.79490  0.82570  Biso   1.000  C
  H25      1.0000 0.40870  0.82720  0.29990  Biso   1.000  H
  H26      1.0000 0.59130  0.32720  0.20010  Biso   1.000  H
  H27      1.0000 0.59130  0.17280  0.70010  Biso   1.000  H
  H28      1.0000 0.40870  0.67280  0.79990  Biso   1.000  H
  C29      1.0000 0.45740  0.55480  0.35540  Biso   1.000  C
  C30      1.0000 0.54260  0.05480  0.14460  Biso   1.000  C
  C31      1.0000 0.54260  0.44520  0.64460  Biso   1.000  C
  C32      1.0000 0.45740  0.94520  0.85540  Biso   1.000  C
  C33      1.0000 0.44587  0.37770  0.39370  Biso   1.000  C
  C34      1.0000 0.55413  0.87770  0.10630  Biso   1.000  C
  C35      1.0000 0.55413  0.62230  0.60630  Biso   1.000  C
  C36      1.0000 0.44587  0.12230  0.89370  Biso   1.000  C
  H29      1.0000 0.48670  0.27850  0.41350  Biso   1.000  H
  H30      1.0000 0.51330  0.77850  0.08650  Biso   1.000  H
  H31      1.0000 0.51330  0.72150  0.58650  Biso   1.000  H
  H32      1.0000 0.48670  0.22150  0.91350  Biso   1.000  H
  C37      1.0000 0.18635  0.21670  0.62100  Biso   1.000  C
  C38      1.0000 0.81365  0.71670  0.87900  Biso   1.000  C
  C39      1.0000 0.81365  0.78330  0.37900  Biso   1.000  C
  C40      1.0000 0.18635  0.28330  0.12100  Biso   1.000  C
  H33      1.0000 0.19440  0.13730  0.68010  Biso   1.000  H
  H34      1.0000 0.80560  0.63730  0.81990  Biso   1.000  H
  H35      1.0000 0.80560  0.86270  0.31990  Biso   1.000  H
  H36      1.0000 0.19440  0.36270  0.18010  Biso   1.000  H
  H37      1.0000 0.13100  0.27120  0.59480  Biso   1.000  H
  H38      1.0000 0.86900  0.77120  0.90520  Biso   1.000  H
  H39      1.0000 0.86900  0.72880  0.40520  Biso   1.000  H
  H40      1.0000 0.13100  0.22880  0.09480  Biso   1.000  H
  C41      1.0000 0.24580  0.38920  0.65010  Biso   1.000  C
  C42      1.0000 0.75420  0.88920  0.84990  Biso   1.000  C
  C43      1.0000 0.75420  0.61080  0.34990  Biso   1.000  C
  C44      1.0000 0.24580  0.11080  0.15010  Biso   1.000  C
  H41      1.0000 0.23760  0.47010  0.59230  Biso   1.000  H
  H42      1.0000 0.76240  0.97010  0.90770  Biso   1.000  H
  H43      1.0000 0.76240  0.52990  0.40770  Biso   1.000  H
  H44      1.0000 0.23760  0.02990  0.09230  Biso   1.000  H
  H45      1.0000 0.30080  0.33650  0.67790  Biso   1.000  H
  H46      1.0000 0.69920  0.83650  0.82210  Biso   1.000  H
  H47      1.0000 0.69920  0.66350  0.32210  Biso   1.000  H
  H48      1.0000 0.30080  0.16350  0.17790  Biso   1.000  H
  H49      1.0000 0.23740  0.47210  0.69910  Biso   1.000  H
  H50      1.0000 0.76260  0.97210  0.80090  Biso   1.000  H
  H51      1.0000 0.76260  0.52790  0.30090  Biso   1.000  H
  H52      1.0000 0.23740  0.02790  0.19910  Biso   1.000  H
  C45      1.0000 0.12265  0.94990  0.50300  Biso   1.000  C
  C46      1.0000 0.87735  0.44990  0.99700  Biso   1.000  C
  C47      1.0000 0.87735  0.05010  0.49700  Biso   1.000  C
  C48      1.0000 0.12265  0.55010  0.00300  Biso   1.000  C
  H53      1.0000 0.13330  0.84880  0.46150  Biso   1.000  H
  H54      1.0000 0.86670  0.34880  0.03850  Biso   1.000  H
  H55      1.0000 0.86670  0.15120  0.53850  Biso   1.000  H
  H56      1.0000 0.13330  0.65120  0.96150  Biso   1.000  H
  H57      1.0000 0.07650  0.03160  0.45960  Biso   1.000  H
  H58      1.0000 0.92350  0.53160  0.04040  Biso   1.000  H
  H59      1.0000 0.92350  0.96840  0.54040  Biso   1.000  H
  H60      1.0000 0.07650  0.46840  0.95960  Biso   1.000  H
  C49      1.0000 0.09810  0.84120  0.57600  Biso   1.000  C
  C50      1.0000 0.90190  0.34120  0.92400  Biso   1.000  C
  C51      1.0000 0.90190  0.15880  0.42400  Biso   1.000  C
  C52      1.0000 0.09810  0.65880  0.07600  Biso   1.000  C
  H61      1.0000 0.05440  0.74770  0.54090  Biso   1.000  H
  H62      1.0000 0.94560  0.24770  0.95910  Biso   1.000  H
  H63      1.0000 0.94560  0.25230  0.45910  Biso   1.000  H
  H64      1.0000 0.05440  0.75230  0.04090  Biso   1.000  H
  H65      1.0000 0.07980  0.93870  0.61130  Biso   1.000  H
  H66      1.0000 0.92020  0.43870  0.88870  Biso   1.000  H
  H67      1.0000 0.92020  0.06130  0.38870  Biso   1.000  H
  H68      1.0000 0.07980  0.56130  0.11130  Biso   1.000  H
  H69      1.0000 0.14430  0.76750  0.62280  Biso   1.000  H
  H70      1.0000 0.85570  0.26750  0.87720  Biso   1.000  H
  H71      1.0000 0.85570  0.23250  0.37720  Biso   1.000  H
  H72      1.0000 0.14430  0.73250  0.12280  Biso   1.000  H
  C53      1.0000 0.07990  0.07160  0.23500  Biso   1.000  C
  C54      1.0000 0.92010  0.57160  0.26500  Biso   1.000  C
  C55      1.0000 0.92010  0.92840  0.76500  Biso   1.000  C
  C56      1.0000 0.07990  0.42840  0.73500  Biso   1.000  C
  C57      1.0000 0.95310  0.99500  0.12580  Biso   1.000  C
  C58      1.0000 0.04690  0.49500  0.37420  Biso   1.000  C
  C59      1.0000 0.04690  0.00500  0.87420  Biso   1.000  C
  C60      1.0000 0.95310  0.50500  0.62580  Biso   1.000  C
  N1       1.0000 0.19463  0.08260  0.54610  Biso   1.000  N
  N2       1.0000 0.80537  0.58260  0.95390  Biso   1.000  N
  N3       1.0000 0.80537  0.91740  0.45390  Biso   1.000  N
  N4       1.0000 0.19463  0.41740  0.04610  Biso   1.000  N
  N5       1.0000 0.30357  0.10800  0.46510  Biso   1.000  N
  N6       1.0000 0.69643  0.60800  0.03490  Biso   1.000  N
  N7       1.0000 0.69643  0.89200  0.53490  Biso   1.000  N
  N8       1.0000 0.30357  0.39200  0.96510  Biso   1.000  N
  N9       1.0000 0.53396  0.58870  0.34770  Biso   1.000  N
  N10      1.0000 0.46604  0.08870  0.15230  Biso   1.000  N
  N11      1.0000 0.46604  0.41130  0.65230  Biso   1.000  N
  N12      1.0000 0.53396  0.91130  0.84770  Biso   1.000  N
  N13      1.0000 0.14051  0.05590  0.30340  Biso   1.000  N
  N14      1.0000 0.85949  0.55590  0.19660  Biso   1.000  N
  N15      1.0000 0.85949  0.94410  0.69660  Biso   1.000  N
  N16      1.0000 0.14051  0.44410  0.80340  Biso   1.000  N
  N17      1.0000 0.01600  0.11040  0.15560  Biso   1.000  N
  N18      1.0000 0.98400  0.61040  0.34440  Biso   1.000  N
  N19      1.0000 0.98400  0.88960  0.84440  Biso   1.000  N
  N20      1.0000 0.01600  0.38960  0.65560  Biso   1.000  N
  N21      1.0000 0.89383  0.90530  0.08910  Biso   1.000  N
  N22      1.0000 0.10617  0.40530  0.41090  Biso   1.000  N
  N23      1.0000 0.10617  0.09470  0.91090  Biso   1.000  N
  N24      1.0000 0.89383  0.59470  0.58910  Biso   1.000  N
  O1       1.0000 0.24295  0.47410  0.37871  Biso   1.000  O
  O2       1.0000 0.75705  0.97410  0.12129  Biso   1.000  O
  O3       1.0000 0.75705  0.52590  0.62129  Biso   1.000  O
  O4       1.0000 0.24295  0.02590  0.87871  Biso   1.000  O
  O5       1.0000 0.58391  0.45270  0.37070  Biso   1.000  O
  O6       1.0000 0.41609  0.95270  0.12930  Biso   1.000  O
  O7       1.0000 0.41609  0.54730  0.62930  Biso   1.000  O
  O8       1.0000 0.58391  0.04730  0.87070  Biso   1.000  O
  O9       1.0000 0.54529  0.75290  0.31850  Biso   1.000  O
  O10      1.0000 0.45471  0.25290  0.18150  Biso   1.000  O
  O11      1.0000 0.45471  0.24710  0.68150  Biso   1.000  O
  O12      1.0000 0.54529  0.74710  0.81850  Biso   1.000  O
  Cu1      1.0000 0.20520  0.25680  0.43565  Biso   1.000  Cu
  Cu2      1.0000 0.79480  0.75680  0.06435  Biso   1.000  Cu
  Cu3      1.0000 0.79480  0.74320  0.56435  Biso   1.000  Cu
  Cu4      1.0000 0.20520  0.24320  0.93565  Biso   1.000  Cu
