data_image0
_cell_length_a       19.848
_cell_length_b       13.247
_cell_length_c       12.243
_cell_angle_alpha    90
_cell_angle_beta     119.36
_cell_angle_gamma    90

_symmetry_space_group_name_H-M    "P 1"
_symmetry_int_tables_number       1

loop_
  _symmetry_equiv_pos_as_xyz
  'x, y, z'

loop_
  _atom_site_label
  _atom_site_occupancy
  _atom_site_fract_x
  _atom_site_fract_y
  _atom_site_fract_z
  _atom_site_thermal_displace_type
  _atom_site_B_iso_or_equiv
  _atom_site_type_symbol
  Cu1      1.0000 0.50000  0.66931  0.25000  Biso   1.000  Cu
  Cu2      1.0000 0.00000  0.16931  0.25000  Biso   1.000  Cu
  Cu3      1.0000 0.50000  0.33069  0.75000  Biso   1.000  Cu
  Cu4      1.0000 0.00000  0.83069  0.75000  Biso   1.000  Cu
  O1       1.0000 0.38231  0.51783  0.09132  Biso   1.000  O
  O2       1.0000 0.61769  0.51783  0.40868  Biso   1.000  O
  O3       1.0000 0.88231  0.01783  0.09132  Biso   1.000  O
  O4       1.0000 0.11769  0.01783  0.40868  Biso   1.000  O
  O5       1.0000 0.61769  0.48217  0.90868  Biso   1.000  O
  O6       1.0000 0.38231  0.48217  0.59132  Biso   1.000  O
  O7       1.0000 0.11769  0.98217  0.90868  Biso   1.000  O
  O8       1.0000 0.88231  0.98217  0.59132  Biso   1.000  O
  O9       1.0000 0.44432  0.56745  0.29065  Biso   1.000  O
  O10      1.0000 0.55568  0.56745  0.20935  Biso   1.000  O
  O11      1.0000 0.94432  0.06745  0.29065  Biso   1.000  O
  O12      1.0000 0.05568  0.06745  0.20935  Biso   1.000  O
  O13      1.0000 0.55568  0.43255  0.70935  Biso   1.000  O
  O14      1.0000 0.44432  0.43255  0.79065  Biso   1.000  O
  O15      1.0000 0.05568  0.93255  0.70935  Biso   1.000  O
  O16      1.0000 0.94432  0.93255  0.79065  Biso   1.000  O
  O17      1.0000 0.36971  0.77538  0.13374  Biso   1.000  O
  O18      1.0000 0.63029  0.77538  0.36626  Biso   1.000  O
  O19      1.0000 0.86971  0.27538  0.13374  Biso   1.000  O
  O20      1.0000 0.13029  0.27538  0.36626  Biso   1.000  O
  O21      1.0000 0.63029  0.22462  0.86626  Biso   1.000  O
  O22      1.0000 0.36971  0.22462  0.63374  Biso   1.000  O
  O23      1.0000 0.13029  0.72462  0.86626  Biso   1.000  O
  O24      1.0000 0.86971  0.72462  0.63374  Biso   1.000  O
  O25      1.0000 0.46595  0.77425  0.32847  Biso   1.000  O
  O26      1.0000 0.53405  0.77425  0.17153  Biso   1.000  O
  O27      1.0000 0.96595  0.27425  0.32847  Biso   1.000  O
  O28      1.0000 0.03405  0.27425  0.17153  Biso   1.000  O
  O29      1.0000 0.53405  0.22575  0.67153  Biso   1.000  O
  O30      1.0000 0.46595  0.22575  0.82847  Biso   1.000  O
  O31      1.0000 0.03405  0.72575  0.67153  Biso   1.000  O
  O32      1.0000 0.96595  0.72575  0.82847  Biso   1.000  O
  N1       1.0000 0.30554  0.26101  0.30387  Biso   1.000  N
  N2       1.0000 0.69446  0.26101  0.19613  Biso   1.000  N
  N3       1.0000 0.80554  0.76101  0.30387  Biso   1.000  N
  N4       1.0000 0.19446  0.76101  0.19613  Biso   1.000  N
  N5       1.0000 0.69446  0.73899  0.69613  Biso   1.000  N
  N6       1.0000 0.30554  0.73899  0.80387  Biso   1.000  N
  N7       1.0000 0.19446  0.23899  0.69613  Biso   1.000  N
  N8       1.0000 0.80554  0.23899  0.80387  Biso   1.000  N
  C1       1.0000 0.39966  0.50900  0.20197  Biso   1.000  C
  C2       1.0000 0.60034  0.50900  0.29803  Biso   1.000  C
  C3       1.0000 0.89966  0.00900  0.20197  Biso   1.000  C
  C4       1.0000 0.10034  0.00900  0.29803  Biso   1.000  C
  C5       1.0000 0.60034  0.49100  0.79803  Biso   1.000  C
  C6       1.0000 0.39966  0.49100  0.70197  Biso   1.000  C
  C7       1.0000 0.10034  0.99100  0.79803  Biso   1.000  C
  C8       1.0000 0.89966  0.99100  0.70197  Biso   1.000  C
  C9       1.0000 0.36571  0.42273  0.23932  Biso   1.000  C
  C10      1.0000 0.63429  0.42273  0.26068  Biso   1.000  C
  C11      1.0000 0.86571  0.92273  0.23932  Biso   1.000  C
  C12      1.0000 0.13429  0.92273  0.26068  Biso   1.000  C
  C13      1.0000 0.63429  0.57727  0.76068  Biso   1.000  C
  C14      1.0000 0.36571  0.57727  0.73932  Biso   1.000  C
  C15      1.0000 0.13429  0.07727  0.76068  Biso   1.000  C
  C16      1.0000 0.86571  0.07727  0.73932  Biso   1.000  C
  C17      1.0000 0.40071  0.38891  0.36280  Biso   1.000  C
  C18      1.0000 0.59929  0.38891  0.13720  Biso   1.000  C
  C19      1.0000 0.90071  0.88891  0.36280  Biso   1.000  C
  C20      1.0000 0.09929  0.88891  0.13720  Biso   1.000  C
  C21      1.0000 0.59929  0.61109  0.63720  Biso   1.000  C
  C22      1.0000 0.40071  0.61109  0.86280  Biso   1.000  C
  C23      1.0000 0.09929  0.11109  0.63720  Biso   1.000  C
  C24      1.0000 0.90071  0.11109  0.86280  Biso   1.000  C
  H1       1.0000 0.44460  0.42100  0.42440  Biso   1.000  H
  H2       1.0000 0.55540  0.42100  0.07560  Biso   1.000  H
  H3       1.0000 0.94460  0.92100  0.42440  Biso   1.000  H
  H4       1.0000 0.05540  0.92100  0.07560  Biso   1.000  H
  H5       1.0000 0.55540  0.57900  0.57560  Biso   1.000  H
  H6       1.0000 0.44460  0.57900  0.92440  Biso   1.000  H
  H7       1.0000 0.05540  0.07900  0.57560  Biso   1.000  H
  H8       1.0000 0.94460  0.07900  0.92440  Biso   1.000  H
  C25      1.0000 0.36963  0.30727  0.39310  Biso   1.000  C
  C26      1.0000 0.63037  0.30727  0.10690  Biso   1.000  C
  C27      1.0000 0.86963  0.80727  0.39310  Biso   1.000  C
  C28      1.0000 0.13037  0.80727  0.10690  Biso   1.000  C
  C29      1.0000 0.63037  0.69273  0.60690  Biso   1.000  C
  C30      1.0000 0.36963  0.69273  0.89310  Biso   1.000  C
  C31      1.0000 0.13037  0.19273  0.60690  Biso   1.000  C
  C32      1.0000 0.86963  0.19273  0.89310  Biso   1.000  C
  H9       1.0000 0.39300  0.28410  0.47530  Biso   1.000  H
  H10      1.0000 0.60700  0.28410  0.02470  Biso   1.000  H
  H11      1.0000 0.89300  0.78410  0.47530  Biso   1.000  H
  H12      1.0000 0.10700  0.78410  0.02470  Biso   1.000  H
  H13      1.0000 0.60700  0.71590  0.52470  Biso   1.000  H
  H14      1.0000 0.39300  0.71590  0.97530  Biso   1.000  H
  H15      1.0000 0.10700  0.21590  0.52470  Biso   1.000  H
  H16      1.0000 0.89300  0.21590  0.97530  Biso   1.000  H
  C33      1.0000 0.27021  0.29397  0.18404  Biso   1.000  C
  C34      1.0000 0.72979  0.29397  0.31596  Biso   1.000  C
  C35      1.0000 0.77021  0.79397  0.18404  Biso   1.000  C
  C36      1.0000 0.22979  0.79397  0.31596  Biso   1.000  C
  C37      1.0000 0.72979  0.70603  0.81596  Biso   1.000  C
  C38      1.0000 0.27021  0.70603  0.68404  Biso   1.000  C
  C39      1.0000 0.22979  0.20603  0.81596  Biso   1.000  C
  C40      1.0000 0.77021  0.20603  0.68404  Biso   1.000  C
  H17      1.0000 0.22540  0.26220  0.12440  Biso   1.000  H
  H18      1.0000 0.77460  0.26220  0.37560  Biso   1.000  H
  H19      1.0000 0.72540  0.76220  0.12440  Biso   1.000  H
  H20      1.0000 0.27460  0.76220  0.37560  Biso   1.000  H
  H21      1.0000 0.77460  0.73780  0.87560  Biso   1.000  H
  H22      1.0000 0.22540  0.73780  0.62440  Biso   1.000  H
  H23      1.0000 0.27460  0.23780  0.87560  Biso   1.000  H
  H24      1.0000 0.72540  0.23780  0.62440  Biso   1.000  H
  C41      1.0000 0.29942  0.37311  0.14964  Biso   1.000  C
  C42      1.0000 0.70058  0.37311  0.35036  Biso   1.000  C
  C43      1.0000 0.79942  0.87311  0.14964  Biso   1.000  C
  C44      1.0000 0.20058  0.87311  0.35036  Biso   1.000  C
  C45      1.0000 0.70058  0.62689  0.85036  Biso   1.000  C
  C46      1.0000 0.29942  0.62689  0.64964  Biso   1.000  C
  C47      1.0000 0.20058  0.12689  0.85036  Biso   1.000  C
  C48      1.0000 0.79942  0.12689  0.64964  Biso   1.000  C
  H25      1.0000 0.27530  0.39410  0.06650  Biso   1.000  H
  H26      1.0000 0.72470  0.39410  0.43350  Biso   1.000  H
  H27      1.0000 0.77530  0.89410  0.06650  Biso   1.000  H
  H28      1.0000 0.22470  0.89410  0.43350  Biso   1.000  H
  H29      1.0000 0.72470  0.60590  0.93350  Biso   1.000  H
  H30      1.0000 0.27530  0.60590  0.56650  Biso   1.000  H
  H31      1.0000 0.22470  0.10590  0.93350  Biso   1.000  H
  H32      1.0000 0.77530  0.10590  0.56650  Biso   1.000  H
  C49      1.0000 0.27395  0.17029  0.33837  Biso   1.000  C
  C50      1.0000 0.72605  0.17029  0.16163  Biso   1.000  C
  C51      1.0000 0.77395  0.67029  0.33837  Biso   1.000  C
  C52      1.0000 0.22605  0.67029  0.16163  Biso   1.000  C
  C53      1.0000 0.72605  0.82971  0.66163  Biso   1.000  C
  C54      1.0000 0.27395  0.82971  0.83837  Biso   1.000  C
  C55      1.0000 0.22605  0.32971  0.66163  Biso   1.000  C
  C56      1.0000 0.77395  0.32971  0.83837  Biso   1.000  C
  H33      1.0000 0.28680  0.17470  0.42560  Biso   1.000  H
  H34      1.0000 0.71320  0.17470  0.07440  Biso   1.000  H
  H35      1.0000 0.78680  0.67470  0.42560  Biso   1.000  H
  H36      1.0000 0.21320  0.67470  0.07440  Biso   1.000  H
  H37      1.0000 0.71320  0.82530  0.57440  Biso   1.000  H
  H38      1.0000 0.28680  0.82530  0.92560  Biso   1.000  H
  H39      1.0000 0.21320  0.32530  0.57440  Biso   1.000  H
  H40      1.0000 0.78680  0.32530  0.92560  Biso   1.000  H
  H41      1.0000 0.21810  0.16860  0.28720  Biso   1.000  H
  H42      1.0000 0.78190  0.16860  0.21280  Biso   1.000  H
  H43      1.0000 0.71810  0.66860  0.28720  Biso   1.000  H
  H44      1.0000 0.28190  0.66860  0.21280  Biso   1.000  H
  H45      1.0000 0.78190  0.83140  0.71280  Biso   1.000  H
  H46      1.0000 0.21810  0.83140  0.78720  Biso   1.000  H
  H47      1.0000 0.28190  0.33140  0.71280  Biso   1.000  H
  H48      1.0000 0.71810  0.33140  0.78720  Biso   1.000  H
  C57      1.0000 0.30814  0.07563  0.31763  Biso   1.000  C
  C58      1.0000 0.69186  0.07563  0.18237  Biso   1.000  C
  C59      1.0000 0.80814  0.57563  0.31763  Biso   1.000  C
  C60      1.0000 0.19186  0.57563  0.18237  Biso   1.000  C
  C61      1.0000 0.69186  0.92437  0.68237  Biso   1.000  C
  C62      1.0000 0.30814  0.92437  0.81763  Biso   1.000  C
  C63      1.0000 0.19186  0.42437  0.68237  Biso   1.000  C
  C64      1.0000 0.80814  0.42437  0.81763  Biso   1.000  C
  C65      1.0000 0.37399  0.03257  0.41210  Biso   1.000  C
  C66      1.0000 0.62601  0.03257  0.08790  Biso   1.000  C
  C67      1.0000 0.87399  0.53257  0.41210  Biso   1.000  C
  C68      1.0000 0.12601  0.53257  0.08790  Biso   1.000  C
  C69      1.0000 0.62601  0.96743  0.58790  Biso   1.000  C
  C70      1.0000 0.37399  0.96743  0.91210  Biso   1.000  C
  C71      1.0000 0.12601  0.46743  0.58790  Biso   1.000  C
  C72      1.0000 0.87399  0.46743  0.91210  Biso   1.000  C
  H49      1.0000 0.39790  0.06170  0.49140  Biso   1.000  H
  H50      1.0000 0.60210  0.06170  0.00860  Biso   1.000  H
  H51      1.0000 0.89790  0.56170  0.49140  Biso   1.000  H
  H52      1.0000 0.10210  0.56170  0.00860  Biso   1.000  H
  H53      1.0000 0.60210  0.93830  0.50860  Biso   1.000  H
  H54      1.0000 0.39790  0.93830  0.99140  Biso   1.000  H
  H55      1.0000 0.10210  0.43830  0.50860  Biso   1.000  H
  H56      1.0000 0.89790  0.43830  0.99140  Biso   1.000  H
  C73      1.0000 0.40533  0.94591  0.39038  Biso   1.000  C
  C74      1.0000 0.59467  0.94591  0.10962  Biso   1.000  C
  C75      1.0000 0.90533  0.44591  0.39038  Biso   1.000  C
  C76      1.0000 0.09467  0.44591  0.10962  Biso   1.000  C
  C77      1.0000 0.59467  0.05409  0.60962  Biso   1.000  C
  C78      1.0000 0.40533  0.05409  0.89038  Biso   1.000  C
  C79      1.0000 0.09467  0.55409  0.60962  Biso   1.000  C
  C80      1.0000 0.90533  0.55409  0.89038  Biso   1.000  C
  H57      1.0000 0.44940  0.91670  0.45520  Biso   1.000  H
  H58      1.0000 0.55060  0.91670  0.04480  Biso   1.000  H
  H59      1.0000 0.94940  0.41670  0.45520  Biso   1.000  H
  H60      1.0000 0.05060  0.41670  0.04480  Biso   1.000  H
  H61      1.0000 0.55060  0.08330  0.54480  Biso   1.000  H
  H62      1.0000 0.44940  0.08330  0.95520  Biso   1.000  H
  H63      1.0000 0.05060  0.58330  0.54480  Biso   1.000  H
  H64      1.0000 0.94940  0.58330  0.95520  Biso   1.000  H
  C81      1.0000 0.37041  0.90318  0.27125  Biso   1.000  C
  C82      1.0000 0.62959  0.90318  0.22875  Biso   1.000  C
  C83      1.0000 0.87041  0.40318  0.27125  Biso   1.000  C
  C84      1.0000 0.12959  0.40318  0.22875  Biso   1.000  C
  C85      1.0000 0.62959  0.09682  0.72875  Biso   1.000  C
  C86      1.0000 0.37041  0.09682  0.77125  Biso   1.000  C
  C87      1.0000 0.12959  0.59682  0.72875  Biso   1.000  C
  C88      1.0000 0.87041  0.59682  0.77125  Biso   1.000  C
  C89      1.0000 0.30458  0.94576  0.17751  Biso   1.000  C
  C90      1.0000 0.69542  0.94576  0.32249  Biso   1.000  C
  C91      1.0000 0.80458  0.44576  0.17751  Biso   1.000  C
  C92      1.0000 0.19542  0.44576  0.32249  Biso   1.000  C
  C93      1.0000 0.69542  0.05424  0.82249  Biso   1.000  C
  C94      1.0000 0.30458  0.05424  0.67751  Biso   1.000  C
  C95      1.0000 0.19542  0.55424  0.82249  Biso   1.000  C
  C96      1.0000 0.80458  0.55424  0.67751  Biso   1.000  C
  H65      1.0000 0.28070  0.91730  0.09780  Biso   1.000  H
  H66      1.0000 0.71930  0.91730  0.40220  Biso   1.000  H
  H67      1.0000 0.78070  0.41730  0.09780  Biso   1.000  H
  H68      1.0000 0.21930  0.41730  0.40220  Biso   1.000  H
  H69      1.0000 0.71930  0.08270  0.90220  Biso   1.000  H
  H70      1.0000 0.28070  0.08270  0.59780  Biso   1.000  H
  H71      1.0000 0.21930  0.58270  0.90220  Biso   1.000  H
  H72      1.0000 0.78070  0.58270  0.59780  Biso   1.000  H
  C97      1.0000 0.27335  0.03103  0.20083  Biso   1.000  C
  C98      1.0000 0.72665  0.03103  0.29917  Biso   1.000  C
  C99      1.0000 0.77335  0.53103  0.20083  Biso   1.000  C
  C100     1.0000 0.22665  0.53103  0.29917  Biso   1.000  C
  C101     1.0000 0.72665  0.96897  0.79917  Biso   1.000  C
  C102     1.0000 0.27335  0.96897  0.70083  Biso   1.000  C
  C103     1.0000 0.22665  0.46897  0.79917  Biso   1.000  C
  C104     1.0000 0.77335  0.46897  0.70083  Biso   1.000  C
  H73      1.0000 0.22820  0.05870  0.13670  Biso   1.000  H
  H74      1.0000 0.77180  0.05870  0.36330  Biso   1.000  H
  H75      1.0000 0.72820  0.55870  0.13670  Biso   1.000  H
  H76      1.0000 0.27180  0.55870  0.36330  Biso   1.000  H
  H77      1.0000 0.77180  0.94130  0.86330  Biso   1.000  H
  H78      1.0000 0.22820  0.94130  0.63670  Biso   1.000  H
  H79      1.0000 0.27180  0.44130  0.86330  Biso   1.000  H
  H80      1.0000 0.72820  0.44130  0.63670  Biso   1.000  H
  C105     1.0000 0.40475  0.80993  0.24225  Biso   1.000  C
  C106     1.0000 0.59525  0.80993  0.25775  Biso   1.000  C
  C107     1.0000 0.90475  0.30993  0.24225  Biso   1.000  C
  C108     1.0000 0.09525  0.30993  0.25775  Biso   1.000  C
  C109     1.0000 0.59525  0.19007  0.75775  Biso   1.000  C
  C110     1.0000 0.40475  0.19007  0.74225  Biso   1.000  C
  C111     1.0000 0.09525  0.69007  0.75775  Biso   1.000  C
  C112     1.0000 0.90475  0.69007  0.74225  Biso   1.000  C
  O33      1.0000 0.10224  0.17251  0.01767  Biso   1.000  O
  O34      1.0000 0.89776  0.17251  0.48233  Biso   1.000  O
  O35      1.0000 0.60224  0.67251  0.01767  Biso   1.000  O
  O36      1.0000 0.39776  0.67251  0.48233  Biso   1.000  O
  O37      1.0000 0.89776  0.82749  0.98233  Biso   1.000  O
  O38      1.0000 0.10224  0.82749  0.51767  Biso   1.000  O
  O39      1.0000 0.39776  0.32749  0.98233  Biso   1.000  O
  O40      1.0000 0.60224  0.32749  0.51767  Biso   1.000  O
  H81      1.0000 0.09310  0.11860  0.05830  Biso   1.000  H
  H82      1.0000 0.90690  0.11860  0.44170  Biso   1.000  H
  H83      1.0000 0.59310  0.61860  0.05830  Biso   1.000  H
  H84      1.0000 0.40690  0.61860  0.44170  Biso   1.000  H
  H85      1.0000 0.90690  0.88140  0.94170  Biso   1.000  H
  H86      1.0000 0.09310  0.88140  0.55830  Biso   1.000  H
  H87      1.0000 0.40690  0.38140  0.94170  Biso   1.000  H
  H88      1.0000 0.59310  0.38140  0.55830  Biso   1.000  H
  H89      1.0000 0.16030  0.19000  0.06420  Biso   1.000  H
  H90      1.0000 0.83970  0.19000  0.43580  Biso   1.000  H
  H91      1.0000 0.66030  0.69000  0.06420  Biso   1.000  H
  H92      1.0000 0.33970  0.69000  0.43580  Biso   1.000  H
  H93      1.0000 0.83970  0.81000  0.93580  Biso   1.000  H
  H94      1.0000 0.16030  0.81000  0.56420  Biso   1.000  H
  H95      1.0000 0.33970  0.31000  0.93580  Biso   1.000  H
  H96      1.0000 0.66030  0.31000  0.56420  Biso   1.000  H
  O41      1.0000 0.09530  0.32570  0.85930  Biso   1.000  O
  O42      1.0000 0.90470  0.32570  0.64070  Biso   1.000  O
  O43      1.0000 0.59530  0.82570  0.85930  Biso   1.000  O
  O44      1.0000 0.40470  0.82570  0.64070  Biso   1.000  O
  O45      1.0000 0.90470  0.67430  0.14070  Biso   1.000  O
  O46      1.0000 0.09530  0.67430  0.35930  Biso   1.000  O
  O47      1.0000 0.40470  0.17430  0.14070  Biso   1.000  O
  O48      1.0000 0.59530  0.17430  0.35930  Biso   1.000  O
  H97      1.0000 0.14880  0.33160  0.92170  Biso   1.000  H
  H98      1.0000 0.85120  0.33160  0.57830  Biso   1.000  H
  H99      1.0000 0.64880  0.83160  0.92170  Biso   1.000  H
  H100     1.0000 0.35120  0.83160  0.57830  Biso   1.000  H
  H101     1.0000 0.85120  0.66840  0.07830  Biso   1.000  H
  H102     1.0000 0.14880  0.66840  0.42170  Biso   1.000  H
  H103     1.0000 0.35120  0.16840  0.07830  Biso   1.000  H
  H104     1.0000 0.64880  0.16840  0.42170  Biso   1.000  H
  H105     1.0000 0.04330  0.33120  0.79240  Biso   1.000  H
  H106     1.0000 0.95670  0.33120  0.70760  Biso   1.000  H
  H107     1.0000 0.54330  0.83120  0.79240  Biso   1.000  H
  H108     1.0000 0.45670  0.83120  0.70760  Biso   1.000  H
  H109     1.0000 0.95670  0.66880  0.20760  Biso   1.000  H
  H110     1.0000 0.04330  0.66880  0.29240  Biso   1.000  H
  H111     1.0000 0.45670  0.16880  0.20760  Biso   1.000  H
  H112     1.0000 0.54330  0.16880  0.29240  Biso   1.000  H
