data_image0
_cell_length_a       8.199
_cell_length_b       13.13
_cell_length_c       6.913
_cell_angle_alpha    90
_cell_angle_beta     90
_cell_angle_gamma    90

_symmetry_space_group_name_H-M    "P 1"
_symmetry_int_tables_number       1

loop_
  _symmetry_equiv_pos_as_xyz
  'x, y, z'

loop_
  _atom_site_label
  _atom_site_occupancy
  _atom_site_fract_x
  _atom_site_fract_y
  _atom_site_fract_z
  _atom_site_thermal_displace_type
  _atom_site_B_iso_or_equiv
  _atom_site_type_symbol
  Cu1      1.0000 0.50000  0.50000  0.50000  Biso   1.000  Cu
  Cu2      1.0000 0.00000  0.00000  0.00000  Biso   1.000  Cu
  S1       1.0000 0.54201  0.25913  0.50000  Biso   1.000  S
  S2       1.0000 0.45799  0.74087  0.50000  Biso   1.000  S
  S3       1.0000 0.04201  0.24087  0.00000  Biso   1.000  S
  S4       1.0000 0.95799  0.75913  0.00000  Biso   1.000  S
  O1       1.0000 0.44607  0.35490  0.50000  Biso   1.000  O
  O2       1.0000 0.55393  0.64510  0.50000  Biso   1.000  O
  O3       1.0000 0.94607  0.14510  0.00000  Biso   1.000  O
  O4       1.0000 0.05393  0.85490  0.00000  Biso   1.000  O
  O5       1.0000 0.63567  0.24874  0.32452  Biso   1.000  O
  O6       1.0000 0.36433  0.75126  0.32452  Biso   1.000  O
  O7       1.0000 0.13567  0.25126  0.17548  Biso   1.000  O
  O8       1.0000 0.86433  0.74874  0.17548  Biso   1.000  O
  O9       1.0000 0.36433  0.75126  0.67548  Biso   1.000  O
  O10      1.0000 0.63567  0.24874  0.67548  Biso   1.000  O
  O11      1.0000 0.86433  0.74874  0.82452  Biso   1.000  O
  O12      1.0000 0.13567  0.25126  0.82452  Biso   1.000  O
  N1       1.0000 0.50000  0.50000  0.20228  Biso   1.000  N
  N2       1.0000 0.00000  0.00000  0.29772  Biso   1.000  N
  N3       1.0000 0.50000  0.50000  0.79772  Biso   1.000  N
  N4       1.0000 0.00000  0.00000  0.70228  Biso   1.000  N
  N5       1.0000 0.17181  0.50709  0.50000  Biso   1.000  N
  N6       1.0000 0.82819  0.49291  0.50000  Biso   1.000  N
  N7       1.0000 0.67181  0.99291  0.00000  Biso   1.000  N
  N8       1.0000 0.32819  0.00709  0.00000  Biso   1.000  N
  C1       1.0000 0.39006  0.16391  0.50000  Biso   1.000  C
  C2       1.0000 0.60994  0.83609  0.50000  Biso   1.000  C
  C3       1.0000 0.89006  0.33609  0.00000  Biso   1.000  C
  C4       1.0000 0.10994  0.66391  0.00000  Biso   1.000  C
  C5       1.0000 0.40744  0.43483  0.10041  Biso   1.000  C
  C6       1.0000 0.59256  0.56517  0.10041  Biso   1.000  C
  C7       1.0000 0.90744  0.06517  0.39959  Biso   1.000  C
  C8       1.0000 0.09256  0.93483  0.39959  Biso   1.000  C
  C9       1.0000 0.59256  0.56517  0.89959  Biso   1.000  C
  C10      1.0000 0.40744  0.43483  0.89959  Biso   1.000  C
  C11      1.0000 0.09256  0.93483  0.60041  Biso   1.000  C
  C12      1.0000 0.90744  0.06517  0.60041  Biso   1.000  C
  C13      1.0000 0.07585  0.58949  0.50000  Biso   1.000  C
  C14      1.0000 0.92415  0.41051  0.50000  Biso   1.000  C
  C15      1.0000 0.57585  0.91051  0.00000  Biso   1.000  C
  C16      1.0000 0.42415  0.08949  0.00000  Biso   1.000  C
  C17      1.0000 0.09358  0.41751  0.50000  Biso   1.000  C
  C18      1.0000 0.90642  0.58249  0.50000  Biso   1.000  C
  C19      1.0000 0.59358  0.08249  0.00000  Biso   1.000  C
  C20      1.0000 0.40642  0.91751  0.00000  Biso   1.000  C
  H1       1.0000 0.44670  0.08510  0.50000  Biso   1.000  H
  H2       1.0000 0.55330  0.91490  0.50000  Biso   1.000  H
  H3       1.0000 0.94670  0.41490  0.00000  Biso   1.000  H
  H4       1.0000 0.05330  0.58510  0.00000  Biso   1.000  H
  H5       1.0000 0.32390  0.17090  0.38820  Biso   1.000  H
  H6       1.0000 0.67610  0.82910  0.38820  Biso   1.000  H
  H7       1.0000 0.82390  0.32910  0.11180  Biso   1.000  H
  H8       1.0000 0.17610  0.67090  0.11180  Biso   1.000  H
  H9       1.0000 0.67610  0.82910  0.61180  Biso   1.000  H
  H10      1.0000 0.32390  0.17090  0.61180  Biso   1.000  H
  H11      1.0000 0.17610  0.67090  0.88820  Biso   1.000  H
  H12      1.0000 0.82390  0.32910  0.88820  Biso   1.000  H
  H13      1.0000 0.34710  0.38870  0.17020  Biso   1.000  H
  H14      1.0000 0.65290  0.61130  0.17020  Biso   1.000  H
  H15      1.0000 0.84710  0.11130  0.32980  Biso   1.000  H
  H16      1.0000 0.15290  0.88870  0.32980  Biso   1.000  H
  H17      1.0000 0.65290  0.61130  0.82980  Biso   1.000  H
  H18      1.0000 0.34710  0.38870  0.82980  Biso   1.000  H
  H19      1.0000 0.15290  0.88870  0.67020  Biso   1.000  H
  H20      1.0000 0.84710  0.11130  0.67020  Biso   1.000  H
  H21      1.0000 0.12360  0.65240  0.50000  Biso   1.000  H
  H22      1.0000 0.87640  0.34760  0.50000  Biso   1.000  H
  H23      1.0000 0.62360  0.84760  0.00000  Biso   1.000  H
  H24      1.0000 0.37640  0.15240  0.00000  Biso   1.000  H
  H25      1.0000 0.14120  0.36000  0.50000  Biso   1.000  H
  H26      1.0000 0.85880  0.64000  0.50000  Biso   1.000  H
  H27      1.0000 0.64120  0.14000  0.00000  Biso   1.000  H
  H28      1.0000 0.35880  0.86000  0.00000  Biso   1.000  H
