data_image0
_cell_length_a       14.7281
_cell_length_b       8.3905
_cell_length_c       15.471
_cell_angle_alpha    90
_cell_angle_beta     93.643
_cell_angle_gamma    90

_symmetry_space_group_name_H-M    "P 1"
_symmetry_int_tables_number       1

loop_
  _symmetry_equiv_pos_as_xyz
  'x, y, z'

loop_
  _atom_site_label
  _atom_site_occupancy
  _atom_site_fract_x
  _atom_site_fract_y
  _atom_site_fract_z
  _atom_site_thermal_displace_type
  _atom_site_B_iso_or_equiv
  _atom_site_type_symbol
  Cu1      1.0000 0.64727  0.21147  0.45048  Biso   1.000  Cu
  Cu2      1.0000 0.85273  0.71147  0.54952  Biso   1.000  Cu
  Cu3      1.0000 0.35273  0.78853  0.54952  Biso   1.000  Cu
  Cu4      1.0000 0.14727  0.28853  0.45048  Biso   1.000  Cu
  Co1      1.0000 0.90637  0.19328  0.95405  Biso   1.000  Co
  Co2      1.0000 0.59363  0.69328  0.04595  Biso   1.000  Co
  Co3      1.0000 0.09363  0.80672  0.04595  Biso   1.000  Co
  Co4      1.0000 0.40637  0.30672  0.95405  Biso   1.000  Co
  O1       1.0000 0.61720  0.00480  0.50170  Biso   1.000  O
  O2       1.0000 0.88280  0.50480  0.49830  Biso   1.000  O
  O3       1.0000 0.38280  0.99520  0.49830  Biso   1.000  O
  O4       1.0000 0.11720  0.49520  0.50170  Biso   1.000  O
  O5       1.0000 0.56020  0.89650  0.61810  Biso   1.000  O
  O6       1.0000 0.93980  0.39650  0.38190  Biso   1.000  O
  O7       1.0000 0.43980  0.10350  0.38190  Biso   1.000  O
  O8       1.0000 0.06020  0.60350  0.61810  Biso   1.000  O
  O9       1.0000 0.46970  0.29440  0.84440  Biso   1.000  O
  O10      1.0000 0.03030  0.79440  0.15560  Biso   1.000  O
  O11      1.0000 0.53030  0.70560  0.15560  Biso   1.000  O
  O12      1.0000 0.96970  0.20560  0.84440  Biso   1.000  O
  O13      1.0000 0.47520  0.55530  0.81630  Biso   1.000  O
  O14      1.0000 0.02480  0.05530  0.18370  Biso   1.000  O
  O15      1.0000 0.52480  0.44470  0.18370  Biso   1.000  O
  O16      1.0000 0.97520  0.94470  0.81630  Biso   1.000  O
  O17      1.0000 0.66190  0.42130  0.39990  Biso   1.000  O
  O18      1.0000 0.83810  0.92130  0.60010  Biso   1.000  O
  O19      1.0000 0.33810  0.57870  0.60010  Biso   1.000  O
  O20      1.0000 0.16190  0.07870  0.39990  Biso   1.000  O
  O21      1.0000 0.71390  0.54720  0.28680  Biso   1.000  O
  O22      1.0000 0.78610  0.04720  0.71320  Biso   1.000  O
  O23      1.0000 0.28610  0.45280  0.71320  Biso   1.000  O
  O24      1.0000 0.21390  0.95280  0.28680  Biso   1.000  O
  O25      1.0000 0.84200  0.18730  0.06110  Biso   1.000  O
  O26      1.0000 0.65800  0.68730  0.93890  Biso   1.000  O
  O27      1.0000 0.15800  0.81270  0.93890  Biso   1.000  O
  O28      1.0000 0.34200  0.31270  0.06110  Biso   1.000  O
  O29      1.0000 0.84260  0.92310  0.08120  Biso   1.000  O
  O30      1.0000 0.65740  0.42310  0.91880  Biso   1.000  O
  O31      1.0000 0.15740  0.07690  0.91880  Biso   1.000  O
  O32      1.0000 0.34260  0.57690  0.08120  Biso   1.000  O
  O33      1.0000 0.78830  0.21960  0.51830  Biso   1.000  O
  O34      1.0000 0.71170  0.71960  0.48170  Biso   1.000  O
  O35      1.0000 0.21170  0.78040  0.48170  Biso   1.000  O
  O36      1.0000 0.28830  0.28040  0.51830  Biso   1.000  O
  O37      1.0000 0.02920  0.17880  0.02120  Biso   1.000  O
  O38      1.0000 0.47080  0.67880  0.97880  Biso   1.000  O
  O39      1.0000 0.97080  0.82120  0.97880  Biso   1.000  O
  O40      1.0000 0.52920  0.32120  0.02120  Biso   1.000  O
  O41      1.0000 0.80070  0.09740  0.88750  Biso   1.000  O
  O42      1.0000 0.69930  0.59740  0.11250  Biso   1.000  O
  O43      1.0000 0.19930  0.90260  0.11250  Biso   1.000  O
  O44      1.0000 0.30070  0.40260  0.88750  Biso   1.000  O
  O45      1.0000 0.89460  0.44840  0.94190  Biso   1.000  O
  O46      1.0000 0.60540  0.94840  0.05810  Biso   1.000  O
  O47      1.0000 0.10540  0.55160  0.05810  Biso   1.000  O
  O48      1.0000 0.39460  0.05160  0.94190  Biso   1.000  O
  O49      1.0000 0.61860  0.07130  0.89650  Biso   1.000  O
  O50      1.0000 0.88140  0.57130  0.10350  Biso   1.000  O
  O51      1.0000 0.38140  0.92870  0.10350  Biso   1.000  O
  O52      1.0000 0.11860  0.42870  0.89650  Biso   1.000  O
  O53      1.0000 0.48880  0.12500  0.20970  Biso   1.000  O
  O54      1.0000 0.01120  0.62500  0.79030  Biso   1.000  O
  O55      1.0000 0.51120  0.87500  0.79030  Biso   1.000  O
  O56      1.0000 0.98880  0.37500  0.20970  Biso   1.000  O
  N1       1.0000 0.58950  0.29510  0.55290  Biso   1.000  N
  N2       1.0000 0.91050  0.79510  0.44710  Biso   1.000  N
  N3       1.0000 0.41050  0.70490  0.44710  Biso   1.000  N
  N4       1.0000 0.08950  0.20490  0.55290  Biso   1.000  N
  N5       1.0000 0.69030  0.13880  0.33750  Biso   1.000  N
  N6       1.0000 0.80970  0.63880  0.66250  Biso   1.000  N
  N7       1.0000 0.30970  0.86120  0.66250  Biso   1.000  N
  N8       1.0000 0.19030  0.36120  0.33750  Biso   1.000  N
  C1       1.0000 0.56420  0.17970  0.60720  Biso   1.000  C
  C2       1.0000 0.93580  0.67970  0.39280  Biso   1.000  C
  C3       1.0000 0.43580  0.82030  0.39280  Biso   1.000  C
  C4       1.0000 0.06420  0.32030  0.60720  Biso   1.000  C
  C5       1.0000 0.52830  0.21500  0.68480  Biso   1.000  C
  C6       1.0000 0.97170  0.71500  0.31520  Biso   1.000  C
  C7       1.0000 0.47170  0.78500  0.31520  Biso   1.000  C
  C8       1.0000 0.02830  0.28500  0.68480  Biso   1.000  C
  C9       1.0000 0.52030  0.37160  0.70990  Biso   1.000  C
  C10      1.0000 0.97970  0.87160  0.29010  Biso   1.000  C
  C11      1.0000 0.47970  0.62840  0.29010  Biso   1.000  C
  C12      1.0000 0.02030  0.12840  0.70990  Biso   1.000  C
  C13      1.0000 0.54610  0.49130  0.65440  Biso   1.000  C
  C14      1.0000 0.95390  0.99130  0.34560  Biso   1.000  C
  C15      1.0000 0.45390  0.50870  0.34560  Biso   1.000  C
  C16      1.0000 0.04610  0.00870  0.65440  Biso   1.000  C
  C17      1.0000 0.58010  0.44750  0.57640  Biso   1.000  C
  C18      1.0000 0.91990  0.94750  0.42360  Biso   1.000  C
  C19      1.0000 0.41990  0.55250  0.42360  Biso   1.000  C
  C20      1.0000 0.08010  0.05250  0.57640  Biso   1.000  C
  C21      1.0000 0.58090  0.01290  0.57470  Biso   1.000  C
  C22      1.0000 0.91910  0.51290  0.42530  Biso   1.000  C
  C23      1.0000 0.41910  0.98710  0.42530  Biso   1.000  C
  C24      1.0000 0.08090  0.48710  0.57470  Biso   1.000  C
  C25      1.0000 0.48560  0.41290  0.79700  Biso   1.000  C
  C26      1.0000 0.01440  0.91290  0.20300  Biso   1.000  C
  C27      1.0000 0.51440  0.58710  0.20300  Biso   1.000  C
  C28      1.0000 0.98560  0.08710  0.79700  Biso   1.000  C
  C29      1.0000 0.71580  0.26180  0.28880  Biso   1.000  C
  C30      1.0000 0.78420  0.76180  0.71120  Biso   1.000  C
  C31      1.0000 0.28420  0.73820  0.71120  Biso   1.000  C
  C32      1.0000 0.21580  0.23820  0.28880  Biso   1.000  C
  C33      1.0000 0.75690  0.24070  0.21230  Biso   1.000  C
  C34      1.0000 0.74310  0.74070  0.78770  Biso   1.000  C
  C35      1.0000 0.24310  0.75930  0.78770  Biso   1.000  C
  C36      1.0000 0.25690  0.25930  0.21230  Biso   1.000  C
  C37      1.0000 0.77400  0.08780  0.18360  Biso   1.000  C
  C38      1.0000 0.72600  0.58780  0.81640  Biso   1.000  C
  C39      1.0000 0.22600  0.91220  0.81640  Biso   1.000  C
  C40      1.0000 0.27400  0.41220  0.18360  Biso   1.000  C
  C41      1.0000 0.74660  0.96180  0.23300  Biso   1.000  C
  C42      1.0000 0.75340  0.46180  0.76700  Biso   1.000  C
  C43      1.0000 0.25340  0.03820  0.76700  Biso   1.000  C
  C44      1.0000 0.24660  0.53820  0.23300  Biso   1.000  C
  C45      1.0000 0.70480  0.99150  0.30870  Biso   1.000  C
  C46      1.0000 0.79520  0.49150  0.69130  Biso   1.000  C
  C47      1.0000 0.29520  0.00850  0.69130  Biso   1.000  C
  C48      1.0000 0.20480  0.50850  0.30870  Biso   1.000  C
  C49      1.0000 0.69700  0.42420  0.32590  Biso   1.000  C
  C50      1.0000 0.80300  0.92420  0.67410  Biso   1.000  C
  C51      1.0000 0.30300  0.57580  0.67410  Biso   1.000  C
  C52      1.0000 0.19700  0.07580  0.32590  Biso   1.000  C
  C53      1.0000 0.82350  0.06090  0.10140  Biso   1.000  C
  C54      1.0000 0.67650  0.56090  0.89860  Biso   1.000  C
  C55      1.0000 0.17650  0.93910  0.89860  Biso   1.000  C
  C56      1.0000 0.32350  0.43910  0.10140  Biso   1.000  C
  H1       1.0000 0.50720  0.13130  0.72150  Biso   1.000  H
  H2       1.0000 0.99280  0.63130  0.27850  Biso   1.000  H
  H3       1.0000 0.49280  0.86870  0.27850  Biso   1.000  H
  H4       1.0000 0.00720  0.36870  0.72150  Biso   1.000  H
  H5       1.0000 0.54030  0.60040  0.67020  Biso   1.000  H
  H6       1.0000 0.95970  0.10040  0.32980  Biso   1.000  H
  H7       1.0000 0.45970  0.39960  0.32980  Biso   1.000  H
  H8       1.0000 0.04030  0.89960  0.67020  Biso   1.000  H
  H9       1.0000 0.59700  0.52900  0.53840  Biso   1.000  H
  H10      1.0000 0.90300  0.02900  0.46160  Biso   1.000  H
  H11      1.0000 0.40300  0.47100  0.46160  Biso   1.000  H
  H12      1.0000 0.09700  0.97100  0.53840  Biso   1.000  H
  H13      1.0000 0.77150  0.33090  0.18020  Biso   1.000  H
  H14      1.0000 0.72850  0.83090  0.81980  Biso   1.000  H
  H15      1.0000 0.22850  0.66910  0.81980  Biso   1.000  H
  H16      1.0000 0.27150  0.16910  0.18020  Biso   1.000  H
  H17      1.0000 0.75360  0.85470  0.21470  Biso   1.000  H
  H18      1.0000 0.74640  0.35470  0.78530  Biso   1.000  H
  H19      1.0000 0.24640  0.14530  0.78530  Biso   1.000  H
  H20      1.0000 0.25360  0.64530  0.21470  Biso   1.000  H
  H21      1.0000 0.68550  0.90470  0.34210  Biso   1.000  H
  H22      1.0000 0.81450  0.40470  0.65790  Biso   1.000  H
  H23      1.0000 0.31450  0.09530  0.65790  Biso   1.000  H
  H24      1.0000 0.18550  0.59530  0.34210  Biso   1.000  H
