data_image0
_cell_length_a       8.7317
_cell_length_b       8.7642
_cell_length_c       5.125
_cell_angle_alpha    93.678
_cell_angle_beta     99.508
_cell_angle_gamma    108.496

_symmetry_space_group_name_H-M    "P 1"
_symmetry_int_tables_number       1

loop_
  _symmetry_equiv_pos_as_xyz
  'x, y, z'

loop_
  _atom_site_label
  _atom_site_occupancy
  _atom_site_fract_x
  _atom_site_fract_y
  _atom_site_fract_z
  _atom_site_thermal_displace_type
  _atom_site_B_iso_or_equiv
  _atom_site_type_symbol
  Ag1      1.0000 0.04712  0.61185  0.81004  Biso   1.000  Ag
  Ag2      1.0000 0.95288  0.38815  0.18996  Biso   1.000  Ag
  Cu1      1.0000 0.00000  0.00000  0.00000  Biso   1.000  Cu
  O1       1.0000 0.01380  0.86760  0.28760  Biso   1.000  O
  O2       1.0000 0.98620  0.13240  0.71240  Biso   1.000  O
  O3       1.0000 0.17430  0.87590  0.68130  Biso   1.000  O
  O4       1.0000 0.82570  0.12410  0.31870  Biso   1.000  O
  O5       1.0000 0.26840  0.68370  0.13170  Biso   1.000  O
  O6       1.0000 0.73160  0.31630  0.86830  Biso   1.000  O
  O7       1.0000 0.19910  0.51830  0.43960  Biso   1.000  O
  O8       1.0000 0.80090  0.48170  0.56040  Biso   1.000  O
  N1       1.0000 0.22050  0.13510  0.18200  Biso   1.000  N
  N2       1.0000 0.77950  0.86490  0.81800  Biso   1.000  N
  C1       1.0000 0.72670  0.92350  0.59670  Biso   1.000  C
  C2       1.0000 0.27330  0.07650  0.40330  Biso   1.000  C
  C3       1.0000 0.57360  0.85240  0.44110  Biso   1.000  C
  C4       1.0000 0.42640  0.14760  0.55890  Biso   1.000  C
  C5       1.0000 0.46460  0.71580  0.51800  Biso   1.000  C
  C6       1.0000 0.53540  0.28420  0.48200  Biso   1.000  C
  C7       1.0000 0.51890  0.65650  0.74890  Biso   1.000  C
  C8       1.0000 0.48110  0.34350  0.25110  Biso   1.000  C
  C9       1.0000 0.67680  0.73240  0.89250  Biso   1.000  C
  C10      1.0000 0.32320  0.26760  0.10750  Biso   1.000  C
  C11      1.0000 0.14450  0.92780  0.46320  Biso   1.000  C
  C12      1.0000 0.85550  0.07220  0.53680  Biso   1.000  C
  C13      1.0000 0.29570  0.63150  0.34920  Biso   1.000  C
  C14      1.0000 0.70430  0.36850  0.65080  Biso   1.000  C
  H1       1.0000 0.54110  0.89530  0.28380  Biso   1.000  H
  H2       1.0000 0.45890  0.10470  0.71620  Biso   1.000  H
  H3       1.0000 0.44760  0.56380  0.80690  Biso   1.000  H
  H4       1.0000 0.55240  0.43620  0.19310  Biso   1.000  H
  H5       1.0000 0.71420  0.69030  0.04720  Biso   1.000  H
  H6       1.0000 0.28580  0.30970  0.95280  Biso   1.000  H
