data_image0
_cell_length_a       7.4676
_cell_length_b       7.801
_cell_length_c       7.978
_cell_angle_alpha    112.29
_cell_angle_beta     97.285
_cell_angle_gamma    91.012

_symmetry_space_group_name_H-M    "P 1"
_symmetry_int_tables_number       1

loop_
  _symmetry_equiv_pos_as_xyz
  'x, y, z'

loop_
  _atom_site_label
  _atom_site_occupancy
  _atom_site_fract_x
  _atom_site_fract_y
  _atom_site_fract_z
  _atom_site_thermal_displace_type
  _atom_site_B_iso_or_equiv
  _atom_site_type_symbol
  Cu1      1.0000 0.50000  0.50000  0.50000  Biso   1.000  Cu
  Mn1      1.0000 0.00000  0.50000  0.00000  Biso   1.000  Mn
  O1       1.0000 0.77980  0.30210  0.38740  Biso   1.000  O
  O2       1.0000 0.22020  0.69790  0.61260  Biso   1.000  O
  O3       1.0000 0.76810  0.07910  0.10660  Biso   1.000  O
  O4       1.0000 0.23190  0.92090  0.89340  Biso   1.000  O
  O5       1.0000 0.36980  0.42880  0.25510  Biso   1.000  O
  O6       1.0000 0.63020  0.57120  0.74490  Biso   1.000  O
  O7       1.0000 0.29280  0.55130  0.04770  Biso   1.000  O
  O8       1.0000 0.70720  0.44870  0.95230  Biso   1.000  O
  O9       1.0000 0.00810  0.79470  0.06230  Biso   1.000  O
  O10      1.0000 0.99190  0.20530  0.93770  Biso   1.000  O
  O11      1.0000 0.02990  0.44950  0.71500  Biso   1.000  O
  O12      1.0000 0.97010  0.55050  0.28500  Biso   1.000  O
  N1       1.0000 0.60270  0.70870  0.45320  Biso   1.000  N
  N2       1.0000 0.39730  0.29130  0.54680  Biso   1.000  N
  C1       1.0000 0.53020  0.70630  0.28910  Biso   1.000  C
  C2       1.0000 0.46980  0.29370  0.71090  Biso   1.000  C
  C3       1.0000 0.57570  0.84070  0.22650  Biso   1.000  C
  C4       1.0000 0.42430  0.15930  0.77350  Biso   1.000  C
  C5       1.0000 0.69830  0.98790  0.34070  Biso   1.000  C
  C6       1.0000 0.30170  0.01210  0.65930  Biso   1.000  C
  C7       1.0000 0.77000  0.99280  0.51160  Biso   1.000  C
  C8       1.0000 0.23000  0.00720  0.48840  Biso   1.000  C
  C9       1.0000 0.72130  0.84890  0.56260  Biso   1.000  C
  C10      1.0000 0.27870  0.15110  0.43740  Biso   1.000  C
  C11      1.0000 0.38770  0.54970  0.18660  Biso   1.000  C
  C12      1.0000 0.61230  0.45030  0.81340  Biso   1.000  C
  C13      1.0000 0.75350  0.13680  0.27370  Biso   1.000  C
  C14      1.0000 0.24650  0.86320  0.72630  Biso   1.000  C
  H1       1.0000 0.52330  0.83320  0.10470  Biso   1.000  H
  H2       1.0000 0.47670  0.16680  0.89530  Biso   1.000  H
  H3       1.0000 0.85370  0.09660  0.59550  Biso   1.000  H
  H4       1.0000 0.14630  0.90340  0.40450  Biso   1.000  H
  H5       1.0000 0.77530  0.85000  0.68150  Biso   1.000  H
  H6       1.0000 0.22470  0.15000  0.31850  Biso   1.000  H
  H7       1.0000 0.07400  0.82300  0.00500  Biso   1.000  H
  H8       1.0000 0.92600  0.17700  0.99500  Biso   1.000  H
  H9       1.0000 0.92400  0.84000  0.05700  Biso   1.000  H
  H10      1.0000 0.07600  0.16000  0.94300  Biso   1.000  H
  H11      1.0000 0.09500  0.52500  0.70900  Biso   1.000  H
  H12      1.0000 0.90500  0.47500  0.29100  Biso   1.000  H
  H13      1.0000 0.95200  0.42500  0.64300  Biso   1.000  H
  H14      1.0000 0.04800  0.57500  0.35700  Biso   1.000  H
