data_image0
_cell_length_a       14.683
_cell_length_b       8.398
_cell_length_c       15.4555
_cell_angle_alpha    90
_cell_angle_beta     93.0221
_cell_angle_gamma    90

_symmetry_space_group_name_H-M    "P 1"
_symmetry_int_tables_number       1

loop_
  _symmetry_equiv_pos_as_xyz
  'x, y, z'

loop_
  _atom_site_label
  _atom_site_occupancy
  _atom_site_fract_x
  _atom_site_fract_y
  _atom_site_fract_z
  _atom_site_thermal_displace_type
  _atom_site_B_iso_or_equiv
  _atom_site_type_symbol
  Cu1      1.0000 0.64747  0.21279  0.45088  Biso   1.000  Cu
  Cu2      1.0000 0.85253  0.71279  0.54912  Biso   1.000  Cu
  Cu3      1.0000 0.35253  0.78721  0.54912  Biso   1.000  Cu
  Cu4      1.0000 0.14747  0.28721  0.45088  Biso   1.000  Cu
  Cu5      1.0000 0.90392  0.18944  0.95291  Biso   1.000  Cu
  Cu6      1.0000 0.59608  0.68944  0.04709  Biso   1.000  Cu
  Cu7      1.0000 0.09608  0.81056  0.04709  Biso   1.000  Cu
  Cu8      1.0000 0.40392  0.31056  0.95291  Biso   1.000  Cu
  O1       1.0000 0.61670  0.00660  0.50170  Biso   1.000  O
  O2       1.0000 0.88330  0.50660  0.49830  Biso   1.000  O
  O3       1.0000 0.38330  0.99340  0.49830  Biso   1.000  O
  O4       1.0000 0.11670  0.49340  0.50170  Biso   1.000  O
  O5       1.0000 0.55990  0.89710  0.61810  Biso   1.000  O
  O6       1.0000 0.94010  0.39710  0.38190  Biso   1.000  O
  O7       1.0000 0.44010  0.10290  0.38190  Biso   1.000  O
  O8       1.0000 0.05990  0.60290  0.61810  Biso   1.000  O
  O9       1.0000 0.46540  0.29530  0.84500  Biso   1.000  O
  O10      1.0000 0.03460  0.79530  0.15500  Biso   1.000  O
  O11      1.0000 0.53460  0.70470  0.15500  Biso   1.000  O
  O12      1.0000 0.96540  0.20470  0.84500  Biso   1.000  O
  O13      1.0000 0.47410  0.55630  0.81770  Biso   1.000  O
  O14      1.0000 0.02590  0.05630  0.18230  Biso   1.000  O
  O15      1.0000 0.52590  0.44370  0.18230  Biso   1.000  O
  O16      1.0000 0.97410  0.94370  0.81770  Biso   1.000  O
  O17      1.0000 0.66250  0.42340  0.40000  Biso   1.000  O
  O18      1.0000 0.83750  0.92340  0.60000  Biso   1.000  O
  O19      1.0000 0.33750  0.57660  0.60000  Biso   1.000  O
  O20      1.0000 0.16250  0.07660  0.40000  Biso   1.000  O
  O21      1.0000 0.71400  0.54830  0.28650  Biso   1.000  O
  O22      1.0000 0.78600  0.04830  0.71350  Biso   1.000  O
  O23      1.0000 0.28600  0.45170  0.71350  Biso   1.000  O
  O24      1.0000 0.21400  0.95170  0.28650  Biso   1.000  O
  O25      1.0000 0.84100  0.18540  0.05900  Biso   1.000  O
  O26      1.0000 0.65900  0.68540  0.94100  Biso   1.000  O
  O27      1.0000 0.15900  0.81460  0.94100  Biso   1.000  O
  O28      1.0000 0.34100  0.31460  0.05900  Biso   1.000  O
  O29      1.0000 0.84420  0.92310  0.08170  Biso   1.000  O
  O30      1.0000 0.65580  0.42310  0.91830  Biso   1.000  O
  O31      1.0000 0.15580  0.07690  0.91830  Biso   1.000  O
  O32      1.0000 0.34420  0.57690  0.08170  Biso   1.000  O
  O33      1.0000 0.78830  0.21990  0.51840  Biso   1.000  O
  O34      1.0000 0.71170  0.71990  0.48160  Biso   1.000  O
  O35      1.0000 0.21170  0.78010  0.48160  Biso   1.000  O
  O36      1.0000 0.28830  0.28010  0.51840  Biso   1.000  O
  O37      1.0000 0.02570  0.18330  0.01900  Biso   1.000  O
  O38      1.0000 0.47430  0.68330  0.98100  Biso   1.000  O
  O39      1.0000 0.97430  0.81670  0.98100  Biso   1.000  O
  O40      1.0000 0.52570  0.31670  0.01900  Biso   1.000  O
  O41      1.0000 0.79690  0.10280  0.88780  Biso   1.000  O
  O42      1.0000 0.70310  0.60280  0.11220  Biso   1.000  O
  O43      1.0000 0.20310  0.89720  0.11220  Biso   1.000  O
  O44      1.0000 0.29690  0.39720  0.88780  Biso   1.000  O
  O45      1.0000 0.89080  0.44970  0.94210  Biso   1.000  O
  O46      1.0000 0.60920  0.94970  0.05790  Biso   1.000  O
  O47      1.0000 0.10920  0.55030  0.05790  Biso   1.000  O
  O48      1.0000 0.39080  0.05030  0.94210  Biso   1.000  O
  O49      1.0000 0.61660  0.07100  0.89460  Biso   1.000  O
  O50      1.0000 0.88340  0.57100  0.10540  Biso   1.000  O
  O51      1.0000 0.38340  0.92900  0.10540  Biso   1.000  O
  O52      1.0000 0.11660  0.42900  0.89460  Biso   1.000  O
  O53      1.0000 0.49110  0.12580  0.20970  Biso   1.000  O
  O54      1.0000 0.00890  0.62580  0.79030  Biso   1.000  O
  O55      1.0000 0.50890  0.87420  0.79030  Biso   1.000  O
  O56      1.0000 0.99110  0.37420  0.20970  Biso   1.000  O
  N1       1.0000 0.58880  0.29670  0.55350  Biso   1.000  N
  N2       1.0000 0.91120  0.79670  0.44650  Biso   1.000  N
  N3       1.0000 0.41120  0.70330  0.44650  Biso   1.000  N
  N4       1.0000 0.08880  0.20330  0.55350  Biso   1.000  N
  N5       1.0000 0.69140  0.14040  0.33760  Biso   1.000  N
  N6       1.0000 0.80860  0.64040  0.66240  Biso   1.000  N
  N7       1.0000 0.30860  0.85960  0.66240  Biso   1.000  N
  N8       1.0000 0.19140  0.35960  0.33760  Biso   1.000  N
  C1       1.0000 0.56290  0.18080  0.60770  Biso   1.000  C
  C2       1.0000 0.93710  0.68080  0.39230  Biso   1.000  C
  C3       1.0000 0.43710  0.81920  0.39230  Biso   1.000  C
  C4       1.0000 0.06290  0.31920  0.60770  Biso   1.000  C
  C5       1.0000 0.52700  0.21440  0.68540  Biso   1.000  C
  C6       1.0000 0.97300  0.71440  0.31460  Biso   1.000  C
  C7       1.0000 0.47300  0.78560  0.31460  Biso   1.000  C
  C8       1.0000 0.02700  0.28560  0.68540  Biso   1.000  C
  C9       1.0000 0.51830  0.37350  0.71130  Biso   1.000  C
  C10      1.0000 0.98170  0.87350  0.28870  Biso   1.000  C
  C11      1.0000 0.48170  0.62650  0.28870  Biso   1.000  C
  C12      1.0000 0.01830  0.12650  0.71130  Biso   1.000  C
  C13      1.0000 0.54450  0.49150  0.65500  Biso   1.000  C
  C14      1.0000 0.95550  0.99150  0.34500  Biso   1.000  C
  C15      1.0000 0.45550  0.50850  0.34500  Biso   1.000  C
  C16      1.0000 0.04450  0.00850  0.65500  Biso   1.000  C
  C17      1.0000 0.57990  0.44780  0.57680  Biso   1.000  C
  C18      1.0000 0.92010  0.94780  0.42320  Biso   1.000  C
  C19      1.0000 0.42010  0.55220  0.42320  Biso   1.000  C
  C20      1.0000 0.07990  0.05220  0.57680  Biso   1.000  C
  C21      1.0000 0.58020  0.01320  0.57500  Biso   1.000  C
  C22      1.0000 0.91980  0.51320  0.42500  Biso   1.000  C
  C23      1.0000 0.41980  0.98680  0.42500  Biso   1.000  C
  C24      1.0000 0.08020  0.48680  0.57500  Biso   1.000  C
  C25      1.0000 0.48330  0.41440  0.79720  Biso   1.000  C
  C26      1.0000 0.01670  0.91440  0.20280  Biso   1.000  C
  C27      1.0000 0.51670  0.58560  0.20280  Biso   1.000  C
  C28      1.0000 0.98330  0.08560  0.79720  Biso   1.000  C
  C29      1.0000 0.71640  0.26290  0.28880  Biso   1.000  C
  C30      1.0000 0.78360  0.76290  0.71120  Biso   1.000  C
  C31      1.0000 0.28360  0.73710  0.71120  Biso   1.000  C
  C32      1.0000 0.21640  0.23710  0.28880  Biso   1.000  C
  C33      1.0000 0.75740  0.24210  0.21130  Biso   1.000  C
  C34      1.0000 0.74260  0.74210  0.78870  Biso   1.000  C
  C35      1.0000 0.24260  0.75790  0.78870  Biso   1.000  C
  C36      1.0000 0.25740  0.25790  0.21130  Biso   1.000  C
  C37      1.0000 0.77460  0.08890  0.18280  Biso   1.000  C
  C38      1.0000 0.72540  0.58890  0.81720  Biso   1.000  C
  C39      1.0000 0.22540  0.91110  0.81720  Biso   1.000  C
  C40      1.0000 0.27460  0.41110  0.18280  Biso   1.000  C
  C41      1.0000 0.74700  0.96180  0.23310  Biso   1.000  C
  C42      1.0000 0.75300  0.46180  0.76690  Biso   1.000  C
  C43      1.0000 0.25300  0.03820  0.76690  Biso   1.000  C
  C44      1.0000 0.24700  0.53820  0.23310  Biso   1.000  C
  C45      1.0000 0.70540  0.99220  0.31010  Biso   1.000  C
  C46      1.0000 0.79460  0.49220  0.68990  Biso   1.000  C
  C47      1.0000 0.29460  0.00780  0.68990  Biso   1.000  C
  C48      1.0000 0.20540  0.50780  0.31010  Biso   1.000  C
  C49      1.0000 0.69680  0.42560  0.32560  Biso   1.000  C
  C50      1.0000 0.80320  0.92560  0.67440  Biso   1.000  C
  C51      1.0000 0.30320  0.57440  0.67440  Biso   1.000  C
  C52      1.0000 0.19680  0.07440  0.32560  Biso   1.000  C
  C53      1.0000 0.82360  0.06070  0.10050  Biso   1.000  C
  C54      1.0000 0.67640  0.56070  0.89950  Biso   1.000  C
  C55      1.0000 0.17640  0.93930  0.89950  Biso   1.000  C
  C56      1.0000 0.32360  0.43930  0.10050  Biso   1.000  C
  H1       1.0000 0.50810  0.13060  0.72170  Biso   1.000  H
  H2       1.0000 0.99190  0.63060  0.27830  Biso   1.000  H
  H3       1.0000 0.49190  0.86940  0.27830  Biso   1.000  H
  H4       1.0000 0.00810  0.36940  0.72170  Biso   1.000  H
  H5       1.0000 0.53840  0.60070  0.66960  Biso   1.000  H
  H6       1.0000 0.96160  0.10070  0.33040  Biso   1.000  H
  H7       1.0000 0.46160  0.39930  0.33040  Biso   1.000  H
  H8       1.0000 0.03840  0.89930  0.66960  Biso   1.000  H
  H9       1.0000 0.59830  0.52900  0.53870  Biso   1.000  H
  H10      1.0000 0.90170  0.02900  0.46130  Biso   1.000  H
  H11      1.0000 0.40170  0.47100  0.46130  Biso   1.000  H
  H12      1.0000 0.09830  0.97100  0.53870  Biso   1.000  H
  H13      1.0000 0.77370  0.33160  0.17790  Biso   1.000  H
  H14      1.0000 0.72630  0.83160  0.82210  Biso   1.000  H
  H15      1.0000 0.22630  0.66840  0.82210  Biso   1.000  H
  H16      1.0000 0.27370  0.16840  0.17790  Biso   1.000  H
  H17      1.0000 0.75660  0.85530  0.21490  Biso   1.000  H
  H18      1.0000 0.74340  0.35530  0.78510  Biso   1.000  H
  H19      1.0000 0.24340  0.14470  0.78510  Biso   1.000  H
  H20      1.0000 0.25660  0.64470  0.21490  Biso   1.000  H
  H21      1.0000 0.68630  0.90510  0.34390  Biso   1.000  H
  H22      1.0000 0.81370  0.40510  0.65610  Biso   1.000  H
  H23      1.0000 0.31370  0.09490  0.65610  Biso   1.000  H
  H24      1.0000 0.18630  0.59490  0.34390  Biso   1.000  H
