data_image0
_cell_length_a       7.898
_cell_length_b       8.005
_cell_length_c       7.58
_cell_angle_alpha    97.325
_cell_angle_beta     90.874
_cell_angle_gamma    112.07

_symmetry_space_group_name_H-M    "P 1"
_symmetry_int_tables_number       1

loop_
  _symmetry_equiv_pos_as_xyz
  'x, y, z'

loop_
  _atom_site_label
  _atom_site_occupancy
  _atom_site_fract_x
  _atom_site_fract_y
  _atom_site_fract_z
  _atom_site_thermal_displace_type
  _atom_site_B_iso_or_equiv
  _atom_site_type_symbol
  Cu1      1.0000 0.00000  0.50000  0.50000  Biso   1.000  Cu
  Mn1      1.0000 0.00000  0.00000  0.00000  Biso   1.000  Mn
  O1       1.0000 0.06910  0.74230  0.63150  Biso   1.000  O
  O2       1.0000 0.93090  0.25770  0.36850  Biso   1.000  O
  O3       1.0000 0.94780  0.95140  0.70860  Biso   1.000  O
  O4       1.0000 0.05220  0.04860  0.29140  Biso   1.000  O
  O5       1.0000 0.42170  0.89320  0.23240  Biso   1.000  O
  O6       1.0000 0.57830  0.10680  0.76760  Biso   1.000  O
  O7       1.0000 0.20070  0.61490  0.22030  Biso   1.000  O
  O8       1.0000 0.79930  0.38510  0.77970  Biso   1.000  O
  O9       1.0000 0.04900  0.28630  0.97100  Biso   1.000  O
  O10      1.0000 0.95100  0.71370  0.02900  Biso   1.000  O
  O11      1.0000 0.29370  0.05880  0.00670  Biso   1.000  O
  O12      1.0000 0.70630  0.94120  0.99330  Biso   1.000  O
  N1       1.0000 0.79050  0.54760  0.39880  Biso   1.000  N
  N2       1.0000 0.20950  0.45240  0.60120  Biso   1.000  N
  C1       1.0000 0.79450  0.71050  0.47120  Biso   1.000  C
  C2       1.0000 0.20550  0.28950  0.52880  Biso   1.000  C
  C3       1.0000 0.65930  0.77330  0.42500  Biso   1.000  C
  C4       1.0000 0.34070  0.22670  0.57500  Biso   1.000  C
  C5       1.0000 0.51110  0.65870  0.30220  Biso   1.000  C
  C6       1.0000 0.48890  0.34130  0.69780  Biso   1.000  C
  C7       1.0000 0.50950  0.49180  0.23080  Biso   1.000  C
  C8       1.0000 0.49050  0.50820  0.76920  Biso   1.000  C
  C9       1.0000 0.65250  0.43990  0.28010  Biso   1.000  C
  C10      1.0000 0.34750  0.56010  0.71990  Biso   1.000  C
  C11      1.0000 0.94790  0.81090  0.61400  Biso   1.000  C
  C12      1.0000 0.05210  0.18910  0.38600  Biso   1.000  C
  C13      1.0000 0.36470  0.72630  0.24610  Biso   1.000  C
  C14      1.0000 0.63530  0.27370  0.75390  Biso   1.000  C
  H1       1.0000 0.66590  0.89100  0.47610  Biso   1.000  H
  H2       1.0000 0.33410  0.10900  0.52390  Biso   1.000  H
  H3       1.0000 0.41310  0.41170  0.14880  Biso   1.000  H
  H4       1.0000 0.58690  0.58830  0.85120  Biso   1.000  H
  H5       1.0000 0.65190  0.32590  0.22690  Biso   1.000  H
  H6       1.0000 0.34810  0.67410  0.77310  Biso   1.000  H
