data_image0
_cell_length_a       14.779
_cell_length_b       8.364
_cell_length_c       15.4923
_cell_angle_alpha    90
_cell_angle_beta     93.8722
_cell_angle_gamma    90

_symmetry_space_group_name_H-M    "P 1"
_symmetry_int_tables_number       1

loop_
  _symmetry_equiv_pos_as_xyz
  'x, y, z'

loop_
  _atom_site_label
  _atom_site_occupancy
  _atom_site_fract_x
  _atom_site_fract_y
  _atom_site_fract_z
  _atom_site_thermal_displace_type
  _atom_site_B_iso_or_equiv
  _atom_site_type_symbol
  Zn1      1.0000 0.90732  0.20691  0.95523  Biso   1.000  Zn
  Zn2      1.0000 0.59268  0.70691  0.04477  Biso   1.000  Zn
  Zn3      1.0000 0.09268  0.79309  0.04477  Biso   1.000  Zn
  Zn4      1.0000 0.40732  0.29309  0.95523  Biso   1.000  Zn
  Cu1      1.0000 0.64686  0.20814  0.45041  Biso   1.000  Cu
  Cu2      1.0000 0.85314  0.70814  0.54959  Biso   1.000  Cu
  Cu3      1.0000 0.35314  0.79186  0.54959  Biso   1.000  Cu
  Cu4      1.0000 0.14686  0.29186  0.45041  Biso   1.000  Cu
  O1       1.0000 0.61720  0.00110  0.50160  Biso   1.000  O
  O2       1.0000 0.88280  0.50110  0.49840  Biso   1.000  O
  O3       1.0000 0.38280  0.99890  0.49840  Biso   1.000  O
  O4       1.0000 0.11720  0.49890  0.50160  Biso   1.000  O
  O5       1.0000 0.55980  0.89380  0.61860  Biso   1.000  O
  O6       1.0000 0.94020  0.39380  0.38140  Biso   1.000  O
  O7       1.0000 0.44020  0.10620  0.38140  Biso   1.000  O
  O8       1.0000 0.05980  0.60620  0.61860  Biso   1.000  O
  O9       1.0000 0.47200  0.29170  0.84330  Biso   1.000  O
  O10      1.0000 0.02800  0.79170  0.15670  Biso   1.000  O
  O11      1.0000 0.52800  0.70830  0.15670  Biso   1.000  O
  O12      1.0000 0.97200  0.20830  0.84330  Biso   1.000  O
  O13      1.0000 0.47590  0.55360  0.81480  Biso   1.000  O
  O14      1.0000 0.02410  0.05360  0.18520  Biso   1.000  O
  O15      1.0000 0.52410  0.44640  0.18520  Biso   1.000  O
  O16      1.0000 0.97590  0.94640  0.81480  Biso   1.000  O
  O17      1.0000 0.66120  0.41900  0.40020  Biso   1.000  O
  O18      1.0000 0.83880  0.91900  0.59980  Biso   1.000  O
  O19      1.0000 0.33880  0.58100  0.59980  Biso   1.000  O
  O20      1.0000 0.16120  0.08100  0.40020  Biso   1.000  O
  O21      1.0000 0.71300  0.54610  0.28780  Biso   1.000  O
  O22      1.0000 0.78700  0.04610  0.71220  Biso   1.000  O
  O23      1.0000 0.28700  0.45390  0.71220  Biso   1.000  O
  O24      1.0000 0.21300  0.95390  0.28780  Biso   1.000  O
  O25      1.0000 0.84250  0.18940  0.06340  Biso   1.000  O
  O26      1.0000 0.65750  0.68940  0.93660  Biso   1.000  O
  O27      1.0000 0.15750  0.81060  0.93660  Biso   1.000  O
  O28      1.0000 0.34250  0.31060  0.06340  Biso   1.000  O
  O29      1.0000 0.84200  0.92380  0.08130  Biso   1.000  O
  O30      1.0000 0.65800  0.42380  0.91870  Biso   1.000  O
  O31      1.0000 0.15800  0.07620  0.91870  Biso   1.000  O
  O32      1.0000 0.34200  0.57620  0.08130  Biso   1.000  O
  O33      1.0000 0.78700  0.21670  0.51860  Biso   1.000  O
  O34      1.0000 0.71300  0.71670  0.48140  Biso   1.000  O
  O35      1.0000 0.21300  0.78330  0.48140  Biso   1.000  O
  O36      1.0000 0.28700  0.28330  0.51860  Biso   1.000  O
  O37      1.0000 0.03180  0.17680  0.02250  Biso   1.000  O
  O38      1.0000 0.46820  0.67680  0.97750  Biso   1.000  O
  O39      1.0000 0.96820  0.82320  0.97750  Biso   1.000  O
  O40      1.0000 0.53180  0.32320  0.02250  Biso   1.000  O
  O41      1.0000 0.80400  0.09100  0.88840  Biso   1.000  O
  O42      1.0000 0.69600  0.59100  0.11160  Biso   1.000  O
  O43      1.0000 0.19600  0.90900  0.11160  Biso   1.000  O
  O44      1.0000 0.30400  0.40900  0.88840  Biso   1.000  O
  O45      1.0000 0.89570  0.44770  0.94300  Biso   1.000  O
  O46      1.0000 0.60430  0.94770  0.05700  Biso   1.000  O
  O47      1.0000 0.10430  0.55230  0.05700  Biso   1.000  O
  O48      1.0000 0.39570  0.05230  0.94300  Biso   1.000  O
  O49      1.0000 0.62100  0.07040  0.89840  Biso   1.000  O
  O50      1.0000 0.87900  0.57040  0.10160  Biso   1.000  O
  O51      1.0000 0.37900  0.92960  0.10160  Biso   1.000  O
  O52      1.0000 0.12100  0.42960  0.89840  Biso   1.000  O
  O53      1.0000 0.48860  0.12500  0.20860  Biso   1.000  O
  O54      1.0000 0.01140  0.62500  0.79140  Biso   1.000  O
  O55      1.0000 0.51140  0.87500  0.79140  Biso   1.000  O
  O56      1.0000 0.98860  0.37500  0.20860  Biso   1.000  O
  N1       1.0000 0.58960  0.29350  0.55280  Biso   1.000  N
  N2       1.0000 0.91040  0.79350  0.44720  Biso   1.000  N
  N3       1.0000 0.41040  0.70650  0.44720  Biso   1.000  N
  N4       1.0000 0.08960  0.20650  0.55280  Biso   1.000  N
  N5       1.0000 0.68970  0.13610  0.33700  Biso   1.000  N
  N6       1.0000 0.81030  0.63610  0.66300  Biso   1.000  N
  N7       1.0000 0.31030  0.86390  0.66300  Biso   1.000  N
  N8       1.0000 0.18970  0.36390  0.33700  Biso   1.000  N
  C1       1.0000 0.56410  0.17730  0.60600  Biso   1.000  C
  C2       1.0000 0.93590  0.67730  0.39400  Biso   1.000  C
  C3       1.0000 0.43590  0.82270  0.39400  Biso   1.000  C
  C4       1.0000 0.06410  0.32270  0.60600  Biso   1.000  C
  C5       1.0000 0.52900  0.21310  0.68390  Biso   1.000  C
  C6       1.0000 0.97100  0.71310  0.31610  Biso   1.000  C
  C7       1.0000 0.47100  0.78690  0.31610  Biso   1.000  C
  C8       1.0000 0.02900  0.28690  0.68390  Biso   1.000  C
  C9       1.0000 0.52120  0.37130  0.70880  Biso   1.000  C
  C10      1.0000 0.97880  0.87130  0.29120  Biso   1.000  C
  C11      1.0000 0.47880  0.62870  0.29120  Biso   1.000  C
  C12      1.0000 0.02120  0.12870  0.70880  Biso   1.000  C
  C13      1.0000 0.54650  0.48990  0.65310  Biso   1.000  C
  C14      1.0000 0.95350  0.98990  0.34690  Biso   1.000  C
  C15      1.0000 0.45350  0.51010  0.34690  Biso   1.000  C
  C16      1.0000 0.04650  0.01010  0.65310  Biso   1.000  C
  C17      1.0000 0.58060  0.44560  0.57520  Biso   1.000  C
  C18      1.0000 0.91940  0.94560  0.42480  Biso   1.000  C
  C19      1.0000 0.41940  0.55440  0.42480  Biso   1.000  C
  C20      1.0000 0.08060  0.05440  0.57520  Biso   1.000  C
  C21      1.0000 0.58090  0.00880  0.57500  Biso   1.000  C
  C22      1.0000 0.91910  0.50880  0.42500  Biso   1.000  C
  C23      1.0000 0.41910  0.99120  0.42500  Biso   1.000  C
  C24      1.0000 0.08090  0.49120  0.57500  Biso   1.000  C
  C25      1.0000 0.48720  0.41210  0.79570  Biso   1.000  C
  C26      1.0000 0.01280  0.91210  0.20430  Biso   1.000  C
  C27      1.0000 0.51280  0.58790  0.20430  Biso   1.000  C
  C28      1.0000 0.98720  0.08790  0.79570  Biso   1.000  C
  C29      1.0000 0.71570  0.26040  0.28990  Biso   1.000  C
  C30      1.0000 0.78430  0.76040  0.71010  Biso   1.000  C
  C31      1.0000 0.28430  0.73960  0.71010  Biso   1.000  C
  C32      1.0000 0.21570  0.23960  0.28990  Biso   1.000  C
  C33      1.0000 0.75710  0.23860  0.21320  Biso   1.000  C
  C34      1.0000 0.74290  0.73860  0.78680  Biso   1.000  C
  C35      1.0000 0.24290  0.76140  0.78680  Biso   1.000  C
  C36      1.0000 0.25710  0.26140  0.21320  Biso   1.000  C
  C37      1.0000 0.77350  0.08760  0.18430  Biso   1.000  C
  C38      1.0000 0.72650  0.58760  0.81570  Biso   1.000  C
  C39      1.0000 0.22650  0.91240  0.81570  Biso   1.000  C
  C40      1.0000 0.27350  0.41240  0.18430  Biso   1.000  C
  C41      1.0000 0.74640  0.95870  0.23260  Biso   1.000  C
  C42      1.0000 0.75360  0.45870  0.76740  Biso   1.000  C
  C43      1.0000 0.25360  0.04130  0.76740  Biso   1.000  C
  C44      1.0000 0.24640  0.54130  0.23260  Biso   1.000  C
  C45      1.0000 0.70460  0.98840  0.30850  Biso   1.000  C
  C46      1.0000 0.79540  0.48840  0.69150  Biso   1.000  C
  C47      1.0000 0.29540  0.01160  0.69150  Biso   1.000  C
  C48      1.0000 0.20460  0.51160  0.30850  Biso   1.000  C
  C49      1.0000 0.69560  0.42210  0.32620  Biso   1.000  C
  C50      1.0000 0.80440  0.92210  0.67380  Biso   1.000  C
  C51      1.0000 0.30440  0.57790  0.67380  Biso   1.000  C
  C52      1.0000 0.19560  0.07790  0.32620  Biso   1.000  C
  C53      1.0000 0.82350  0.06220  0.10230  Biso   1.000  C
  C54      1.0000 0.67650  0.56220  0.89770  Biso   1.000  C
  C55      1.0000 0.17650  0.93780  0.89770  Biso   1.000  C
  C56      1.0000 0.32350  0.43780  0.10230  Biso   1.000  C
  H1       1.0000 0.51020  0.12970  0.72040  Biso   1.000  H
  H2       1.0000 0.98980  0.62970  0.27960  Biso   1.000  H
  H3       1.0000 0.48980  0.87030  0.27960  Biso   1.000  H
  H4       1.0000 0.01020  0.37030  0.72040  Biso   1.000  H
  H5       1.0000 0.54060  0.59950  0.66770  Biso   1.000  H
  H6       1.0000 0.95940  0.09950  0.33230  Biso   1.000  H
  H7       1.0000 0.45940  0.40050  0.33230  Biso   1.000  H
  H8       1.0000 0.04060  0.90050  0.66770  Biso   1.000  H
  H9       1.0000 0.59810  0.52670  0.53670  Biso   1.000  H
  H10      1.0000 0.90190  0.02670  0.46330  Biso   1.000  H
  H11      1.0000 0.40190  0.47330  0.46330  Biso   1.000  H
  H12      1.0000 0.09810  0.97330  0.53670  Biso   1.000  H
  H13      1.0000 0.77420  0.32870  0.18060  Biso   1.000  H
  H14      1.0000 0.72580  0.82870  0.81940  Biso   1.000  H
  H15      1.0000 0.22580  0.67130  0.81940  Biso   1.000  H
  H16      1.0000 0.27420  0.17130  0.18060  Biso   1.000  H
  H17      1.0000 0.75630  0.85220  0.21410  Biso   1.000  H
  H18      1.0000 0.74370  0.35220  0.78590  Biso   1.000  H
  H19      1.0000 0.24370  0.14780  0.78590  Biso   1.000  H
  H20      1.0000 0.25630  0.64780  0.21410  Biso   1.000  H
  H21      1.0000 0.68570  0.90010  0.34150  Biso   1.000  H
  H22      1.0000 0.81430  0.40010  0.65850  Biso   1.000  H
  H23      1.0000 0.31430  0.09990  0.65850  Biso   1.000  H
  H24      1.0000 0.18570  0.59990  0.34150  Biso   1.000  H
