data_image0
_cell_length_a       7.7656
_cell_length_b       7.9258
_cell_length_c       7.5144
_cell_angle_alpha    97.499
_cell_angle_beta     91.663
_cell_angle_gamma    112.495

_symmetry_space_group_name_H-M    "P 1"
_symmetry_int_tables_number       1

loop_
  _symmetry_equiv_pos_as_xyz
  'x, y, z'

loop_
  _atom_site_label
  _atom_site_occupancy
  _atom_site_fract_x
  _atom_site_fract_y
  _atom_site_fract_z
  _atom_site_thermal_displace_type
  _atom_site_B_iso_or_equiv
  _atom_site_type_symbol
  Cu1      1.0000 0.00000  0.50000  0.50000  Biso   1.000  Cu
  Fe1      1.0000 0.00000  0.00000  0.00000  Biso   1.000  Fe
  O1       1.0000 0.06970  0.74350  0.63570  Biso   1.000  O
  O2       1.0000 0.93030  0.25650  0.36430  Biso   1.000  O
  O3       1.0000 0.94770  0.95240  0.71370  Biso   1.000  O
  O4       1.0000 0.05230  0.04760  0.28630  Biso   1.000  O
  O5       1.0000 0.42400  0.89840  0.22720  Biso   1.000  O
  O6       1.0000 0.57600  0.10160  0.77280  Biso   1.000  O
  O7       1.0000 0.19670  0.61880  0.22430  Biso   1.000  O
  O8       1.0000 0.80330  0.38120  0.77570  Biso   1.000  O
  O9       1.0000 0.05300  0.28370  0.97200  Biso   1.000  O
  O10      1.0000 0.94700  0.71630  0.02800  Biso   1.000  O
  O11      1.0000 0.28570  0.05680  0.00370  Biso   1.000  O
  O12      1.0000 0.71430  0.94320  0.99630  Biso   1.000  O
  N1       1.0000 0.79020  0.54800  0.39890  Biso   1.000  N
  N2       1.0000 0.20980  0.45200  0.60110  Biso   1.000  N
  C1       1.0000 0.79320  0.71260  0.47370  Biso   1.000  C
  C2       1.0000 0.20680  0.28740  0.52630  Biso   1.000  C
  C3       1.0000 0.65990  0.77740  0.42750  Biso   1.000  C
  C4       1.0000 0.34010  0.22260  0.57250  Biso   1.000  C
  C5       1.0000 0.51140  0.66240  0.30270  Biso   1.000  C
  C6       1.0000 0.48860  0.33760  0.69730  Biso   1.000  C
  C7       1.0000 0.50690  0.49170  0.22950  Biso   1.000  C
  C8       1.0000 0.49310  0.50830  0.77050  Biso   1.000  C
  C9       1.0000 0.64990  0.43890  0.27810  Biso   1.000  C
  C10      1.0000 0.35010  0.56110  0.72190  Biso   1.000  C
  C11      1.0000 0.94820  0.81330  0.61900  Biso   1.000  C
  C12      1.0000 0.05180  0.18670  0.38100  Biso   1.000  C
  C13      1.0000 0.36350  0.73160  0.24640  Biso   1.000  C
  C14      1.0000 0.63650  0.26840  0.75360  Biso   1.000  C
  H1       1.0000 0.66840  0.89670  0.47890  Biso   1.000  H
  H2       1.0000 0.33160  0.10330  0.52110  Biso   1.000  H
  H3       1.0000 0.40590  0.41060  0.14590  Biso   1.000  H
  H4       1.0000 0.59410  0.58940  0.85410  Biso   1.000  H
  H5       1.0000 0.64810  0.32280  0.22440  Biso   1.000  H
  H6       1.0000 0.35190  0.67720  0.77560  Biso   1.000  H
