data_image0
_cell_length_a       7.811
_cell_length_b       9.383
_cell_length_c       11.246
_cell_angle_alpha    100.754
_cell_angle_beta     104.095
_cell_angle_gamma    108.66

_symmetry_space_group_name_H-M    "P 1"
_symmetry_int_tables_number       1

loop_
  _symmetry_equiv_pos_as_xyz
  'x, y, z'

loop_
  _atom_site_label
  _atom_site_occupancy
  _atom_site_fract_x
  _atom_site_fract_y
  _atom_site_fract_z
  _atom_site_thermal_displace_type
  _atom_site_B_iso_or_equiv
  _atom_site_type_symbol
  Cu1      1.0000 0.44012  0.15573  0.10039  Biso   1.000  Cu
  Cu2      1.0000 0.55988  0.84427  0.89961  Biso   1.000  Cu
  Cu3      1.0000 0.00000  0.00000  0.00000  Biso   1.000  Cu
  N1       1.0000 0.62800  0.16490  0.26420  Biso   1.000  N
  N2       1.0000 0.37200  0.83510  0.73580  Biso   1.000  N
  C1       1.0000 0.77050  0.29370  0.35190  Biso   1.000  C
  C2       1.0000 0.22950  0.70630  0.64810  Biso   1.000  C
  N3       1.0000 0.89150  0.28680  0.45850  Biso   1.000  N
  N4       1.0000 0.10850  0.71320  0.54150  Biso   1.000  N
  C3       1.0000 0.86690  0.14640  0.47580  Biso   1.000  C
  C4       1.0000 0.13310  0.85360  0.52420  Biso   1.000  C
  H1       1.0000 0.95080  0.14060  0.55010  Biso   1.000  H
  H2       1.0000 0.04920  0.85940  0.44990  Biso   1.000  H
  C5       1.0000 0.72550  0.00750  0.39150  Biso   1.000  C
  C6       1.0000 0.27450  0.99250  0.60850  Biso   1.000  C
  H3       1.0000 0.70940  0.90830  0.40610  Biso   1.000  H
  H4       1.0000 0.29060  0.09170  0.59390  Biso   1.000  H
  C7       1.0000 0.60970  0.02360  0.28490  Biso   1.000  C
  C8       1.0000 0.39030  0.97640  0.71510  Biso   1.000  C
  H5       1.0000 0.51280  0.93160  0.22320  Biso   1.000  H
  H6       1.0000 0.48720  0.06840  0.77680  Biso   1.000  H
  N5       1.0000 0.79550  0.43540  0.33570  Biso   1.000  N
  N6       1.0000 0.20450  0.56460  0.66430  Biso   1.000  N
  H7       1.0000 0.71950  0.44470  0.26830  Biso   1.000  H
  H8       1.0000 0.28050  0.55530  0.73170  Biso   1.000  H
  H9       1.0000 0.88790  0.51940  0.39250  Biso   1.000  H
  H10      1.0000 0.11210  0.48060  0.60750  Biso   1.000  H
  N7       1.0000 0.21660  0.10290  0.93960  Biso   1.000  N
  N8       1.0000 0.78340  0.89710  0.06040  Biso   1.000  N
  N9       1.0000 0.21080  0.19040  0.87180  Biso   1.000  N
  N10      1.0000 0.78920  0.80960  0.12820  Biso   1.000  N
  N11      1.0000 0.20370  0.26820  0.80510  Biso   1.000  N
  N12      1.0000 0.79630  0.73180  0.19490  Biso   1.000  N
  N13      1.0000 0.21720  0.04740  0.15750  Biso   1.000  N
  N14      1.0000 0.78280  0.95260  0.84250  Biso   1.000  N
  N15      1.0000 0.21220  0.09710  0.26390  Biso   1.000  N
  N16      1.0000 0.78780  0.90290  0.73610  Biso   1.000  N
  N17      1.0000 0.20990  0.14130  0.36510  Biso   1.000  N
  N18      1.0000 0.79010  0.85870  0.63490  Biso   1.000  N
  N19      1.0000 0.62800  0.20200  0.00960  Biso   1.000  N
  N20      1.0000 0.37200  0.79800  0.99040  Biso   1.000  N
  N21      1.0000 0.79420  0.22890  0.05560  Biso   1.000  N
  N22      1.0000 0.20580  0.77110  0.94440  Biso   1.000  N
  N23      1.0000 0.95470  0.25340  0.09210  Biso   1.000  N
  N24      1.0000 0.04530  0.74660  0.90790  Biso   1.000  N
  O1       1.0000 0.45010  0.40740  0.16170  Biso   1.000  O
  O2       1.0000 0.54990  0.59260  0.83830  Biso   1.000  O
  C9       1.0000 0.35270  0.48840  0.14720  Biso   1.000  C
  C10      1.0000 0.64730  0.51160  0.85280  Biso   1.000  C
  H11      1.0000 0.30230  0.49340  0.06290  Biso   1.000  H
  H12      1.0000 0.69770  0.50660  0.93710  Biso   1.000  H
  N25      1.0000 0.31320  0.56860  0.23960  Biso   1.000  N
  N26      1.0000 0.68680  0.43140  0.76040  Biso   1.000  N
  C11      1.0000 0.37190  0.55480  0.36930  Biso   1.000  C
  C12      1.0000 0.62810  0.44520  0.63070  Biso   1.000  C
  H13      1.0000 0.46250  0.50230  0.37610  Biso   1.000  H
  H14      1.0000 0.53750  0.49770  0.62390  Biso   1.000  H
  H15      1.0000 0.25940  0.49300  0.38790  Biso   1.000  H
  H16      1.0000 0.74060  0.50700  0.61210  Biso   1.000  H
  H17      1.0000 0.43310  0.65970  0.43080  Biso   1.000  H
  H18      1.0000 0.56690  0.34030  0.56920  Biso   1.000  H
  C13      1.0000 0.17770  0.64430  0.21280  Biso   1.000  C
  C14      1.0000 0.82230  0.35570  0.78720  Biso   1.000  C
  H19      1.0000 0.14900  0.64690  0.12360  Biso   1.000  H
  H20      1.0000 0.85100  0.35310  0.87640  Biso   1.000  H
  H21      1.0000 0.23330  0.75180  0.26980  Biso   1.000  H
  H22      1.0000 0.76670  0.24820  0.73020  Biso   1.000  H
  H23      1.0000 0.05970  0.58510  0.22700  Biso   1.000  H
  H24      1.0000 0.94030  0.41490  0.77300  Biso   1.000  H
