data_image0
_cell_length_a       7.832
_cell_length_b       9.495
_cell_length_c       11.309
_cell_angle_alpha    100.795
_cell_angle_beta     104.288
_cell_angle_gamma    108.334

_symmetry_space_group_name_H-M    "P 1"
_symmetry_int_tables_number       1

loop_
  _symmetry_equiv_pos_as_xyz
  'x, y, z'

loop_
  _atom_site_label
  _atom_site_occupancy
  _atom_site_fract_x
  _atom_site_fract_y
  _atom_site_fract_z
  _atom_site_thermal_displace_type
  _atom_site_B_iso_or_equiv
  _atom_site_type_symbol
  Cu1      1.0000 0.05995  0.34313  0.39934  Biso   1.000  Cu
  Cu2      1.0000 0.94005  0.65687  0.60066  Biso   1.000  Cu
  Cu3      1.0000 0.50000  0.50000  0.50000  Biso   1.000  Cu
  N1       1.0000 0.87060  0.33240  0.23720  Biso   1.000  N
  N2       1.0000 0.12940  0.66760  0.76280  Biso   1.000  N
  N3       1.0000 0.60740  0.21040  0.04260  Biso   1.000  N
  N4       1.0000 0.39260  0.78960  0.95740  Biso   1.000  N
  N5       1.0000 0.70440  0.06650  0.16540  Biso   1.000  N
  N6       1.0000 0.29560  0.93350  0.83460  Biso   1.000  N
  N7       1.0000 0.28470  0.39530  0.55800  Biso   1.000  N
  N8       1.0000 0.71530  0.60470  0.44200  Biso   1.000  N
  N9       1.0000 0.29230  0.31160  0.62730  Biso   1.000  N
  N10      1.0000 0.70770  0.68840  0.37270  Biso   1.000  N
  N11      1.0000 0.29820  0.23580  0.69410  Biso   1.000  N
  N12      1.0000 0.70180  0.76420  0.30590  Biso   1.000  N
  N13      1.0000 0.28190  0.44970  0.34390  Biso   1.000  N
  N14      1.0000 0.71810  0.55030  0.65610  Biso   1.000  N
  N15      1.0000 0.28590  0.40610  0.23690  Biso   1.000  N
  N16      1.0000 0.71410  0.59390  0.76310  Biso   1.000  N
  N17      1.0000 0.28780  0.36730  0.13610  Biso   1.000  N
  N18      1.0000 0.71220  0.63270  0.86390  Biso   1.000  N
  N19      1.0000 0.87520  0.30010  0.48940  Biso   1.000  N
  N20      1.0000 0.12480  0.69990  0.51060  Biso   1.000  N
  N21      1.0000 0.71060  0.27410  0.44630  Biso   1.000  N
  N22      1.0000 0.28940  0.72590  0.55370  Biso   1.000  N
  N23      1.0000 0.54980  0.25030  0.41070  Biso   1.000  N
  N24      1.0000 0.45020  0.74970  0.58930  Biso   1.000  N
  N25      1.0000 0.18650  0.93650  0.26230  Biso   1.000  N
  N26      1.0000 0.81350  0.06350  0.73770  Biso   1.000  N
  O1       1.0000 0.04830  0.09200  0.33850  Biso   1.000  O
  O2       1.0000 0.95170  0.90800  0.66150  Biso   1.000  O
  C1       1.0000 0.72860  0.20490  0.14810  Biso   1.000  C
  C2       1.0000 0.27140  0.79510  0.85190  Biso   1.000  C
  C3       1.0000 0.63160  0.34830  0.02510  Biso   1.000  C
  C4       1.0000 0.36840  0.65170  0.97490  Biso   1.000  C
  C5       1.0000 0.76980  0.48220  0.10930  Biso   1.000  C
  C6       1.0000 0.23020  0.51780  0.89070  Biso   1.000  C
  C7       1.0000 0.88600  0.46960  0.21460  Biso   1.000  C
  C8       1.0000 0.11400  0.53040  0.78540  Biso   1.000  C
  C9       1.0000 0.14430  0.01270  0.35260  Biso   1.000  C
  C10      1.0000 0.85570  0.98730  0.64740  Biso   1.000  C
  C11      1.0000 0.13110  0.95190  0.13530  Biso   1.000  C
  C12      1.0000 0.86890  0.04810  0.86470  Biso   1.000  C
  H1       1.0000 0.05850  0.01680  0.13200  Biso   1.000  H
  H2       1.0000 0.94150  0.98320  0.86800  Biso   1.000  H
  H3       1.0000 0.05490  0.85150  0.07580  Biso   1.000  H
  H4       1.0000 0.94510  0.14850  0.92420  Biso   1.000  H
  H5       1.0000 0.24290  0.99770  0.11370  Biso   1.000  H
  H6       1.0000 0.75710  0.00230  0.88630  Biso   1.000  H
  C13      1.0000 0.31720  0.85750  0.28910  Biso   1.000  C
  C14      1.0000 0.68280  0.14250  0.71090  Biso   1.000  C
  H7       1.0000 0.33920  0.85040  0.37480  Biso   1.000  H
  H8       1.0000 0.66080  0.14960  0.62520  Biso   1.000  H
  H9       1.0000 0.43570  0.91470  0.27970  Biso   1.000  H
  H10      1.0000 0.56430  0.08530  0.72030  Biso   1.000  H
  H11      1.0000 0.26290  0.75520  0.23060  Biso   1.000  H
  H12      1.0000 0.73710  0.24480  0.76940  Biso   1.000  H
  H13      1.0000 0.62300  0.98700  0.10030  Biso   1.000  H
  H14      1.0000 0.37700  0.01300  0.89970  Biso   1.000  H
  H15      1.0000 0.55400  0.35500  0.95600  Biso   1.000  H
  H16      1.0000 0.44600  0.64500  0.04400  Biso   1.000  H
  H17      1.0000 0.78400  0.05000  0.22000  Biso   1.000  H
  H18      1.0000 0.21600  0.95000  0.78000  Biso   1.000  H
  H19      1.0000 0.78400  0.56900  0.09700  Biso   1.000  H
  H20      1.0000 0.21600  0.43100  0.90300  Biso   1.000  H
  H21      1.0000 0.96800  0.55000  0.27600  Biso   1.000  H
  H22      1.0000 0.03200  0.45000  0.72400  Biso   1.000  H
  H23      1.0000 0.17700  0.99600  0.42500  Biso   1.000  H
  H24      1.0000 0.82300  0.00400  0.57500  Biso   1.000  H
