data_image0
_cell_length_a       11.669
_cell_length_b       8.808
_cell_length_c       7.951
_cell_angle_alpha    90
_cell_angle_beta     102.52
_cell_angle_gamma    90

_symmetry_space_group_name_H-M    "P 1"
_symmetry_int_tables_number       1

loop_
  _symmetry_equiv_pos_as_xyz
  'x, y, z'

loop_
  _atom_site_label
  _atom_site_occupancy
  _atom_site_fract_x
  _atom_site_fract_y
  _atom_site_fract_z
  _atom_site_thermal_displace_type
  _atom_site_B_iso_or_equiv
  _atom_site_type_symbol
  Cu1      1.0000 0.00000  0.00000  0.00000  Biso   1.000  Cu
  Cu2      1.0000 0.00000  0.50000  0.50000  Biso   1.000  Cu
  S1       1.0000 0.39990  0.89870  0.15050  Biso   1.000  S
  S2       1.0000 0.60010  0.39870  0.34950  Biso   1.000  S
  S3       1.0000 0.60010  0.10130  0.84950  Biso   1.000  S
  S4       1.0000 0.39990  0.60130  0.65050  Biso   1.000  S
  N1       1.0000 0.15870  0.92980  0.08860  Biso   1.000  N
  N2       1.0000 0.84130  0.42980  0.41140  Biso   1.000  N
  N3       1.0000 0.84130  0.07020  0.91140  Biso   1.000  N
  N4       1.0000 0.15870  0.57020  0.58860  Biso   1.000  N
  N5       1.0000 0.76400  0.75080  0.52140  Biso   1.000  N
  N6       1.0000 0.23600  0.25080  0.97860  Biso   1.000  N
  N7       1.0000 0.23600  0.24920  0.47860  Biso   1.000  N
  N8       1.0000 0.76400  0.74920  0.02140  Biso   1.000  N
  N9       1.0000 0.85220  0.92690  0.36090  Biso   1.000  N
  N10      1.0000 0.14780  0.42690  0.13910  Biso   1.000  N
  N11      1.0000 0.14780  0.07310  0.63910  Biso   1.000  N
  N12      1.0000 0.85220  0.57310  0.86090  Biso   1.000  N
  N13      1.0000 0.95260  0.94130  0.30240  Biso   1.000  N
  N14      1.0000 0.04740  0.44130  0.19760  Biso   1.000  N
  N15      1.0000 0.04740  0.05870  0.69760  Biso   1.000  N
  N16      1.0000 0.95260  0.55870  0.80240  Biso   1.000  N
  N17      1.0000 0.05110  0.21750  0.06190  Biso   1.000  N
  N18      1.0000 0.94890  0.71750  0.43810  Biso   1.000  N
  N19      1.0000 0.94890  0.78250  0.93810  Biso   1.000  N
  N20      1.0000 0.05110  0.28250  0.56190  Biso   1.000  N
  C1       1.0000 0.25900  0.91720  0.11450  Biso   1.000  C
  C2       1.0000 0.74100  0.41720  0.38550  Biso   1.000  C
  C3       1.0000 0.74100  0.08280  0.88550  Biso   1.000  C
  C4       1.0000 0.25900  0.58280  0.61450  Biso   1.000  C
  C5       1.0000 0.67140  0.98440  0.41230  Biso   1.000  C
  C6       1.0000 0.32860  0.48440  0.08770  Biso   1.000  C
  C7       1.0000 0.32860  0.01560  0.58770  Biso   1.000  C
  C8       1.0000 0.67140  0.51560  0.91230  Biso   1.000  C
  C9       1.0000 0.67690  0.84850  0.50300  Biso   1.000  C
  C10      1.0000 0.32310  0.34850  0.99700  Biso   1.000  C
  C11      1.0000 0.32310  0.15150  0.49700  Biso   1.000  C
  C12      1.0000 0.67690  0.65150  0.00300  Biso   1.000  C
  C13      1.0000 0.85180  0.79170  0.44550  Biso   1.000  C
  C14      1.0000 0.14820  0.29170  0.05450  Biso   1.000  C
  C15      1.0000 0.14820  0.20830  0.55450  Biso   1.000  C
  C16      1.0000 0.85180  0.70830  0.94550  Biso   1.000  C
  C17      1.0000 0.76180  0.02350  0.34090  Biso   1.000  C
  C18      1.0000 0.23820  0.52350  0.15910  Biso   1.000  C
  C19      1.0000 0.23820  0.97650  0.65910  Biso   1.000  C
  C20      1.0000 0.76180  0.47650  0.84090  Biso   1.000  C
  C21      1.0000 0.00720  0.81140  0.35330  Biso   1.000  C
  C22      1.0000 0.99280  0.31140  0.14670  Biso   1.000  C
  C23      1.0000 0.99280  0.18860  0.64670  Biso   1.000  C
  C24      1.0000 0.00720  0.68860  0.85330  Biso   1.000  C
  H1       1.0000 0.60800  0.04300  0.40700  Biso   1.000  H
  H2       1.0000 0.39200  0.54300  0.09300  Biso   1.000  H
  H3       1.0000 0.39200  0.95700  0.59300  Biso   1.000  H
  H4       1.0000 0.60800  0.45700  0.90700  Biso   1.000  H
  H5       1.0000 0.61000  0.81800  0.55100  Biso   1.000  H
  H6       1.0000 0.39000  0.31800  0.94900  Biso   1.000  H
  H7       1.0000 0.39000  0.18200  0.44900  Biso   1.000  H
  H8       1.0000 0.61000  0.68200  0.05100  Biso   1.000  H
  H9       1.0000 0.76600  0.12300  0.29700  Biso   1.000  H
  H10      1.0000 0.23400  0.62300  0.20300  Biso   1.000  H
  H11      1.0000 0.23400  0.87700  0.70300  Biso   1.000  H
  H12      1.0000 0.76600  0.37700  0.79700  Biso   1.000  H
  H13      1.0000 0.08500  0.79800  0.34900  Biso   1.000  H
  H14      1.0000 0.91500  0.29800  0.15100  Biso   1.000  H
  H15      1.0000 0.91500  0.20200  0.65100  Biso   1.000  H
  H16      1.0000 0.08500  0.70200  0.84900  Biso   1.000  H
