data_image0
_cell_length_a       9.546
_cell_length_b       8.958
_cell_length_c       8.082
_cell_angle_alpha    90
_cell_angle_beta     107.32
_cell_angle_gamma    90

_symmetry_space_group_name_H-M    "P 1"
_symmetry_int_tables_number       1

loop_
  _symmetry_equiv_pos_as_xyz
  'x, y, z'

loop_
  _atom_site_label
  _atom_site_occupancy
  _atom_site_fract_x
  _atom_site_fract_y
  _atom_site_fract_z
  _atom_site_thermal_displace_type
  _atom_site_B_iso_or_equiv
  _atom_site_type_symbol
  Cu1      1.0000 0.00000  0.00000  0.00000  Biso   1.000  Cu
  Cu2      1.0000 0.00000  0.50000  0.50000  Biso   1.000  Cu
  Cl1      1.0000 0.23610  0.08200  0.04240  Biso   1.000  Cl
  Cl2      1.0000 0.76390  0.58200  0.45760  Biso   1.000  Cl
  Cl3      1.0000 0.76390  0.91800  0.95760  Biso   1.000  Cl
  Cl4      1.0000 0.23610  0.41800  0.54240  Biso   1.000  Cl
  N1       1.0000 0.71180  0.25850  0.78860  Biso   1.000  N
  N2       1.0000 0.28820  0.75850  0.71140  Biso   1.000  N
  N3       1.0000 0.28820  0.74150  0.21140  Biso   1.000  N
  N4       1.0000 0.71180  0.24150  0.28860  Biso   1.000  N
  N5       1.0000 0.81990  0.42390  0.02180  Biso   1.000  N
  N6       1.0000 0.18010  0.92390  0.47820  Biso   1.000  N
  N7       1.0000 0.18010  0.57610  0.97820  Biso   1.000  N
  N8       1.0000 0.81990  0.07610  0.52180  Biso   1.000  N
  N9       1.0000 0.94400  0.43440  0.16150  Biso   1.000  N
  N10      1.0000 0.05600  0.93440  0.33850  Biso   1.000  N
  N11      1.0000 0.05600  0.56560  0.83850  Biso   1.000  N
  N12      1.0000 0.94400  0.06560  0.66150  Biso   1.000  N
  N13      1.0000 0.93730  0.21280  0.02130  Biso   1.000  N
  N14      1.0000 0.06270  0.71280  0.47870  Biso   1.000  N
  N15      1.0000 0.06270  0.78720  0.97870  Biso   1.000  N
  N16      1.0000 0.93730  0.28720  0.52130  Biso   1.000  N
  C1       1.0000 0.60030  0.49370  0.82720  Biso   1.000  C
  C2       1.0000 0.39970  0.99370  0.67280  Biso   1.000  C
  C3       1.0000 0.39970  0.50630  0.17280  Biso   1.000  C
  C4       1.0000 0.60030  0.00630  0.32720  Biso   1.000  C
  C5       1.0000 0.60740  0.35970  0.73790  Biso   1.000  C
  C6       1.0000 0.39260  0.85970  0.76210  Biso   1.000  C
  C7       1.0000 0.39260  0.64030  0.26210  Biso   1.000  C
  C8       1.0000 0.60740  0.14030  0.23790  Biso   1.000  C
  C9       1.0000 0.81790  0.29130  0.93640  Biso   1.000  C
  C10      1.0000 0.18210  0.79130  0.56360  Biso   1.000  C
  C11      1.0000 0.18210  0.70870  0.06360  Biso   1.000  C
  C12      1.0000 0.81790  0.20870  0.43640  Biso   1.000  C
  C13      1.0000 0.71140  0.52650  0.97210  Biso   1.000  C
  C14      1.0000 0.28860  0.02650  0.52790  Biso   1.000  C
  C15      1.0000 0.28860  0.47350  0.02790  Biso   1.000  C
  C16      1.0000 0.71140  0.97350  0.47210  Biso   1.000  C
  C17      1.0000 0.00830  0.30370  0.15330  Biso   1.000  C
  C18      1.0000 0.99170  0.80370  0.34670  Biso   1.000  C
  C19      1.0000 0.99170  0.69630  0.84670  Biso   1.000  C
  C20      1.0000 0.00830  0.19630  0.65330  Biso   1.000  C
  H1       1.0000 0.51800  0.55500  0.78100  Biso   1.000  H
  H2       1.0000 0.48200  0.05500  0.71900  Biso   1.000  H
  H3       1.0000 0.48200  0.44500  0.21900  Biso   1.000  H
  H4       1.0000 0.51800  0.94500  0.28100  Biso   1.000  H
  H5       1.0000 0.53700  0.34000  0.63700  Biso   1.000  H
  H6       1.0000 0.46300  0.84000  0.86300  Biso   1.000  H
  H7       1.0000 0.46300  0.66000  0.36300  Biso   1.000  H
  H8       1.0000 0.53700  0.16000  0.13700  Biso   1.000  H
  H9       1.0000 0.71400  0.61300  0.05000  Biso   1.000  H
  H10      1.0000 0.28600  0.11300  0.45000  Biso   1.000  H
  H11      1.0000 0.28600  0.38700  0.95000  Biso   1.000  H
  H12      1.0000 0.71400  0.88700  0.55000  Biso   1.000  H
  H13      1.0000 0.11100  0.27700  0.24000  Biso   1.000  H
  H14      1.0000 0.88900  0.77700  0.26000  Biso   1.000  H
  H15      1.0000 0.88900  0.72300  0.76000  Biso   1.000  H
  H16      1.0000 0.11100  0.22300  0.74000  Biso   1.000  H
