data_image0
_cell_length_a       28.43
_cell_length_b       11.085
_cell_length_c       8.162
_cell_angle_alpha    90
_cell_angle_beta     90
_cell_angle_gamma    90

_symmetry_space_group_name_H-M    "P 1"
_symmetry_int_tables_number       1

loop_
  _symmetry_equiv_pos_as_xyz
  'x, y, z'

loop_
  _atom_site_label
  _atom_site_occupancy
  _atom_site_fract_x
  _atom_site_fract_y
  _atom_site_fract_z
  _atom_site_thermal_displace_type
  _atom_site_B_iso_or_equiv
  _atom_site_type_symbol
  Cu1      1.0000 0.17490  0.03400  0.25710  Biso   1.000  Cu
  Cu2      1.0000 0.32510  0.96600  0.75710  Biso   1.000  Cu
  Cu3      1.0000 0.67490  0.46600  0.74290  Biso   1.000  Cu
  Cu4      1.0000 0.82510  0.53400  0.24290  Biso   1.000  Cu
  Cl1      1.0000 0.10610  0.60830  0.95010  Biso   1.000  Cl
  Cl2      1.0000 0.39390  0.39170  0.45010  Biso   1.000  Cl
  Cl3      1.0000 0.60610  0.89170  0.04990  Biso   1.000  Cl
  Cl4      1.0000 0.89390  0.10830  0.54990  Biso   1.000  Cl
  O1       1.0000 0.22640  0.09760  0.13050  Biso   1.000  O
  O2       1.0000 0.27360  0.90240  0.63050  Biso   1.000  O
  O3       1.0000 0.72640  0.40240  0.86950  Biso   1.000  O
  O4       1.0000 0.77360  0.59760  0.36950  Biso   1.000  O
  O5       1.0000 0.22740  0.93610  0.42250  Biso   1.000  O
  O6       1.0000 0.27260  0.06390  0.92250  Biso   1.000  O
  O7       1.0000 0.72740  0.56390  0.57750  Biso   1.000  O
  O8       1.0000 0.77260  0.43610  0.07750  Biso   1.000  O
  N1       1.0000 0.18000  0.89190  0.10260  Biso   1.000  N
  N2       1.0000 0.32000  0.10810  0.60260  Biso   1.000  N
  N3       1.0000 0.68000  0.60810  0.89740  Biso   1.000  N
  N4       1.0000 0.82000  0.39190  0.39740  Biso   1.000  N
  N5       1.0000 0.11600  0.27160  0.95840  Biso   1.000  N
  N6       1.0000 0.38400  0.72840  0.45840  Biso   1.000  N
  N7       1.0000 0.61600  0.22840  0.04160  Biso   1.000  N
  N8       1.0000 0.88400  0.77160  0.54160  Biso   1.000  N
  N9       1.0000 0.12200  0.97770  0.39780  Biso   1.000  N
  N10      1.0000 0.37800  0.02230  0.89780  Biso   1.000  N
  N11      1.0000 0.62200  0.52230  0.60220  Biso   1.000  N
  N12      1.0000 0.87800  0.47770  0.10220  Biso   1.000  N
  N13      1.0000 0.15690  0.19570  0.34600  Biso   1.000  N
  N14      1.0000 0.34310  0.80430  0.84600  Biso   1.000  N
  N15      1.0000 0.65690  0.30430  0.65400  Biso   1.000  N
  N16      1.0000 0.84310  0.69570  0.15400  Biso   1.000  N
  C1       1.0000 0.23750  0.04150  0.00830  Biso   1.000  C
  C2       1.0000 0.26250  0.95850  0.50830  Biso   1.000  C
  C3       1.0000 0.73750  0.45850  0.99170  Biso   1.000  C
  C4       1.0000 0.76250  0.54150  0.49170  Biso   1.000  C
  C5       1.0000 0.20470  0.93790  0.95140  Biso   1.000  C
  C6       1.0000 0.29530  0.06210  0.45140  Biso   1.000  C
  C7       1.0000 0.70470  0.56210  0.04860  Biso   1.000  C
  C8       1.0000 0.79530  0.43790  0.54860  Biso   1.000  C
  C9       1.0000 0.16830  0.98060  0.82770  Biso   1.000  C
  C10      1.0000 0.33170  0.01940  0.32770  Biso   1.000  C
  C11      1.0000 0.66830  0.51940  0.17230  Biso   1.000  C
  C12      1.0000 0.83170  0.48060  0.67230  Biso   1.000  C
  C13      1.0000 0.13900  0.08620  0.89040  Biso   1.000  C
  C14      1.0000 0.36100  0.91380  0.39040  Biso   1.000  C
  C15      1.0000 0.63900  0.41380  0.10960  Biso   1.000  C
  C16      1.0000 0.86100  0.58620  0.60960  Biso   1.000  C
  C17      1.0000 0.15070  0.21100  0.87950  Biso   1.000  C
  C18      1.0000 0.34930  0.78900  0.37950  Biso   1.000  C
  C19      1.0000 0.65070  0.28900  0.12050  Biso   1.000  C
  C20      1.0000 0.84930  0.71100  0.62050  Biso   1.000  C
  C21      1.0000 0.08160  0.20230  0.01840  Biso   1.000  C
  C22      1.0000 0.41840  0.79770  0.51840  Biso   1.000  C
  C23      1.0000 0.58160  0.29770  0.98160  Biso   1.000  C
  C24      1.0000 0.91840  0.70230  0.48160  Biso   1.000  C
  C25      1.0000 0.09470  0.07780  0.98240  Biso   1.000  C
  C26      1.0000 0.40530  0.92220  0.48240  Biso   1.000  C
  C27      1.0000 0.59470  0.42220  0.01760  Biso   1.000  C
  C28      1.0000 0.90530  0.57780  0.51760  Biso   1.000  C
  C29      1.0000 0.06340  0.98600  0.03390  Biso   1.000  C
  C30      1.0000 0.43660  0.01400  0.53390  Biso   1.000  C
  C31      1.0000 0.56340  0.51400  0.96610  Biso   1.000  C
  C32      1.0000 0.93660  0.48600  0.46610  Biso   1.000  C
  C33      1.0000 0.02300  0.00870  0.11390  Biso   1.000  C
  C34      1.0000 0.47700  0.99130  0.61390  Biso   1.000  C
  C35      1.0000 0.52300  0.49130  0.88610  Biso   1.000  C
  C36      1.0000 0.97700  0.50870  0.38610  Biso   1.000  C
  C37      1.0000 0.01170  0.13040  0.15380  Biso   1.000  C
  C38      1.0000 0.48830  0.86960  0.65380  Biso   1.000  C
  C39      1.0000 0.51170  0.36960  0.84620  Biso   1.000  C
  C40      1.0000 0.98830  0.63040  0.34620  Biso   1.000  C
  C41      1.0000 0.04070  0.22180  0.11120  Biso   1.000  C
  C42      1.0000 0.45930  0.77820  0.61120  Biso   1.000  C
  C43      1.0000 0.54070  0.27820  0.88880  Biso   1.000  C
  C44      1.0000 0.95930  0.72180  0.38880  Biso   1.000  C
  C45      1.0000 0.10700  0.87000  0.42180  Biso   1.000  C
  C46      1.0000 0.39300  0.13000  0.92180  Biso   1.000  C
  C47      1.0000 0.60700  0.63000  0.57820  Biso   1.000  C
  C48      1.0000 0.89300  0.37000  0.07820  Biso   1.000  C
  C49      1.0000 0.06660  0.84240  0.52940  Biso   1.000  C
  C50      1.0000 0.43340  0.15760  0.02940  Biso   1.000  C
  C51      1.0000 0.56660  0.65760  0.47060  Biso   1.000  C
  C52      1.0000 0.93340  0.34240  0.97060  Biso   1.000  C
  C53      1.0000 0.04170  0.93920  0.59410  Biso   1.000  C
  C54      1.0000 0.45830  0.06080  0.09410  Biso   1.000  C
  C55      1.0000 0.54170  0.56080  0.40590  Biso   1.000  C
  C56      1.0000 0.95830  0.43920  0.90590  Biso   1.000  C
  C57      1.0000 0.05910  0.06000  0.56930  Biso   1.000  C
  C58      1.0000 0.44090  0.94000  0.06930  Biso   1.000  C
  C59      1.0000 0.55910  0.44000  0.43070  Biso   1.000  C
  C60      1.0000 0.94090  0.56000  0.93070  Biso   1.000  C
  C61      1.0000 0.09950  0.07410  0.46610  Biso   1.000  C
  C62      1.0000 0.40050  0.92590  0.96610  Biso   1.000  C
  C63      1.0000 0.59950  0.42590  0.53390  Biso   1.000  C
  C64      1.0000 0.90050  0.57410  0.03390  Biso   1.000  C
  C65      1.0000 0.11830  0.19260  0.44030  Biso   1.000  C
  C66      1.0000 0.38170  0.80740  0.94030  Biso   1.000  C
  C67      1.0000 0.61830  0.30740  0.55970  Biso   1.000  C
  C68      1.0000 0.88170  0.69260  0.05970  Biso   1.000  C
  C69      1.0000 0.09570  0.29630  0.50090  Biso   1.000  C
  C70      1.0000 0.40430  0.70370  0.00090  Biso   1.000  C
  C71      1.0000 0.59570  0.20370  0.49910  Biso   1.000  C
  C72      1.0000 0.90430  0.79630  0.99910  Biso   1.000  C
  C73      1.0000 0.11880  0.40180  0.47170  Biso   1.000  C
  C74      1.0000 0.38120  0.59820  0.97170  Biso   1.000  C
  C75      1.0000 0.61880  0.09820  0.52830  Biso   1.000  C
  C76      1.0000 0.88120  0.90180  0.02830  Biso   1.000  C
  C77      1.0000 0.15580  0.41320  0.36720  Biso   1.000  C
  C78      1.0000 0.34420  0.58680  0.86720  Biso   1.000  C
  C79      1.0000 0.65580  0.08680  0.63280  Biso   1.000  C
  C80      1.0000 0.84420  0.91320  0.13280  Biso   1.000  C
  C81      1.0000 0.17700  0.30210  0.30780  Biso   1.000  C
  C82      1.0000 0.32300  0.69790  0.80780  Biso   1.000  C
  C83      1.0000 0.67700  0.19790  0.69220  Biso   1.000  C
  C84      1.0000 0.82300  0.80210  0.19220  Biso   1.000  C
  C85      1.0000 0.03780  0.16620  0.63050  Biso   1.000  C
  C86      1.0000 0.46220  0.83380  0.13050  Biso   1.000  C
  C87      1.0000 0.53780  0.33380  0.36950  Biso   1.000  C
  C88      1.0000 0.96220  0.66620  0.86950  Biso   1.000  C
  C89      1.0000 0.05430  0.27450  0.60740  Biso   1.000  C
  C90      1.0000 0.44570  0.72550  0.10740  Biso   1.000  C
  C91      1.0000 0.55430  0.22550  0.39260  Biso   1.000  C
  C92      1.0000 0.94570  0.77450  0.89260  Biso   1.000  C
  O9       1.0000 0.10400  0.68900  0.07800  Biso   1.000  O
  O10      1.0000 0.39600  0.31100  0.57800  Biso   1.000  O
  O11      1.0000 0.60400  0.81100  0.92200  Biso   1.000  O
  O12      1.0000 0.89600  0.18900  0.42200  Biso   1.000  O
  O13      1.0000 0.14900  0.54100  0.95300  Biso   1.000  O
  O14      1.0000 0.35100  0.45900  0.45300  Biso   1.000  O
  O15      1.0000 0.64900  0.95900  0.04700  Biso   1.000  O
  O16      1.0000 0.85100  0.04100  0.54700  Biso   1.000  O
  O17      1.0000 0.10900  0.66500  0.83100  Biso   1.000  O
  O18      1.0000 0.39100  0.33500  0.33100  Biso   1.000  O
  O19      1.0000 0.60900  0.83500  0.16900  Biso   1.000  O
  O20      1.0000 0.89100  0.16500  0.66900  Biso   1.000  O
  O21      1.0000 0.06900  0.53000  0.98200  Biso   1.000  O
  O22      1.0000 0.43100  0.47000  0.48200  Biso   1.000  O
  O23      1.0000 0.56900  0.97000  0.01800  Biso   1.000  O
  O24      1.0000 0.93100  0.03000  0.51800  Biso   1.000  O
  O25      1.0000 0.20500  0.68900  0.50900  Biso   1.000  O
  O26      1.0000 0.29500  0.31100  0.00900  Biso   1.000  O
  O27      1.0000 0.70500  0.81100  0.49100  Biso   1.000  O
  O28      1.0000 0.79500  0.18900  0.99100  Biso   1.000  O
  O29      1.0000 0.26300  0.35000  0.66300  Biso   1.000  O
  O30      1.0000 0.23700  0.65000  0.16300  Biso   1.000  O
  O31      1.0000 0.76300  0.15000  0.33700  Biso   1.000  O
  O32      1.0000 0.73700  0.85000  0.83700  Biso   1.000  O
  O33      1.0000 0.22200  0.53600  0.76700  Biso   1.000  O
  O34      1.0000 0.27800  0.46400  0.26700  Biso   1.000  O
  O35      1.0000 0.72200  0.96400  0.23300  Biso   1.000  O
  O36      1.0000 0.77800  0.03600  0.73300  Biso   1.000  O
