data_image0
_cell_length_a       24.144
_cell_length_b       7.1622
_cell_length_c       17.283
_cell_angle_alpha    90
_cell_angle_beta     131.73
_cell_angle_gamma    90

_symmetry_space_group_name_H-M    "P 1"
_symmetry_int_tables_number       1

loop_
  _symmetry_equiv_pos_as_xyz
  'x, y, z'

loop_
  _atom_site_label
  _atom_site_occupancy
  _atom_site_fract_x
  _atom_site_fract_y
  _atom_site_fract_z
  _atom_site_thermal_displace_type
  _atom_site_B_iso_or_equiv
  _atom_site_type_symbol
  Cu1      1.0000 0.15649  0.38872  0.09855  Biso   1.000  Cu
  Cu2      1.0000 0.65649  0.88872  0.09855  Biso   1.000  Cu
  Cu3      1.0000 0.84351  0.38872  0.40145  Biso   1.000  Cu
  Cu4      1.0000 0.34351  0.88872  0.40145  Biso   1.000  Cu
  Cu5      1.0000 0.84351  0.61128  0.90145  Biso   1.000  Cu
  Cu6      1.0000 0.34351  0.11128  0.90145  Biso   1.000  Cu
  Cu7      1.0000 0.15649  0.61128  0.59855  Biso   1.000  Cu
  Cu8      1.0000 0.65649  0.11128  0.59855  Biso   1.000  Cu
  O1       1.0000 0.17556  0.47080  0.00960  Biso   1.000  O
  O2       1.0000 0.67556  0.97080  0.00960  Biso   1.000  O
  O3       1.0000 0.82444  0.47080  0.49040  Biso   1.000  O
  O4       1.0000 0.32444  0.97080  0.49040  Biso   1.000  O
  O5       1.0000 0.82444  0.52920  0.99040  Biso   1.000  O
  O6       1.0000 0.32444  0.02920  0.99040  Biso   1.000  O
  O7       1.0000 0.17556  0.52920  0.50960  Biso   1.000  O
  O8       1.0000 0.67556  0.02920  0.50960  Biso   1.000  O
  N1       1.0000 0.05089  0.29460  0.98278  Biso   1.000  N
  N2       1.0000 0.55089  0.79460  0.98278  Biso   1.000  N
  N3       1.0000 0.94911  0.29460  0.51722  Biso   1.000  N
  N4       1.0000 0.44911  0.79460  0.51722  Biso   1.000  N
  N5       1.0000 0.94911  0.70540  0.01722  Biso   1.000  N
  N6       1.0000 0.44911  0.20540  0.01722  Biso   1.000  N
  N7       1.0000 0.05089  0.70540  0.48278  Biso   1.000  N
  N8       1.0000 0.55089  0.20540  0.48278  Biso   1.000  N
  C1       1.0000 0.01639  0.25760  0.88420  Biso   1.000  C
  C2       1.0000 0.51639  0.75760  0.88420  Biso   1.000  C
  C3       1.0000 0.98361  0.25760  0.61580  Biso   1.000  C
  C4       1.0000 0.48361  0.75760  0.61580  Biso   1.000  C
  C5       1.0000 0.98361  0.74240  0.11580  Biso   1.000  C
  C6       1.0000 0.48361  0.24240  0.11580  Biso   1.000  C
  C7       1.0000 0.01639  0.74240  0.38420  Biso   1.000  C
  C8       1.0000 0.51639  0.24240  0.38420  Biso   1.000  C
  H1       1.0000 0.04110  0.27980  0.86090  Biso   1.000  H
  H2       1.0000 0.54110  0.77980  0.86090  Biso   1.000  H
  H3       1.0000 0.95890  0.27980  0.63910  Biso   1.000  H
  H4       1.0000 0.45890  0.77980  0.63910  Biso   1.000  H
  H5       1.0000 0.95890  0.72020  0.13910  Biso   1.000  H
  H6       1.0000 0.45890  0.22020  0.13910  Biso   1.000  H
  H7       1.0000 0.04110  0.72020  0.36090  Biso   1.000  H
  H8       1.0000 0.54110  0.22020  0.36090  Biso   1.000  H
  N9       1.0000 0.12758  0.35590  0.17753  Biso   1.000  N
  N10      1.0000 0.62758  0.85590  0.17753  Biso   1.000  N
  N11      1.0000 0.87242  0.35590  0.32247  Biso   1.000  N
  N12      1.0000 0.37242  0.85590  0.32247  Biso   1.000  N
  N13      1.0000 0.87242  0.64410  0.82247  Biso   1.000  N
  N14      1.0000 0.37242  0.14410  0.82247  Biso   1.000  N
  N15      1.0000 0.12758  0.64410  0.67753  Biso   1.000  N
  N16      1.0000 0.62758  0.14410  0.67753  Biso   1.000  N
  O9       1.0000 0.03202  0.28420  0.17099  Biso   1.000  O
  O10      1.0000 0.53202  0.78420  0.17099  Biso   1.000  O
  O11      1.0000 0.96798  0.28420  0.32901  Biso   1.000  O
  O12      1.0000 0.46798  0.78420  0.32901  Biso   1.000  O
  O13      1.0000 0.96798  0.71580  0.82901  Biso   1.000  O
  O14      1.0000 0.46798  0.21580  0.82901  Biso   1.000  O
  O15      1.0000 0.03202  0.71580  0.67099  Biso   1.000  O
  O16      1.0000 0.53202  0.21580  0.67099  Biso   1.000  O
  C9       1.0000 0.94468  0.18710  0.81530  Biso   1.000  C
  C10      1.0000 0.44468  0.68710  0.81530  Biso   1.000  C
  C11      1.0000 0.05532  0.18710  0.68470  Biso   1.000  C
  C12      1.0000 0.55532  0.68710  0.68470  Biso   1.000  C
  C13      1.0000 0.05532  0.81290  0.18470  Biso   1.000  C
  C14      1.0000 0.55532  0.31290  0.18470  Biso   1.000  C
  C15      1.0000 0.94468  0.81290  0.31530  Biso   1.000  C
  C16      1.0000 0.44468  0.31290  0.31530  Biso   1.000  C
  H9       1.0000 0.92180  0.16180  0.74690  Biso   1.000  H
  H10      1.0000 0.42180  0.66180  0.74690  Biso   1.000  H
  H11      1.0000 0.07820  0.16180  0.75310  Biso   1.000  H
  H12      1.0000 0.57820  0.66180  0.75310  Biso   1.000  H
  H13      1.0000 0.07820  0.83820  0.25310  Biso   1.000  H
  H14      1.0000 0.57820  0.33820  0.25310  Biso   1.000  H
  H15      1.0000 0.92180  0.83820  0.24690  Biso   1.000  H
  H16      1.0000 0.42180  0.33820  0.24690  Biso   1.000  H
  O17      1.0000 0.23773  0.53970  0.22185  Biso   1.000  O
  O18      1.0000 0.73773  0.03970  0.22185  Biso   1.000  O
  O19      1.0000 0.76227  0.53970  0.27815  Biso   1.000  O
  O20      1.0000 0.26227  0.03970  0.27815  Biso   1.000  O
  O21      1.0000 0.76227  0.46030  0.77815  Biso   1.000  O
  O22      1.0000 0.26227  0.96030  0.77815  Biso   1.000  O
  O23      1.0000 0.23773  0.46030  0.72185  Biso   1.000  O
  O24      1.0000 0.73773  0.96030  0.72185  Biso   1.000  O
  C17      1.0000 0.90819  0.15520  0.84960  Biso   1.000  C
  C18      1.0000 0.40819  0.65520  0.84960  Biso   1.000  C
  C19      1.0000 0.09181  0.15520  0.65040  Biso   1.000  C
  C20      1.0000 0.59181  0.65520  0.65040  Biso   1.000  C
  C21      1.0000 0.09181  0.84480  0.15040  Biso   1.000  C
  C22      1.0000 0.59181  0.34480  0.15040  Biso   1.000  C
  C23      1.0000 0.90819  0.84480  0.34960  Biso   1.000  C
  C24      1.0000 0.40819  0.34480  0.34960  Biso   1.000  C
  H17      1.0000 0.86010  0.10770  0.80460  Biso   1.000  H
  H18      1.0000 0.36010  0.60770  0.80460  Biso   1.000  H
  H19      1.0000 0.13990  0.10770  0.69540  Biso   1.000  H
  H20      1.0000 0.63990  0.60770  0.69540  Biso   1.000  H
  H21      1.0000 0.13990  0.89230  0.19540  Biso   1.000  H
  H22      1.0000 0.63990  0.39230  0.19540  Biso   1.000  H
  H23      1.0000 0.86010  0.89230  0.30460  Biso   1.000  H
  H24      1.0000 0.36010  0.39230  0.30460  Biso   1.000  H
  C25      1.0000 0.94338  0.19410  0.95210  Biso   1.000  C
  C26      1.0000 0.44338  0.69410  0.95210  Biso   1.000  C
  C27      1.0000 0.05662  0.19410  0.54790  Biso   1.000  C
  C28      1.0000 0.55662  0.69410  0.54790  Biso   1.000  C
  C29      1.0000 0.05662  0.80590  0.04790  Biso   1.000  C
  C30      1.0000 0.55662  0.30590  0.04790  Biso   1.000  C
  C31      1.0000 0.94338  0.80590  0.45210  Biso   1.000  C
  C32      1.0000 0.44338  0.30590  0.45210  Biso   1.000  C
  H25      1.0000 0.91920  0.17470  0.97640  Biso   1.000  H
  H26      1.0000 0.41920  0.67470  0.97640  Biso   1.000  H
  H27      1.0000 0.08080  0.17470  0.52360  Biso   1.000  H
  H28      1.0000 0.58080  0.67470  0.52360  Biso   1.000  H
  H29      1.0000 0.08080  0.82530  0.02360  Biso   1.000  H
  H30      1.0000 0.58080  0.32530  0.02360  Biso   1.000  H
  H31      1.0000 0.91920  0.82530  0.47640  Biso   1.000  H
  H32      1.0000 0.41920  0.32530  0.47640  Biso   1.000  H
  O25      1.0000 0.28414  0.62610  0.37901  Biso   1.000  O
  O26      1.0000 0.78414  0.12610  0.37901  Biso   1.000  O
  O27      1.0000 0.71586  0.62610  0.12099  Biso   1.000  O
  O28      1.0000 0.21586  0.12610  0.12099  Biso   1.000  O
  O29      1.0000 0.71586  0.37390  0.62099  Biso   1.000  O
  O30      1.0000 0.21586  0.87390  0.62099  Biso   1.000  O
  O31      1.0000 0.28414  0.37390  0.87901  Biso   1.000  O
  O32      1.0000 0.78414  0.87390  0.87901  Biso   1.000  O
  C33      1.0000 0.01538  0.26250  0.01730  Biso   1.000  C
  C34      1.0000 0.51538  0.76250  0.01730  Biso   1.000  C
  C35      1.0000 0.98462  0.26250  0.48270  Biso   1.000  C
  C36      1.0000 0.48462  0.76250  0.48270  Biso   1.000  C
  C37      1.0000 0.98462  0.73750  0.98270  Biso   1.000  C
  C38      1.0000 0.48462  0.23750  0.98270  Biso   1.000  C
  C39      1.0000 0.01538  0.73750  0.51730  Biso   1.000  C
  C40      1.0000 0.51538  0.23750  0.51730  Biso   1.000  C
  O33      1.0000 0.30521  0.44870  0.05720  Biso   1.000  O
  O34      1.0000 0.80521  0.94870  0.05720  Biso   1.000  O
  O35      1.0000 0.69479  0.44870  0.44280  Biso   1.000  O
  O36      1.0000 0.19479  0.94870  0.44280  Biso   1.000  O
  O37      1.0000 0.69479  0.55130  0.94280  Biso   1.000  O
  O38      1.0000 0.19479  0.05130  0.94280  Biso   1.000  O
  O39      1.0000 0.30521  0.55130  0.55720  Biso   1.000  O
  O40      1.0000 0.80521  0.05130  0.55720  Biso   1.000  O
  C41      1.0000 0.06047  0.30290  0.13090  Biso   1.000  C
  C42      1.0000 0.56047  0.80290  0.13090  Biso   1.000  C
  C43      1.0000 0.93953  0.30290  0.36910  Biso   1.000  C
  C44      1.0000 0.43953  0.80290  0.36910  Biso   1.000  C
  C45      1.0000 0.93953  0.69710  0.86910  Biso   1.000  C
  C46      1.0000 0.43953  0.19710  0.86910  Biso   1.000  C
  C47      1.0000 0.06047  0.69710  0.63090  Biso   1.000  C
  C48      1.0000 0.56047  0.19710  0.63090  Biso   1.000  C
  O41      1.0000 0.09653  0.25210  0.37150  Biso   1.000  O
  O42      1.0000 0.59653  0.75210  0.37150  Biso   1.000  O
  O43      1.0000 0.90347  0.25210  0.12850  Biso   1.000  O
  O44      1.0000 0.40347  0.75210  0.12850  Biso   1.000  O
  O45      1.0000 0.90347  0.74790  0.62850  Biso   1.000  O
  O46      1.0000 0.40347  0.24790  0.62850  Biso   1.000  O
  O47      1.0000 0.09653  0.74790  0.87150  Biso   1.000  O
  O48      1.0000 0.59653  0.24790  0.87150  Biso   1.000  O
  C49      1.0000 0.18182  0.41590  0.28470  Biso   1.000  C
  C50      1.0000 0.68182  0.91590  0.28470  Biso   1.000  C
  C51      1.0000 0.81818  0.41590  0.21530  Biso   1.000  C
  C52      1.0000 0.31818  0.91590  0.21530  Biso   1.000  C
  C53      1.0000 0.81818  0.58410  0.71530  Biso   1.000  C
  C54      1.0000 0.31818  0.08410  0.71530  Biso   1.000  C
  C55      1.0000 0.18182  0.58410  0.78470  Biso   1.000  C
  C56      1.0000 0.68182  0.08410  0.78470  Biso   1.000  C
  H33      1.0000 0.20570  0.30830  0.33020  Biso   1.000  H
  H34      1.0000 0.70570  0.80830  0.33020  Biso   1.000  H
  H35      1.0000 0.79430  0.30830  0.16980  Biso   1.000  H
  H36      1.0000 0.29430  0.80830  0.16980  Biso   1.000  H
  H37      1.0000 0.79430  0.69170  0.66980  Biso   1.000  H
  H38      1.0000 0.29430  0.19170  0.66980  Biso   1.000  H
  H39      1.0000 0.20570  0.69170  0.83020  Biso   1.000  H
  H40      1.0000 0.70570  0.19170  0.83020  Biso   1.000  H
  H41      1.0000 0.15780  0.48730  0.30300  Biso   1.000  H
  H42      1.0000 0.65780  0.98730  0.30300  Biso   1.000  H
  H43      1.0000 0.84220  0.48730  0.19700  Biso   1.000  H
  H44      1.0000 0.34220  0.98730  0.19700  Biso   1.000  H
  H45      1.0000 0.84220  0.51270  0.69700  Biso   1.000  H
  H46      1.0000 0.34220  0.01270  0.69700  Biso   1.000  H
  H47      1.0000 0.15780  0.51270  0.80300  Biso   1.000  H
  H48      1.0000 0.65780  0.01270  0.80300  Biso   1.000  H
  C57      1.0000 0.23899  0.53620  0.29630  Biso   1.000  C
  C58      1.0000 0.73899  0.03620  0.29630  Biso   1.000  C
  C59      1.0000 0.76101  0.53620  0.20370  Biso   1.000  C
  C60      1.0000 0.26101  0.03620  0.20370  Biso   1.000  C
  C61      1.0000 0.76101  0.46380  0.70370  Biso   1.000  C
  C62      1.0000 0.26101  0.96380  0.70370  Biso   1.000  C
  C63      1.0000 0.23899  0.46380  0.79630  Biso   1.000  C
  C64      1.0000 0.73899  0.96380  0.79630  Biso   1.000  C
  H49      1.0000 0.33100  0.55000  0.07600  Biso   1.000  H
  H50      1.0000 0.83100  0.05000  0.07600  Biso   1.000  H
  H51      1.0000 0.66900  0.55000  0.42400  Biso   1.000  H
  H52      1.0000 0.16900  0.05000  0.42400  Biso   1.000  H
  H53      1.0000 0.66900  0.45000  0.92400  Biso   1.000  H
  H54      1.0000 0.16900  0.95000  0.92400  Biso   1.000  H
  H55      1.0000 0.33100  0.45000  0.57600  Biso   1.000  H
  H56      1.0000 0.83100  0.95000  0.57600  Biso   1.000  H
  H57      1.0000 0.07700  0.27000  0.31000  Biso   1.000  H
  H58      1.0000 0.57700  0.77000  0.31000  Biso   1.000  H
  H59      1.0000 0.92300  0.27000  0.19000  Biso   1.000  H
  H60      1.0000 0.42300  0.77000  0.19000  Biso   1.000  H
  H61      1.0000 0.92300  0.73000  0.69000  Biso   1.000  H
  H62      1.0000 0.42300  0.23000  0.69000  Biso   1.000  H
  H63      1.0000 0.07700  0.73000  0.81000  Biso   1.000  H
  H64      1.0000 0.57700  0.23000  0.81000  Biso   1.000  H
  H65      1.0000 0.05200  0.27100  0.36400  Biso   1.000  H
  H66      1.0000 0.55200  0.77100  0.36400  Biso   1.000  H
  H67      1.0000 0.94800  0.27100  0.13600  Biso   1.000  H
  H68      1.0000 0.44800  0.77100  0.13600  Biso   1.000  H
  H69      1.0000 0.94800  0.72900  0.63600  Biso   1.000  H
  H70      1.0000 0.44800  0.22900  0.63600  Biso   1.000  H
  H71      1.0000 0.05200  0.72900  0.86400  Biso   1.000  H
  H72      1.0000 0.55200  0.22900  0.86400  Biso   1.000  H
  H73      1.0000 0.29900  0.41300  0.01900  Biso   1.000  H
  H74      1.0000 0.79900  0.91300  0.01900  Biso   1.000  H
  H75      1.0000 0.70100  0.41300  0.48100  Biso   1.000  H
  H76      1.0000 0.20100  0.91300  0.48100  Biso   1.000  H
  H77      1.0000 0.70100  0.58700  0.98100  Biso   1.000  H
  H78      1.0000 0.20100  0.08700  0.98100  Biso   1.000  H
  H79      1.0000 0.29900  0.58700  0.51900  Biso   1.000  H
  H80      1.0000 0.79900  0.08700  0.51900  Biso   1.000  H
  H81      1.0000 0.15300  0.55700  0.96900  Biso   1.000  H
  H82      1.0000 0.65300  0.05700  0.96900  Biso   1.000  H
  H83      1.0000 0.84700  0.55700  0.53100  Biso   1.000  H
  H84      1.0000 0.34700  0.05700  0.53100  Biso   1.000  H
  H85      1.0000 0.84700  0.44300  0.03100  Biso   1.000  H
  H86      1.0000 0.34700  0.94300  0.03100  Biso   1.000  H
  H87      1.0000 0.15300  0.44300  0.46900  Biso   1.000  H
  H88      1.0000 0.65300  0.94300  0.46900  Biso   1.000  H
  H89      1.0000 0.22100  0.46000  0.03500  Biso   1.000  H
  H90      1.0000 0.72100  0.96000  0.03500  Biso   1.000  H
  H91      1.0000 0.77900  0.46000  0.46500  Biso   1.000  H
  H92      1.0000 0.27900  0.96000  0.46500  Biso   1.000  H
  H93      1.0000 0.77900  0.54000  0.96500  Biso   1.000  H
  H94      1.0000 0.27900  0.04000  0.96500  Biso   1.000  H
  H95      1.0000 0.22100  0.54000  0.53500  Biso   1.000  H
  H96      1.0000 0.72100  0.04000  0.53500  Biso   1.000  H
