data_image0
_cell_length_a       7.181
_cell_length_b       8.869
_cell_length_c       14.105
_cell_angle_alpha    101.315
_cell_angle_beta     100.487
_cell_angle_gamma    97.282

_symmetry_space_group_name_H-M    "P 1"
_symmetry_int_tables_number       1

loop_
  _symmetry_equiv_pos_as_xyz
  'x, y, z'

loop_
  _atom_site_label
  _atom_site_occupancy
  _atom_site_fract_x
  _atom_site_fract_y
  _atom_site_fract_z
  _atom_site_thermal_displace_type
  _atom_site_B_iso_or_equiv
  _atom_site_type_symbol
  Cu1      1.0000 0.15700  0.26680  0.23530  Biso   1.000  Cu
  N1       1.0000 0.15400  0.13210  0.09900  Biso   1.000  N
  N2       1.0000 0.06470  0.06780  0.27120  Biso   1.000  N
  H1       1.0000 0.93350  0.06170  0.26830  Biso   1.000  H
  N3       1.0000 0.24610  0.46870  0.19940  Biso   1.000  N
  N4       1.0000 0.17110  0.35560  0.01730  Biso   1.000  N
  N5       1.0000 0.14010  0.17300  0.44890  Biso   1.000  N
  C1       1.0000 0.22440  0.59390  0.27970  Biso   1.000  C
  C2       1.0000 0.15480  0.04880  0.37090  Biso   1.000  C
  H2       1.0000 0.09230  0.94930  0.38160  Biso   1.000  H
  H3       1.0000 0.29220  0.04270  0.37330  Biso   1.000  H
  C3       1.0000 0.28020  0.55580  0.38060  Biso   1.000  C
  C4       1.0000 0.09120  0.93750  0.19440  Biso   1.000  C
  C5       1.0000 0.24190  0.32910  0.45410  Biso   1.000  C
  C6       1.0000 0.07350  0.20960  0.01550  Biso   1.000  C
  C7       1.0000 0.04410  0.98730  0.09820  Biso   1.000  C
  H4       1.0000 0.06700  0.90620  0.04440  Biso   1.000  H
  H5       1.0000 0.90600  0.99530  0.08350  Biso   1.000  H
  C8       1.0000 0.36050  0.36560  0.98740  Biso   1.000  C
  H6       1.0000 0.42460  0.47570  0.00240  Biso   1.000  H
  H7       1.0000 0.44500  0.30670  0.02410  Biso   1.000  H
  C9       1.0000 0.95840  0.16830  0.47860  Biso   1.000  C
  H8       1.0000 0.89450  0.05810  0.46310  Biso   1.000  H
  H9       1.0000 0.87670  0.22400  0.43790  Biso   1.000  H
  N6       1.0000 0.16150  0.39290  0.37100  Biso   1.000  N
  H10      1.0000 0.03630  0.40550  0.37490  Biso   1.000  H
  C10      1.0000 0.96600  0.23890  0.58830  Biso   1.000  C
  H11      1.0000 0.83640  0.22490  0.60120  Biso   1.000  H
  H12      1.0000 0.01900  0.35050  0.60360  Biso   1.000  H
  H13      1.0000 0.04840  0.18640  0.62990  Biso   1.000  H
  C11      1.0000 0.75080  0.84340  0.58840  Biso   1.000  C
  O1       1.0000 0.76130  0.74290  0.37600  Biso   1.000  O
  N7       1.0000 0.34370  0.65560  0.72220  Biso   1.000  N
  O2       1.0000 0.50840  0.01610  0.05810  Biso   1.000  O
  O3       1.0000 0.81190  0.52120  0.41610  Biso   1.000  O
  C12      1.0000 0.80010  0.66530  0.43530  Biso   1.000  C
  C13      1.0000 0.86190  0.74080  0.54490  Biso   1.000  C
  O4       1.0000 0.55100  0.78860  0.09450  Biso   1.000  O
  C14      1.0000 0.01760  0.71080  0.60310  Biso   1.000  C
  H14      1.0000 0.09110  0.63830  0.57590  Biso   1.000  H
  C15      1.0000 0.50240  0.62580  0.77520  Biso   1.000  C
  C16      1.0000 0.24940  0.75440  0.76520  Biso   1.000  C
  C17      1.0000 0.78080  0.48480  0.77940  Biso   1.000  C
  H15      1.0000 0.85340  0.41990  0.74460  Biso   1.000  H
  C18      1.0000 0.50630  0.87670  0.03350  Biso   1.000  C
  C19      1.0000 0.58040  0.89090  0.54210  Biso   1.000  C
  H16      1.0000 0.53800  0.85460  0.47250  Biso   1.000  H
  N8       1.0000 0.97020  0.88020  0.75100  Biso   1.000  N
  C20      1.0000 0.07260  0.78730  0.70510  Biso   1.000  C
  C21      1.0000 0.80320  0.91060  0.69370  Biso   1.000  C
  C22      1.0000 0.46760  0.79170  0.92450  Biso   1.000  C
  C23      1.0000 0.47750  0.98160  0.58900  Biso   1.000  C
  H17      1.0000 0.36400  0.00700  0.55390  Biso   1.000  H
  C24      1.0000 0.30570  0.82380  0.86730  Biso   1.000  C
  C25      1.0000 0.60650  0.52230  0.72900  Biso   1.000  C
  H18      1.0000 0.55980  0.47430  0.66090  Biso   1.000  H
  C26      1.0000 0.83860  0.54410  0.87730  Biso   1.000  C
  H19      1.0000 0.94980  0.51490  0.91180  Biso   1.000  H
  C27      1.0000 0.74170  0.64710  0.93060  Biso   1.000  C
  H20      1.0000 0.78660  0.68950  0.99950  Biso   1.000  H
  C28      1.0000 0.57280  0.68540  0.87680  Biso   1.000  C
  C29      1.0000 0.69120  0.00580  0.74510  Biso   1.000  C
  H21      1.0000 0.72660  0.04200  0.81500  Biso   1.000  H
  C30      1.0000 0.54120  0.04190  0.69530  Biso   1.000  C
  H22      1.0000 0.47000  0.10970  0.72900  Biso   1.000  H
  Na1      1.0000 0.68250  0.56860  0.19230  Biso   1.000  Na
  C31      1.0000 0.32500  0.29970  0.88220  Biso   1.000  C
  H23      1.0000 0.44770  0.30360  0.86070  Biso   1.000  H
  H24      1.0000 0.24330  0.35980  0.84660  Biso   1.000  H
  H25      1.0000 0.26090  0.19100  0.86810  Biso   1.000  H
  O5       1.0000 0.80700  0.27540  0.17260  Biso   1.000  O
  H26      1.0000 0.71660  0.20520  0.13860  Biso   1.000  H
  H27      1.0000 0.25400  0.93600  0.21000  Biso   1.000  H
  C32      1.0000 0.15160  0.47790  0.09670  Biso   1.000  C
  H28      1.0000 0.01290  0.47760  0.09440  Biso   1.000  H
  H29      1.0000 0.20580  0.57900  0.08470  Biso   1.000  H
  H30      1.0000 0.24700  0.88700  0.89200  Biso   1.000  H
  H31      1.0000 0.02400  0.84700  0.18800  Biso   1.000  H
  H32      1.0000 0.42100  0.54300  0.39500  Biso   1.000  H
  H33      1.0000 0.34000  0.45700  0.20400  Biso   1.000  H
  H34      1.0000 0.38500  0.30400  0.44100  Biso   1.000  H
  H35      1.0000 0.25300  0.63500  0.43500  Biso   1.000  H
  H36      1.0000 0.26800  0.38700  0.50900  Biso   1.000  H
  H37      1.0000 0.10700  0.13200  0.94400  Biso   1.000  H
  H38      1.0000 0.94000  0.20100  0.00900  Biso   1.000  H
  O6       1.0000 0.50800  0.25930  0.29770  Biso   1.000  O
  O7       1.0000 0.63530  0.97320  0.27980  Biso   1.000  O
  H39      1.0000 0.59200  0.89500  0.19500  Biso   1.000  H
  H40      1.0000 0.56200  0.16000  0.29700  Biso   1.000  H
  H41      1.0000 0.67200  0.89300  0.32200  Biso   1.000  H
  H42      1.0000 0.59000  0.30800  0.31300  Biso   1.000  H
  H43      1.0000 0.14200  0.16600  0.12700  Biso   1.000  H
  H44      1.0000 0.12200  0.62200  0.26900  Biso   1.000  H
  H45      1.0000 0.33400  0.70700  0.27800  Biso   1.000  H
