data_image0
_cell_length_a       14.2339
_cell_length_b       7.7622
_cell_length_c       17.801
_cell_angle_alpha    90
_cell_angle_beta     110.94
_cell_angle_gamma    90

_symmetry_space_group_name_H-M    "P 1"
_symmetry_int_tables_number       1

loop_
  _symmetry_equiv_pos_as_xyz
  'x, y, z'

loop_
  _atom_site_label
  _atom_site_occupancy
  _atom_site_fract_x
  _atom_site_fract_y
  _atom_site_fract_z
  _atom_site_thermal_displace_type
  _atom_site_B_iso_or_equiv
  _atom_site_type_symbol
  Cu1      1.0000 0.41473  0.43810  0.67992  Biso   1.000  Cu
  Cu2      1.0000 0.08527  0.93810  0.82008  Biso   1.000  Cu
  Cu3      1.0000 0.58527  0.56190  0.32008  Biso   1.000  Cu
  Cu4      1.0000 0.91473  0.06190  0.17992  Biso   1.000  Cu
  S1       1.0000 0.29903  0.02259  0.64844  Biso   1.000  S
  S2       1.0000 0.20097  0.52259  0.85156  Biso   1.000  S
  S3       1.0000 0.70097  0.97741  0.35156  Biso   1.000  S
  S4       1.0000 0.79903  0.47741  0.14844  Biso   1.000  S
  O1       1.0000 0.34091  0.17230  0.69711  Biso   1.000  O
  O2       1.0000 0.15909  0.67230  0.80289  Biso   1.000  O
  O3       1.0000 0.65909  0.82770  0.30289  Biso   1.000  O
  O4       1.0000 0.84091  0.32770  0.19711  Biso   1.000  O
  H1       1.0000 0.29800  0.65900  0.69900  Biso   1.000  H
  H2       1.0000 0.20200  0.15900  0.80100  Biso   1.000  H
  H3       1.0000 0.70200  0.34100  0.30100  Biso   1.000  H
  H4       1.0000 0.79800  0.84100  0.19900  Biso   1.000  H
  H5       1.0000 0.28300  0.50300  0.73200  Biso   1.000  H
  H6       1.0000 0.21700  0.00300  0.76800  Biso   1.000  H
  H7       1.0000 0.71700  0.49700  0.26800  Biso   1.000  H
  H8       1.0000 0.78300  0.99700  0.23200  Biso   1.000  H
  O5       1.0000 0.26904  0.89400  0.69620  Biso   1.000  O
  O6       1.0000 0.23096  0.39400  0.80380  Biso   1.000  O
  O7       1.0000 0.73096  0.10600  0.30380  Biso   1.000  O
  O8       1.0000 0.76904  0.60600  0.19620  Biso   1.000  O
  H9       1.0000 0.47700  0.79400  0.66900  Biso   1.000  H
  H10      1.0000 0.02300  0.29400  0.83100  Biso   1.000  H
  H11      1.0000 0.52300  0.20600  0.33100  Biso   1.000  H
  H12      1.0000 0.97700  0.70600  0.16900  Biso   1.000  H
  H13      1.0000 0.55200  0.71100  0.73020  Biso   1.000  H
  H14      1.0000 0.94800  0.21100  0.76980  Biso   1.000  H
  H15      1.0000 0.44800  0.28900  0.26980  Biso   1.000  H
  H16      1.0000 0.05200  0.78900  0.23020  Biso   1.000  H
  O9       1.0000 0.36249  0.94910  0.60858  Biso   1.000  O
  O10      1.0000 0.13751  0.44910  0.89142  Biso   1.000  O
  O11      1.0000 0.63751  0.05090  0.39142  Biso   1.000  O
  O12      1.0000 0.86249  0.55090  0.10858  Biso   1.000  O
  O13      1.0000 0.09850  0.89940  0.33827  Biso   1.000  O
  O14      1.0000 0.40150  0.39940  0.16173  Biso   1.000  O
  O15      1.0000 0.90150  0.10060  0.66173  Biso   1.000  O
  O16      1.0000 0.59850  0.60060  0.83827  Biso   1.000  O
  O17      1.0000 0.98314  0.10530  0.29452  Biso   1.000  O
  O18      1.0000 0.51686  0.60530  0.20548  Biso   1.000  O
  O19      1.0000 0.01686  0.89470  0.70548  Biso   1.000  O
  O20      1.0000 0.48314  0.39470  0.79452  Biso   1.000  O
  O21      1.0000 0.93908  0.30030  0.39597  Biso   1.000  O
  O22      1.0000 0.56092  0.80030  0.10403  Biso   1.000  O
  O23      1.0000 0.06092  0.69970  0.60403  Biso   1.000  O
  O24      1.0000 0.43908  0.19970  0.89597  Biso   1.000  O
  H17      1.0000 0.92860  0.25680  0.35170  Biso   1.000  H
  H18      1.0000 0.57140  0.75680  0.14830  Biso   1.000  H
  H19      1.0000 0.07140  0.74320  0.64830  Biso   1.000  H
  H20      1.0000 0.42860  0.24320  0.85170  Biso   1.000  H
  O25      1.0000 0.30480  0.55340  0.70075  Biso   1.000  O
  O26      1.0000 0.19520  0.05340  0.79925  Biso   1.000  O
  O27      1.0000 0.69520  0.44660  0.29925  Biso   1.000  O
  O28      1.0000 0.80480  0.94660  0.20075  Biso   1.000  O
  O29      1.0000 0.51260  0.70340  0.68134  Biso   1.000  O
  O30      1.0000 0.98740  0.20340  0.81866  Biso   1.000  O
  O31      1.0000 0.48740  0.29660  0.31866  Biso   1.000  O
  O32      1.0000 0.01260  0.79660  0.18134  Biso   1.000  O
  N1       1.0000 0.51260  0.31110  0.64346  Biso   1.000  N
  N2       1.0000 0.98740  0.81110  0.85654  Biso   1.000  N
  N3       1.0000 0.48740  0.68890  0.35654  Biso   1.000  N
  N4       1.0000 0.01260  0.18890  0.14346  Biso   1.000  N
  N5       1.0000 0.34180  0.45460  0.56064  Biso   1.000  N
  N6       1.0000 0.15820  0.95460  0.93936  Biso   1.000  N
  N7       1.0000 0.65820  0.54540  0.43936  Biso   1.000  N
  N8       1.0000 0.84180  0.04540  0.06064  Biso   1.000  N
  C1       1.0000 0.59800  0.23960  0.69050  Biso   1.000  C
  C2       1.0000 0.90200  0.73960  0.80950  Biso   1.000  C
  C3       1.0000 0.40200  0.76040  0.30950  Biso   1.000  C
  C4       1.0000 0.09800  0.26040  0.19050  Biso   1.000  C
  H21      1.0000 0.61750  0.25240  0.74590  Biso   1.000  H
  H22      1.0000 0.88250  0.75240  0.75410  Biso   1.000  H
  H23      1.0000 0.38250  0.74760  0.25410  Biso   1.000  H
  H24      1.0000 0.11750  0.24760  0.24590  Biso   1.000  H
  C5       1.0000 0.65910  0.14630  0.65980  Biso   1.000  C
  C6       1.0000 0.84090  0.64630  0.84020  Biso   1.000  C
  C7       1.0000 0.34090  0.85370  0.34020  Biso   1.000  C
  C8       1.0000 0.15910  0.35370  0.15980  Biso   1.000  C
  H25      1.0000 0.71880  0.09750  0.69400  Biso   1.000  H
  H26      1.0000 0.78120  0.59750  0.80600  Biso   1.000  H
  H27      1.0000 0.28120  0.90250  0.30600  Biso   1.000  H
  H28      1.0000 0.21880  0.40250  0.19400  Biso   1.000  H
  C9       1.0000 0.63020  0.12750  0.57840  Biso   1.000  C
  C10      1.0000 0.86980  0.62750  0.92160  Biso   1.000  C
  C11      1.0000 0.36980  0.87250  0.42160  Biso   1.000  C
  C12      1.0000 0.13020  0.37250  0.07840  Biso   1.000  C
  H29      1.0000 0.66960  0.06370  0.55660  Biso   1.000  H
  H30      1.0000 0.83040  0.56370  0.94340  Biso   1.000  H
  H31      1.0000 0.33040  0.93630  0.44340  Biso   1.000  H
  H32      1.0000 0.16960  0.43630  0.05660  Biso   1.000  H
  C13      1.0000 0.54330  0.20240  0.52900  Biso   1.000  C
  C14      1.0000 0.95670  0.70240  0.97100  Biso   1.000  C
  C15      1.0000 0.45670  0.79760  0.47100  Biso   1.000  C
  C16      1.0000 0.04330  0.29760  0.02900  Biso   1.000  C
  H33      1.0000 0.52370  0.19230  0.47350  Biso   1.000  H
  H34      1.0000 0.97630  0.69230  0.02650  Biso   1.000  H
  H35      1.0000 0.47630  0.80770  0.52650  Biso   1.000  H
  H36      1.0000 0.02370  0.30770  0.97350  Biso   1.000  H
  C17      1.0000 0.48470  0.29390  0.56290  Biso   1.000  C
  C18      1.0000 0.01530  0.79390  0.93710  Biso   1.000  C
  C19      1.0000 0.51530  0.70610  0.43710  Biso   1.000  C
  C20      1.0000 0.98470  0.20610  0.06290  Biso   1.000  C
  C21      1.0000 0.38820  0.37680  0.51590  Biso   1.000  C
  C22      1.0000 0.11180  0.87680  0.98410  Biso   1.000  C
  C23      1.0000 0.61180  0.62320  0.48410  Biso   1.000  C
  C24      1.0000 0.88820  0.12320  0.01590  Biso   1.000  C
  C25      1.0000 0.34730  0.37690  0.43240  Biso   1.000  C
  C26      1.0000 0.15270  0.87690  0.06760  Biso   1.000  C
  C27      1.0000 0.65270  0.62310  0.56760  Biso   1.000  C
  C28      1.0000 0.84730  0.12310  0.93240  Biso   1.000  C
  H37      1.0000 0.37980  0.32210  0.40210  Biso   1.000  H
  H38      1.0000 0.12020  0.82210  0.09790  Biso   1.000  H
  H39      1.0000 0.62020  0.67790  0.59790  Biso   1.000  H
  H40      1.0000 0.87980  0.17790  0.90210  Biso   1.000  H
  C29      1.0000 0.25710  0.46080  0.39590  Biso   1.000  C
  C30      1.0000 0.24290  0.96080  0.10410  Biso   1.000  C
  C31      1.0000 0.74290  0.53920  0.60410  Biso   1.000  C
  C32      1.0000 0.75710  0.03920  0.89590  Biso   1.000  C
  H41      1.0000 0.22860  0.46400  0.34000  Biso   1.000  H
  H42      1.0000 0.27140  0.96400  0.16000  Biso   1.000  H
  H43      1.0000 0.77140  0.53600  0.66000  Biso   1.000  H
  H44      1.0000 0.72860  0.03600  0.84000  Biso   1.000  H
  C33      1.0000 0.20920  0.53910  0.44070  Biso   1.000  C
  C34      1.0000 0.29080  0.03910  0.05930  Biso   1.000  C
  C35      1.0000 0.79080  0.46090  0.55930  Biso   1.000  C
  C36      1.0000 0.70920  0.96090  0.94070  Biso   1.000  C
  H45      1.0000 0.14800  0.59490  0.41610  Biso   1.000  H
  H46      1.0000 0.35200  0.09490  0.08390  Biso   1.000  H
  H47      1.0000 0.85200  0.40510  0.58390  Biso   1.000  H
  H48      1.0000 0.64800  0.90510  0.91610  Biso   1.000  H
  C37      1.0000 0.25380  0.53370  0.52350  Biso   1.000  C
  C38      1.0000 0.24620  0.03370  0.97650  Biso   1.000  C
  C39      1.0000 0.74620  0.46630  0.47650  Biso   1.000  C
  C40      1.0000 0.75380  0.96630  0.02350  Biso   1.000  C
  H49      1.0000 0.22150  0.58670  0.55440  Biso   1.000  H
  H50      1.0000 0.27850  0.08670  0.94560  Biso   1.000  H
  H51      1.0000 0.77850  0.41330  0.44560  Biso   1.000  H
  H52      1.0000 0.72150  0.91330  0.05440  Biso   1.000  H
  C41      1.0000 0.18780  0.09450  0.57212  Biso   1.000  C
  C42      1.0000 0.31220  0.59450  0.92788  Biso   1.000  C
  C43      1.0000 0.81220  0.90550  0.42788  Biso   1.000  C
  C44      1.0000 0.68780  0.40550  0.07212  Biso   1.000  C
  C45      1.0000 0.15980  0.02970  0.49508  Biso   1.000  C
  C46      1.0000 0.34020  0.52970  0.00492  Biso   1.000  C
  C47      1.0000 0.84020  0.97030  0.50492  Biso   1.000  C
  C48      1.0000 0.65980  0.47030  0.99508  Biso   1.000  C
  H53      1.0000 0.19740  0.94150  0.48430  Biso   1.000  H
  H54      1.0000 0.30260  0.44150  0.01570  Biso   1.000  H
  H55      1.0000 0.80260  0.05850  0.51570  Biso   1.000  H
  H56      1.0000 0.69740  0.55850  0.98430  Biso   1.000  H
  C49      1.0000 0.07610  0.09400  0.43300  Biso   1.000  C
  C50      1.0000 0.42390  0.59400  0.06700  Biso   1.000  C
  C51      1.0000 0.92390  0.90600  0.56700  Biso   1.000  C
  C52      1.0000 0.57610  0.40600  0.93300  Biso   1.000  C
  C53      1.0000 0.01930  0.22450  0.45086  Biso   1.000  C
  C54      1.0000 0.48070  0.72450  0.04914  Biso   1.000  C
  C55      1.0000 0.98070  0.77550  0.54914  Biso   1.000  C
  C56      1.0000 0.51930  0.27550  0.95086  Biso   1.000  C
  C57      1.0000 0.04550  0.28280  0.52982  Biso   1.000  C
  C58      1.0000 0.45450  0.78280  0.97018  Biso   1.000  C
  C59      1.0000 0.95450  0.71720  0.47018  Biso   1.000  C
  C60      1.0000 0.54550  0.21720  0.02982  Biso   1.000  C
  H57      1.0000 0.00550  0.36470  0.54210  Biso   1.000  H
  H58      1.0000 0.49450  0.86470  0.95790  Biso   1.000  H
  H59      1.0000 0.99450  0.63530  0.45790  Biso   1.000  H
  H60      1.0000 0.50550  0.13530  0.04210  Biso   1.000  H
  C61      1.0000 0.12980  0.22080  0.58982  Biso   1.000  C
  C62      1.0000 0.37020  0.72080  0.91018  Biso   1.000  C
  C63      1.0000 0.87020  0.77920  0.41018  Biso   1.000  C
  C64      1.0000 0.62980  0.27920  0.08982  Biso   1.000  C
  H61      1.0000 0.14780  0.26330  0.64190  Biso   1.000  H
  H62      1.0000 0.35220  0.76330  0.85810  Biso   1.000  H
  H63      1.0000 0.85220  0.73670  0.35810  Biso   1.000  H
  H64      1.0000 0.64780  0.23670  0.14190  Biso   1.000  H
  C65      1.0000 0.05210  0.02300  0.34987  Biso   1.000  C
  C66      1.0000 0.44790  0.52300  0.15013  Biso   1.000  C
  C67      1.0000 0.94790  0.97700  0.65013  Biso   1.000  C
  C68      1.0000 0.55210  0.47700  0.84987  Biso   1.000  C
