data_image0
_cell_length_a       21.027
_cell_length_b       6.3196
_cell_length_c       13.382
_cell_angle_alpha    90
_cell_angle_beta     102.354
_cell_angle_gamma    90

_symmetry_space_group_name_H-M    "P 1"
_symmetry_int_tables_number       1

loop_
  _symmetry_equiv_pos_as_xyz
  'x, y, z'

loop_
  _atom_site_label
  _atom_site_occupancy
  _atom_site_fract_x
  _atom_site_fract_y
  _atom_site_fract_z
  _atom_site_thermal_displace_type
  _atom_site_B_iso_or_equiv
  _atom_site_type_symbol
  Cu1      1.0000 0.36641  0.06802  0.84868  Biso   1.000  Cu
  Cu2      1.0000 0.86641  0.56802  0.84868  Biso   1.000  Cu
  Cu3      1.0000 0.63359  0.06802  0.65132  Biso   1.000  Cu
  Cu4      1.0000 0.13359  0.56802  0.65132  Biso   1.000  Cu
  Cu5      1.0000 0.63359  0.93198  0.15132  Biso   1.000  Cu
  Cu6      1.0000 0.13359  0.43198  0.15132  Biso   1.000  Cu
  Cu7      1.0000 0.36641  0.93198  0.34868  Biso   1.000  Cu
  Cu8      1.0000 0.86641  0.43198  0.34868  Biso   1.000  Cu
  N1       1.0000 0.37253  0.05700  0.99990  Biso   1.000  N
  N2       1.0000 0.87253  0.55700  0.99990  Biso   1.000  N
  N3       1.0000 0.62747  0.05700  0.50010  Biso   1.000  N
  N4       1.0000 0.12747  0.55700  0.50010  Biso   1.000  N
  N5       1.0000 0.62747  0.94300  0.00010  Biso   1.000  N
  N6       1.0000 0.12747  0.44300  0.00010  Biso   1.000  N
  N7       1.0000 0.37253  0.94300  0.49990  Biso   1.000  N
  N8       1.0000 0.87253  0.44300  0.49990  Biso   1.000  N
  N9       1.0000 0.37010  0.98050  0.20150  Biso   1.000  N
  N10      1.0000 0.87010  0.48050  0.20150  Biso   1.000  N
  N11      1.0000 0.62990  0.98050  0.29850  Biso   1.000  N
  N12      1.0000 0.12990  0.48050  0.29850  Biso   1.000  N
  N13      1.0000 0.62990  0.01950  0.79850  Biso   1.000  N
  N14      1.0000 0.12990  0.51950  0.79850  Biso   1.000  N
  N15      1.0000 0.37010  0.01950  0.70150  Biso   1.000  N
  N16      1.0000 0.87010  0.51950  0.70150  Biso   1.000  N
  O1       1.0000 0.32784  0.78670  0.85440  Biso   1.000  O
  O2       1.0000 0.82784  0.28670  0.85440  Biso   1.000  O
  O3       1.0000 0.67216  0.78670  0.64560  Biso   1.000  O
  O4       1.0000 0.17216  0.28670  0.64560  Biso   1.000  O
  O5       1.0000 0.67216  0.21330  0.14560  Biso   1.000  O
  O6       1.0000 0.17216  0.71330  0.14560  Biso   1.000  O
  O7       1.0000 0.32784  0.21330  0.35440  Biso   1.000  O
  O8       1.0000 0.82784  0.71330  0.35440  Biso   1.000  O
  O9       1.0000 0.29681  0.55900  0.96150  Biso   1.000  O
  O10      1.0000 0.79681  0.05900  0.96150  Biso   1.000  O
  O11      1.0000 0.70319  0.55900  0.53850  Biso   1.000  O
  O12      1.0000 0.20319  0.05900  0.53850  Biso   1.000  O
  O13      1.0000 0.70319  0.44100  0.03850  Biso   1.000  O
  O14      1.0000 0.20319  0.94100  0.03850  Biso   1.000  O
  O15      1.0000 0.29681  0.44100  0.46150  Biso   1.000  O
  O16      1.0000 0.79681  0.94100  0.46150  Biso   1.000  O
  C1       1.0000 0.32280  0.72270  0.94280  Biso   1.000  C
  C2       1.0000 0.82280  0.22270  0.94280  Biso   1.000  C
  C3       1.0000 0.67720  0.72270  0.55720  Biso   1.000  C
  C4       1.0000 0.17720  0.22270  0.55720  Biso   1.000  C
  C5       1.0000 0.67720  0.27730  0.05720  Biso   1.000  C
  C6       1.0000 0.17720  0.77730  0.05720  Biso   1.000  C
  C7       1.0000 0.32280  0.27730  0.44280  Biso   1.000  C
  C8       1.0000 0.82280  0.77730  0.44280  Biso   1.000  C
  C9       1.0000 0.34960  0.87590  0.02900  Biso   1.000  C
  C10      1.0000 0.84960  0.37590  0.02900  Biso   1.000  C
  C11      1.0000 0.65040  0.87590  0.47100  Biso   1.000  C
  C12      1.0000 0.15040  0.37590  0.47100  Biso   1.000  C
  C13      1.0000 0.65040  0.12410  0.97100  Biso   1.000  C
  C14      1.0000 0.15040  0.62410  0.97100  Biso   1.000  C
  C15      1.0000 0.34960  0.12410  0.52900  Biso   1.000  C
  C16      1.0000 0.84960  0.62410  0.52900  Biso   1.000  C
  C17      1.0000 0.34860  0.83760  0.12980  Biso   1.000  C
  C18      1.0000 0.84860  0.33760  0.12980  Biso   1.000  C
  C19      1.0000 0.65140  0.83760  0.37020  Biso   1.000  C
  C20      1.0000 0.15140  0.33760  0.37020  Biso   1.000  C
  C21      1.0000 0.65140  0.16240  0.87020  Biso   1.000  C
  C22      1.0000 0.15140  0.66240  0.87020  Biso   1.000  C
  C23      1.0000 0.34860  0.16240  0.62980  Biso   1.000  C
  C24      1.0000 0.84860  0.66240  0.62980  Biso   1.000  C
  H1       1.0000 0.33260  0.70930  0.14800  Biso   1.000  H
  H2       1.0000 0.83260  0.20930  0.14800  Biso   1.000  H
  H3       1.0000 0.66740  0.70930  0.35200  Biso   1.000  H
  H4       1.0000 0.16740  0.20930  0.35200  Biso   1.000  H
  H5       1.0000 0.66740  0.29070  0.85200  Biso   1.000  H
  H6       1.0000 0.16740  0.79070  0.85200  Biso   1.000  H
  H7       1.0000 0.33260  0.29070  0.64800  Biso   1.000  H
  H8       1.0000 0.83260  0.79070  0.64800  Biso   1.000  H
  C25      1.0000 0.39320  0.16000  0.17200  Biso   1.000  C
  C26      1.0000 0.89320  0.66000  0.17200  Biso   1.000  C
  C27      1.0000 0.60680  0.16000  0.32800  Biso   1.000  C
  C28      1.0000 0.10680  0.66000  0.32800  Biso   1.000  C
  C29      1.0000 0.60680  0.84000  0.82800  Biso   1.000  C
  C30      1.0000 0.10680  0.34000  0.82800  Biso   1.000  C
  C31      1.0000 0.39320  0.84000  0.67200  Biso   1.000  C
  C32      1.0000 0.89320  0.34000  0.67200  Biso   1.000  C
  H9       1.0000 0.40860  0.26270  0.22100  Biso   1.000  H
  H10      1.0000 0.90860  0.76270  0.22100  Biso   1.000  H
  H11      1.0000 0.59140  0.26270  0.27900  Biso   1.000  H
  H12      1.0000 0.09140  0.76270  0.27900  Biso   1.000  H
  H13      1.0000 0.59140  0.73730  0.77900  Biso   1.000  H
  H14      1.0000 0.09140  0.23730  0.77900  Biso   1.000  H
  H15      1.0000 0.40860  0.73730  0.72100  Biso   1.000  H
  H16      1.0000 0.90860  0.23730  0.72100  Biso   1.000  H
  C33      1.0000 0.39520  0.20030  0.07050  Biso   1.000  C
  C34      1.0000 0.89520  0.70030  0.07050  Biso   1.000  C
  C35      1.0000 0.60480  0.20030  0.42950  Biso   1.000  C
  C36      1.0000 0.10480  0.70030  0.42950  Biso   1.000  C
  C37      1.0000 0.60480  0.79970  0.92950  Biso   1.000  C
  C38      1.0000 0.10480  0.29970  0.92950  Biso   1.000  C
  C39      1.0000 0.39520  0.79970  0.57050  Biso   1.000  C
  C40      1.0000 0.89520  0.29970  0.57050  Biso   1.000  C
  H17      1.0000 0.41230  0.32690  0.05250  Biso   1.000  H
  H18      1.0000 0.91230  0.82690  0.05250  Biso   1.000  H
  H19      1.0000 0.58770  0.32690  0.44750  Biso   1.000  H
  H20      1.0000 0.08770  0.82690  0.44750  Biso   1.000  H
  H21      1.0000 0.58770  0.67310  0.94750  Biso   1.000  H
  H22      1.0000 0.08770  0.17310  0.94750  Biso   1.000  H
  H23      1.0000 0.41230  0.67310  0.55250  Biso   1.000  H
  H24      1.0000 0.91230  0.17310  0.55250  Biso   1.000  H
  N17      1.0000 0.47470  0.29540  0.86630  Biso   1.000  N
  N18      1.0000 0.97470  0.79540  0.86630  Biso   1.000  N
  N19      1.0000 0.52530  0.29540  0.63370  Biso   1.000  N
  N20      1.0000 0.02530  0.79540  0.63370  Biso   1.000  N
  N21      1.0000 0.52530  0.70460  0.13370  Biso   1.000  N
  N22      1.0000 0.02530  0.20460  0.13370  Biso   1.000  N
  N23      1.0000 0.47470  0.70460  0.36630  Biso   1.000  N
  N24      1.0000 0.97470  0.20460  0.36630  Biso   1.000  N
  O17      1.0000 0.41300  0.33860  0.85130  Biso   1.000  O
  O18      1.0000 0.91300  0.83860  0.85130  Biso   1.000  O
  O19      1.0000 0.58700  0.33860  0.64870  Biso   1.000  O
  O20      1.0000 0.08700  0.83860  0.64870  Biso   1.000  O
  O21      1.0000 0.58700  0.66140  0.14870  Biso   1.000  O
  O22      1.0000 0.08700  0.16140  0.14870  Biso   1.000  O
  O23      1.0000 0.41300  0.66140  0.35130  Biso   1.000  O
  O24      1.0000 0.91300  0.16140  0.35130  Biso   1.000  O
  O25      1.0000 0.51230  0.44290  0.86790  Biso   1.000  O
  O26      1.0000 0.01230  0.94290  0.86790  Biso   1.000  O
  O27      1.0000 0.48770  0.44290  0.63210  Biso   1.000  O
  O28      1.0000 0.98770  0.94290  0.63210  Biso   1.000  O
  O29      1.0000 0.48770  0.55710  0.13210  Biso   1.000  O
  O30      1.0000 0.98770  0.05710  0.13210  Biso   1.000  O
  O31      1.0000 0.51230  0.55710  0.36790  Biso   1.000  O
  O32      1.0000 0.01230  0.05710  0.36790  Biso   1.000  O
  O33      1.0000 0.49150  0.10840  0.87700  Biso   1.000  O
  O34      1.0000 0.99150  0.60840  0.87700  Biso   1.000  O
  O35      1.0000 0.50850  0.10840  0.62300  Biso   1.000  O
  O36      1.0000 0.00850  0.60840  0.62300  Biso   1.000  O
  O37      1.0000 0.50850  0.89160  0.12300  Biso   1.000  O
  O38      1.0000 0.00850  0.39160  0.12300  Biso   1.000  O
  O39      1.0000 0.49150  0.89160  0.37700  Biso   1.000  O
  O40      1.0000 0.99150  0.39160  0.37700  Biso   1.000  O
  O41      1.0000 0.27290  0.23650  0.82040  Biso   1.000  O
  O42      1.0000 0.77290  0.73650  0.82040  Biso   1.000  O
  O43      1.0000 0.72710  0.23650  0.67960  Biso   1.000  O
  O44      1.0000 0.22710  0.73650  0.67960  Biso   1.000  O
  O45      1.0000 0.72710  0.76350  0.17960  Biso   1.000  O
  O46      1.0000 0.22710  0.26350  0.17960  Biso   1.000  O
  O47      1.0000 0.27290  0.76350  0.32040  Biso   1.000  O
  O48      1.0000 0.77290  0.26350  0.32040  Biso   1.000  O
  H25      1.0000 0.23610  0.25600  0.78100  Biso   1.000  H
  H26      1.0000 0.73610  0.75600  0.78100  Biso   1.000  H
  H27      1.0000 0.76390  0.25600  0.71900  Biso   1.000  H
  H28      1.0000 0.26390  0.75600  0.71900  Biso   1.000  H
  H29      1.0000 0.76390  0.74400  0.21900  Biso   1.000  H
  H30      1.0000 0.26390  0.24400  0.21900  Biso   1.000  H
  H31      1.0000 0.23610  0.74400  0.28100  Biso   1.000  H
  H32      1.0000 0.73610  0.24400  0.28100  Biso   1.000  H
  H33      1.0000 0.27700  0.34100  0.86600  Biso   1.000  H
  H34      1.0000 0.77700  0.84100  0.86600  Biso   1.000  H
  H35      1.0000 0.72300  0.34100  0.63400  Biso   1.000  H
  H36      1.0000 0.22300  0.84100  0.63400  Biso   1.000  H
  H37      1.0000 0.72300  0.65900  0.13400  Biso   1.000  H
  H38      1.0000 0.22300  0.15900  0.13400  Biso   1.000  H
  H39      1.0000 0.27700  0.65900  0.36600  Biso   1.000  H
  H40      1.0000 0.77700  0.15900  0.36600  Biso   1.000  H
