data_image0
_cell_length_a       18.5256
_cell_length_b       18.5256
_cell_length_c       6.71315
_cell_angle_alpha    90
_cell_angle_beta     90
_cell_angle_gamma    120

_symmetry_space_group_name_H-M    "P 1"
_symmetry_int_tables_number       1

loop_
  _symmetry_equiv_pos_as_xyz
  'x, y, z'

loop_
  _atom_site_label
  _atom_site_occupancy
  _atom_site_fract_x
  _atom_site_fract_y
  _atom_site_fract_z
  _atom_site_thermal_displace_type
  _atom_site_B_iso_or_equiv
  _atom_site_type_symbol
  Cu1      1.0000 0.95242  0.47619  0.15608  Biso   1.000  Cu
  Cu2      1.0000 0.52381  0.47623  0.15608  Biso   1.000  Cu
  Cu3      1.0000 0.52377  0.04758  0.15608  Biso   1.000  Cu
  Cu4      1.0000 0.04758  0.52381  0.84392  Biso   1.000  Cu
  Cu5      1.0000 0.47619  0.52377  0.84392  Biso   1.000  Cu
  Cu6      1.0000 0.47623  0.95242  0.84392  Biso   1.000  Cu
  C1       1.0000 0.64000  0.09120  0.83850  Biso   1.000  C
  C2       1.0000 0.90880  0.54880  0.83850  Biso   1.000  C
  C3       1.0000 0.45120  0.36000  0.83850  Biso   1.000  C
  C4       1.0000 0.36000  0.90880  0.16150  Biso   1.000  C
  C5       1.0000 0.09120  0.45120  0.16150  Biso   1.000  C
  C6       1.0000 0.54880  0.64000  0.16150  Biso   1.000  C
  O1       1.0000 0.62872  0.10862  0.01090  Biso   1.000  O
  O2       1.0000 0.89138  0.52010  0.01090  Biso   1.000  O
  O3       1.0000 0.47990  0.37128  0.01090  Biso   1.000  O
  O4       1.0000 0.37128  0.89138  0.98910  Biso   1.000  O
  O5       1.0000 0.10862  0.47990  0.98910  Biso   1.000  O
  O6       1.0000 0.52010  0.62872  0.98910  Biso   1.000  O
  C7       1.0000 0.85090  0.27900  0.74160  Biso   1.000  C
  C8       1.0000 0.72100  0.57190  0.74160  Biso   1.000  C
  C9       1.0000 0.42810  0.14910  0.74160  Biso   1.000  C
  C10      1.0000 0.14910  0.72100  0.25840  Biso   1.000  C
  C11      1.0000 0.27900  0.42810  0.25840  Biso   1.000  C
  C12      1.0000 0.57190  0.85090  0.25840  Biso   1.000  C
  O7       1.0000 0.89138  0.37110  0.01060  Biso   1.000  O
  O8       1.0000 0.62890  0.52028  0.01060  Biso   1.000  O
  O9       1.0000 0.47972  0.10862  0.01060  Biso   1.000  O
  O10      1.0000 0.10862  0.62890  0.98940  Biso   1.000  O
  O11      1.0000 0.37110  0.47972  0.98940  Biso   1.000  O
  O12      1.0000 0.52028  0.89138  0.98940  Biso   1.000  O
  C13      1.0000 0.90880  0.36010  0.83860  Biso   1.000  C
  C14      1.0000 0.63990  0.54870  0.83860  Biso   1.000  C
  C15      1.0000 0.45130  0.09120  0.83860  Biso   1.000  C
  C16      1.0000 0.09120  0.63990  0.16140  Biso   1.000  C
  C17      1.0000 0.36010  0.45130  0.16140  Biso   1.000  C
  C18      1.0000 0.54870  0.90880  0.16140  Biso   1.000  C
  C19      1.0000 0.81500  0.18480  0.46000  Biso   1.000  C
  C20      1.0000 0.81520  0.63020  0.46000  Biso   1.000  C
  C21      1.0000 0.36980  0.18500  0.46000  Biso   1.000  C
  C22      1.0000 0.18500  0.81520  0.54000  Biso   1.000  C
  C23      1.0000 0.18480  0.36980  0.54000  Biso   1.000  C
  C24      1.0000 0.63020  0.81500  0.54000  Biso   1.000  C
  C25      1.0000 0.72140  0.14930  0.74170  Biso   1.000  C
  C26      1.0000 0.85070  0.57210  0.74170  Biso   1.000  C
  C27      1.0000 0.42790  0.27860  0.74170  Biso   1.000  C
  C28      1.0000 0.27860  0.85070  0.25830  Biso   1.000  C
  C29      1.0000 0.14930  0.42790  0.25830  Biso   1.000  C
  C30      1.0000 0.57210  0.72140  0.25830  Biso   1.000  C
  C31      1.0000 0.87030  0.26040  0.55400  Biso   1.000  C
  C32      1.0000 0.73960  0.60990  0.55400  Biso   1.000  C
  C33      1.0000 0.39010  0.12970  0.55400  Biso   1.000  C
  C34      1.0000 0.12970  0.73960  0.44600  Biso   1.000  C
  C35      1.0000 0.26040  0.39010  0.44600  Biso   1.000  C
  C36      1.0000 0.60990  0.87030  0.44600  Biso   1.000  C
  H1       1.0000 0.91980  0.29810  0.49150  Biso   1.000  H
  H2       1.0000 0.70190  0.62170  0.49150  Biso   1.000  H
  H3       1.0000 0.37830  0.08020  0.49150  Biso   1.000  H
  H4       1.0000 0.08020  0.70190  0.50850  Biso   1.000  H
  H5       1.0000 0.29810  0.37830  0.50850  Biso   1.000  H
  H6       1.0000 0.62170  0.91980  0.50850  Biso   1.000  H
  C37      1.0000 0.77690  0.22340  0.83500  Biso   1.000  C
  C38      1.0000 0.77660  0.55350  0.83500  Biso   1.000  C
  C39      1.0000 0.44650  0.22310  0.83500  Biso   1.000  C
  C40      1.0000 0.22310  0.77660  0.16500  Biso   1.000  C
  C41      1.0000 0.22340  0.44650  0.16500  Biso   1.000  C
  C42      1.0000 0.55350  0.77690  0.16500  Biso   1.000  C
  H7       1.0000 0.76450  0.23580  0.96030  Biso   1.000  H
  H8       1.0000 0.76420  0.52870  0.96030  Biso   1.000  H
  H9       1.0000 0.47130  0.23550  0.96030  Biso   1.000  H
  H10      1.0000 0.23550  0.76420  0.03970  Biso   1.000  H
  H11      1.0000 0.23580  0.47130  0.03970  Biso   1.000  H
  H12      1.0000 0.52870  0.76450  0.03970  Biso   1.000  H
  O13      1.0000 0.83350  0.16680  0.27900  Biso   1.000  O
  O14      1.0000 0.83320  0.66670  0.27900  Biso   1.000  O
  O15      1.0000 0.33330  0.16650  0.27900  Biso   1.000  O
  O16      1.0000 0.16650  0.83320  0.72100  Biso   1.000  O
  O17      1.0000 0.16680  0.33330  0.72100  Biso   1.000  O
  O18      1.0000 0.66670  0.83350  0.72100  Biso   1.000  O
  O19      1.0000 0.87309  0.43696  0.41220  Biso   1.000  O
  O20      1.0000 0.56304  0.43613  0.41220  Biso   1.000  O
  O21      1.0000 0.56387  0.12691  0.41220  Biso   1.000  O
  O22      1.0000 0.12691  0.56304  0.58780  Biso   1.000  O
  O23      1.0000 0.43696  0.56387  0.58780  Biso   1.000  O
  O24      1.0000 0.43613  0.87309  0.58780  Biso   1.000  O
  H13      1.0000 0.83390  0.38570  0.39810  Biso   1.000  H
  H14      1.0000 0.61430  0.44820  0.39810  Biso   1.000  H
  H15      1.0000 0.55180  0.16610  0.39810  Biso   1.000  H
  H16      1.0000 0.16610  0.61430  0.60190  Biso   1.000  H
  H17      1.0000 0.38570  0.55180  0.60190  Biso   1.000  H
  H18      1.0000 0.44820  0.83390  0.60190  Biso   1.000  H
  H19      1.0000 0.90120  0.44060  0.51850  Biso   1.000  H
  H20      1.0000 0.55940  0.46060  0.51850  Biso   1.000  H
  H21      1.0000 0.53940  0.09880  0.51850  Biso   1.000  H
  H22      1.0000 0.09880  0.55940  0.48150  Biso   1.000  H
  H23      1.0000 0.44060  0.53940  0.48150  Biso   1.000  H
  H24      1.0000 0.46060  0.90120  0.48150  Biso   1.000  H
  C43      1.0000 0.73980  0.12960  0.55380  Biso   1.000  C
  C44      1.0000 0.87040  0.61020  0.55380  Biso   1.000  C
  C45      1.0000 0.38980  0.26020  0.55380  Biso   1.000  C
  C46      1.0000 0.26020  0.87040  0.44620  Biso   1.000  C
  C47      1.0000 0.12960  0.38980  0.44620  Biso   1.000  C
  C48      1.0000 0.61020  0.73980  0.44620  Biso   1.000  C
  H25      1.0000 0.70220  0.08000  0.49160  Biso   1.000  H
  H26      1.0000 0.92000  0.62220  0.49160  Biso   1.000  H
  H27      1.0000 0.37780  0.29780  0.49160  Biso   1.000  H
  H28      1.0000 0.29780  0.92000  0.50840  Biso   1.000  H
  H29      1.0000 0.08000  0.37780  0.50840  Biso   1.000  H
  H30      1.0000 0.62220  0.70220  0.50840  Biso   1.000  H
  O25      1.0000 0.97032  0.41174  0.74110  Biso   1.000  O
  O26      1.0000 0.58826  0.55858  0.74110  Biso   1.000  O
  O27      1.0000 0.44142  0.02968  0.74110  Biso   1.000  O
  O28      1.0000 0.02968  0.58826  0.25890  Biso   1.000  O
  O29      1.0000 0.41174  0.44142  0.25890  Biso   1.000  O
  O30      1.0000 0.55858  0.97032  0.25890  Biso   1.000  O
  O31      1.0000 0.58818  0.02958  0.74060  Biso   1.000  O
  O32      1.0000 0.97042  0.55860  0.74060  Biso   1.000  O
  O33      1.0000 0.44140  0.41182  0.74060  Biso   1.000  O
  O34      1.0000 0.41182  0.97042  0.25940  Biso   1.000  O
  O35      1.0000 0.02958  0.44140  0.25940  Biso   1.000  O
  O36      1.0000 0.55860  0.58818  0.25940  Biso   1.000  O
  C49      1.0000 0.90320  0.20380  0.18450  Biso   1.000  C
  C50      1.0000 0.79620  0.69940  0.18450  Biso   1.000  C
  C51      1.0000 0.30060  0.09680  0.18450  Biso   1.000  C
  C52      1.0000 0.09680  0.79620  0.81550  Biso   1.000  C
  C53      1.0000 0.20380  0.30060  0.81550  Biso   1.000  C
  C54      1.0000 0.69940  0.90320  0.81550  Biso   1.000  C
  H31      1.0000 0.91640  0.24750  0.08540  Biso   1.000  H
  H32      1.0000 0.75250  0.66890  0.08540  Biso   1.000  H
  H33      1.0000 0.33110  0.08360  0.08540  Biso   1.000  H
  H34      1.0000 0.08360  0.75250  0.91460  Biso   1.000  H
  H35      1.0000 0.24750  0.33110  0.91460  Biso   1.000  H
  H36      1.0000 0.66890  0.91640  0.91460  Biso   1.000  H
  C55      1.0000 0.96730  0.19270  0.28520  Biso   1.000  C
  C56      1.0000 0.80730  0.77460  0.28520  Biso   1.000  C
  C57      1.0000 0.22540  0.03270  0.28520  Biso   1.000  C
  C58      1.0000 0.03270  0.80730  0.71480  Biso   1.000  C
  C59      1.0000 0.19270  0.22540  0.71480  Biso   1.000  C
  C60      1.0000 0.77460  0.96730  0.71480  Biso   1.000  C
  C61      1.0000 0.02030  0.18510  0.37020  Biso   1.000  C
  C62      1.0000 0.81490  0.83520  0.37020  Biso   1.000  C
  C63      1.0000 0.16480  0.97970  0.37020  Biso   1.000  C
  C64      1.0000 0.97970  0.81490  0.62980  Biso   1.000  C
  C65      1.0000 0.18510  0.16480  0.62980  Biso   1.000  C
  C66      1.0000 0.83520  0.02030  0.62980  Biso   1.000  C
  H37      1.0000 0.06860  0.18860  0.31960  Biso   1.000  H
  H38      1.0000 0.81140  0.88000  0.31960  Biso   1.000  H
  H39      1.0000 0.12000  0.93140  0.31960  Biso   1.000  H
  H40      1.0000 0.93140  0.81140  0.68040  Biso   1.000  H
  H41      1.0000 0.18860  0.12000  0.68040  Biso   1.000  H
  H42      1.0000 0.88000  0.06860  0.68040  Biso   1.000  H
  C67      1.0000 0.79700  0.09660  0.18560  Biso   1.000  C
  C68      1.0000 0.90340  0.70040  0.18560  Biso   1.000  C
  C69      1.0000 0.29960  0.20300  0.18560  Biso   1.000  C
  C70      1.0000 0.20300  0.90340  0.81440  Biso   1.000  C
  C71      1.0000 0.09660  0.29960  0.81440  Biso   1.000  C
  C72      1.0000 0.70040  0.79700  0.81440  Biso   1.000  C
  H43      1.0000 0.75320  0.08370  0.08670  Biso   1.000  H
  H44      1.0000 0.91630  0.66950  0.08670  Biso   1.000  H
  H45      1.0000 0.33050  0.24680  0.08670  Biso   1.000  H
  H46      1.0000 0.24680  0.91630  0.91330  Biso   1.000  H
  H47      1.0000 0.08370  0.33050  0.91330  Biso   1.000  H
  H48      1.0000 0.66950  0.75320  0.91330  Biso   1.000  H
  C73      1.0000 0.80680  0.03170  0.28250  Biso   1.000  C
  C74      1.0000 0.96830  0.77510  0.28250  Biso   1.000  C
  C75      1.0000 0.22490  0.19320  0.28250  Biso   1.000  C
  C76      1.0000 0.19320  0.96830  0.71750  Biso   1.000  C
  C77      1.0000 0.03170  0.22490  0.71750  Biso   1.000  C
  C78      1.0000 0.77510  0.80680  0.71750  Biso   1.000  C
  C79      1.0000 0.81530  0.98000  0.37100  Biso   1.000  C
  C80      1.0000 0.02000  0.83530  0.37100  Biso   1.000  C
  C81      1.0000 0.16470  0.18470  0.37100  Biso   1.000  C
  C82      1.0000 0.18470  0.02000  0.62900  Biso   1.000  C
  C83      1.0000 0.98000  0.16470  0.62900  Biso   1.000  C
  C84      1.0000 0.83530  0.81530  0.62900  Biso   1.000  C
  H49      1.0000 0.81250  0.93170  0.32180  Biso   1.000  H
  H50      1.0000 0.06830  0.88080  0.32180  Biso   1.000  H
  H51      1.0000 0.11920  0.18750  0.32180  Biso   1.000  H
  H52      1.0000 0.18750  0.06830  0.67820  Biso   1.000  H
  H53      1.0000 0.93170  0.11920  0.67820  Biso   1.000  H
  H54      1.0000 0.88080  0.81250  0.67820  Biso   1.000  H
