data_image0
_cell_length_a       10.312
_cell_length_b       10.816
_cell_length_c       14.522
_cell_angle_alpha    90
_cell_angle_beta     99.03
_cell_angle_gamma    90

_symmetry_space_group_name_H-M    "P 1"
_symmetry_int_tables_number       1

loop_
  _symmetry_equiv_pos_as_xyz
  'x, y, z'

loop_
  _atom_site_label
  _atom_site_occupancy
  _atom_site_fract_x
  _atom_site_fract_y
  _atom_site_fract_z
  _atom_site_thermal_displace_type
  _atom_site_B_iso_or_equiv
  _atom_site_type_symbol
  Cu1      1.0000 0.63828  0.32942  0.93953  Biso   1.000  Cu
  Cu2      1.0000 0.86172  0.82942  0.56047  Biso   1.000  Cu
  Cu3      1.0000 0.36172  0.67058  0.06047  Biso   1.000  Cu
  Cu4      1.0000 0.13828  0.17058  0.43953  Biso   1.000  Cu
  O1       1.0000 0.45641  0.35794  0.86945  Biso   1.000  O
  O2       1.0000 0.04359  0.85794  0.63055  Biso   1.000  O
  O3       1.0000 0.54359  0.64206  0.13055  Biso   1.000  O
  O4       1.0000 0.95641  0.14206  0.36945  Biso   1.000  O
  O5       1.0000 0.49063  0.16739  0.82426  Biso   1.000  O
  O6       1.0000 0.00937  0.66739  0.67574  Biso   1.000  O
  O7       1.0000 0.50937  0.83261  0.17574  Biso   1.000  O
  O8       1.0000 0.99063  0.33261  0.32426  Biso   1.000  O
  C1       1.0000 0.41735  0.25891  0.82659  Biso   1.000  C
  C2       1.0000 0.08265  0.75891  0.67341  Biso   1.000  C
  C3       1.0000 0.58265  0.74109  0.17341  Biso   1.000  C
  C4       1.0000 0.91735  0.24109  0.32659  Biso   1.000  C
  C5       1.0000 0.27690  0.25490  0.77534  Biso   1.000  C
  C6       1.0000 0.22310  0.75490  0.72466  Biso   1.000  C
  C7       1.0000 0.72310  0.74510  0.22466  Biso   1.000  C
  C8       1.0000 0.77690  0.24510  0.27534  Biso   1.000  C
  H1       1.0000 0.27800  0.26040  0.70880  Biso   1.000  H
  H2       1.0000 0.22200  0.76040  0.79120  Biso   1.000  H
  H3       1.0000 0.72200  0.73960  0.29120  Biso   1.000  H
  H4       1.0000 0.77800  0.23960  0.20880  Biso   1.000  H
  H5       1.0000 0.22940  0.32600  0.79340  Biso   1.000  H
  H6       1.0000 0.27060  0.82600  0.70660  Biso   1.000  H
  H7       1.0000 0.77060  0.67400  0.20660  Biso   1.000  H
  H8       1.0000 0.72940  0.17400  0.29340  Biso   1.000  H
  C9       1.0000 0.20510  0.13720  0.79582  Biso   1.000  C
  C10      1.0000 0.29490  0.63720  0.70418  Biso   1.000  C
  C11      1.0000 0.79490  0.86280  0.20418  Biso   1.000  C
  C12      1.0000 0.70510  0.36280  0.29582  Biso   1.000  C
  H9       1.0000 0.12240  0.13330  0.75360  Biso   1.000  H
  H10      1.0000 0.37760  0.63330  0.74640  Biso   1.000  H
  H11      1.0000 0.87760  0.86670  0.24640  Biso   1.000  H
  H12      1.0000 0.62240  0.36670  0.25360  Biso   1.000  H
  H13      1.0000 0.25720  0.06650  0.78290  Biso   1.000  H
  H14      1.0000 0.24280  0.56650  0.71710  Biso   1.000  H
  H15      1.0000 0.74280  0.93350  0.21710  Biso   1.000  H
  H16      1.0000 0.75720  0.43350  0.28290  Biso   1.000  H
  C13      1.0000 0.17730  0.12720  0.89490  Biso   1.000  C
  C14      1.0000 0.32270  0.62720  0.60510  Biso   1.000  C
  C15      1.0000 0.82270  0.87280  0.10510  Biso   1.000  C
  C16      1.0000 0.67730  0.37280  0.39490  Biso   1.000  C
  H17      1.0000 0.25780  0.14310  0.93760  Biso   1.000  H
  H18      1.0000 0.24220  0.64310  0.56240  Biso   1.000  H
  H19      1.0000 0.74220  0.85690  0.06240  Biso   1.000  H
  H20      1.0000 0.75780  0.35690  0.43760  Biso   1.000  H
  H21      1.0000 0.14990  0.04330  0.90570  Biso   1.000  H
  H22      1.0000 0.35010  0.54330  0.59430  Biso   1.000  H
  H23      1.0000 0.85010  0.95670  0.09430  Biso   1.000  H
  H24      1.0000 0.64990  0.45670  0.40570  Biso   1.000  H
  C17      1.0000 0.07190  0.21650  0.91636  Biso   1.000  C
  C18      1.0000 0.42810  0.71650  0.58364  Biso   1.000  C
  C19      1.0000 0.92810  0.78350  0.08364  Biso   1.000  C
  C20      1.0000 0.57190  0.28350  0.41636  Biso   1.000  C
  H25      1.0000 0.99470  0.20770  0.86920  Biso   1.000  H
  H26      1.0000 0.50530  0.70770  0.63080  Biso   1.000  H
  H27      1.0000 0.00530  0.79230  0.13080  Biso   1.000  H
  H28      1.0000 0.49470  0.29230  0.36920  Biso   1.000  H
  H29      1.0000 0.10380  0.30050  0.91340  Biso   1.000  H
  H30      1.0000 0.39620  0.80050  0.58660  Biso   1.000  H
  H31      1.0000 0.89620  0.69950  0.08660  Biso   1.000  H
  H32      1.0000 0.60380  0.19950  0.41340  Biso   1.000  H
  C21      1.0000 0.03290  0.19400  0.01346  Biso   1.000  C
  C22      1.0000 0.46710  0.69400  0.48654  Biso   1.000  C
  C23      1.0000 0.96710  0.80600  0.98654  Biso   1.000  C
  C24      1.0000 0.53290  0.30600  0.51346  Biso   1.000  C
  H33      1.0000 0.01640  0.10660  0.02100  Biso   1.000  H
  H34      1.0000 0.48360  0.60660  0.47900  Biso   1.000  H
  H35      1.0000 0.98360  0.89340  0.97900  Biso   1.000  H
  H36      1.0000 0.51640  0.39340  0.52100  Biso   1.000  H
  H37      1.0000 0.10500  0.21800  0.06130  Biso   1.000  H
  H38      1.0000 0.39500  0.71800  0.43870  Biso   1.000  H
  H39      1.0000 0.89500  0.78200  0.93870  Biso   1.000  H
  H40      1.0000 0.60500  0.28200  0.56130  Biso   1.000  H
  C25      1.0000 0.91110  0.26700  0.02606  Biso   1.000  C
  C26      1.0000 0.58890  0.76700  0.47394  Biso   1.000  C
  C27      1.0000 0.08890  0.73300  0.97394  Biso   1.000  C
  C28      1.0000 0.41110  0.23300  0.52606  Biso   1.000  C
  O9       1.0000 0.80796  0.23864  0.97009  Biso   1.000  O
  O10      1.0000 0.69204  0.73864  0.52991  Biso   1.000  O
  O11      1.0000 0.19204  0.76136  0.02991  Biso   1.000  O
  O12      1.0000 0.30796  0.26136  0.47009  Biso   1.000  O
  O13      1.0000 0.91826  0.34950  0.08570  Biso   1.000  O
  O14      1.0000 0.58174  0.84950  0.41430  Biso   1.000  O
  O15      1.0000 0.08174  0.65050  0.91430  Biso   1.000  O
  O16      1.0000 0.41826  0.15050  0.58570  Biso   1.000  O
  O17      1.0000 0.69800  0.48855  0.04329  Biso   1.000  O
  O18      1.0000 0.80200  0.98855  0.45671  Biso   1.000  O
  O19      1.0000 0.30200  0.51145  0.95671  Biso   1.000  O
  O20      1.0000 0.19800  0.01145  0.54329  Biso   1.000  O
  N1       1.0000 0.71060  0.43140  0.84562  Biso   1.000  N
  N2       1.0000 0.78940  0.93140  0.65438  Biso   1.000  N
  N3       1.0000 0.28940  0.56860  0.15438  Biso   1.000  N
  N4       1.0000 0.21060  0.06860  0.34562  Biso   1.000  N
  C29      1.0000 0.65400  0.47000  0.75854  Biso   1.000  C
  C30      1.0000 0.84600  0.97000  0.74146  Biso   1.000  C
  C31      1.0000 0.34600  0.53000  0.24146  Biso   1.000  C
  C32      1.0000 0.15400  0.03000  0.25854  Biso   1.000  C
  H41      1.0000 0.57250  0.44470  0.72750  Biso   1.000  H
  H42      1.0000 0.92750  0.94470  0.77250  Biso   1.000  H
  H43      1.0000 0.42750  0.55530  0.27250  Biso   1.000  H
  H44      1.0000 0.07250  0.05530  0.22750  Biso   1.000  H
  C33      1.0000 0.73540  0.55060  0.72494  Biso   1.000  C
  C34      1.0000 0.76460  0.05060  0.77506  Biso   1.000  C
  C35      1.0000 0.26460  0.44940  0.27506  Biso   1.000  C
  C36      1.0000 0.23540  0.94940  0.22494  Biso   1.000  C
  H45      1.0000 0.72100  0.59030  0.66740  Biso   1.000  H
  H46      1.0000 0.77900  0.09030  0.83260  Biso   1.000  H
  H47      1.0000 0.27900  0.40970  0.33260  Biso   1.000  H
  H48      1.0000 0.22100  0.90970  0.16740  Biso   1.000  H
  N5       1.0000 0.84220  0.56190  0.79211  Biso   1.000  N
  N6       1.0000 0.65780  0.06190  0.70789  Biso   1.000  N
  N7       1.0000 0.15780  0.43810  0.20789  Biso   1.000  N
  N8       1.0000 0.34220  0.93810  0.29211  Biso   1.000  N
  C37      1.0000 0.82470  0.48960  0.86311  Biso   1.000  C
  C38      1.0000 0.67530  0.98960  0.63689  Biso   1.000  C
  C39      1.0000 0.17530  0.51040  0.13689  Biso   1.000  C
  C40      1.0000 0.32470  0.01040  0.36311  Biso   1.000  C
  H49      1.0000 0.88450  0.48100  0.91770  Biso   1.000  H
  H50      1.0000 0.61550  0.98100  0.58230  Biso   1.000  H
  H51      1.0000 0.11550  0.51900  0.08230  Biso   1.000  H
  H52      1.0000 0.38450  0.01900  0.41770  Biso   1.000  H
  N9       1.0000 0.56045  0.23684  0.03545  Biso   1.000  N
  N10      1.0000 0.93955  0.73684  0.46455  Biso   1.000  N
  N11      1.0000 0.43955  0.76316  0.96455  Biso   1.000  N
  N12      1.0000 0.06045  0.26316  0.53545  Biso   1.000  N
  C41      1.0000 0.46130  0.27300  0.08319  Biso   1.000  C
  C42      1.0000 0.03870  0.77300  0.41681  Biso   1.000  C
  C43      1.0000 0.53870  0.72700  0.91681  Biso   1.000  C
  C44      1.0000 0.96130  0.22700  0.58319  Biso   1.000  C
  H53      1.0000 0.42110  0.35020  0.07890  Biso   1.000  H
  H54      1.0000 0.07890  0.85020  0.42110  Biso   1.000  H
  H55      1.0000 0.57890  0.64980  0.92110  Biso   1.000  H
  H56      1.0000 0.92110  0.14980  0.57890  Biso   1.000  H
  C45      1.0000 0.43170  0.17870  0.13706  Biso   1.000  C
  C46      1.0000 0.06830  0.67870  0.36294  Biso   1.000  C
  C47      1.0000 0.56830  0.82130  0.86294  Biso   1.000  C
  C48      1.0000 0.93170  0.32130  0.63706  Biso   1.000  C
  H57      1.0000 0.36880  0.17880  0.17650  Biso   1.000  H
  H58      1.0000 0.13120  0.67880  0.32350  Biso   1.000  H
  H59      1.0000 0.63120  0.82120  0.82350  Biso   1.000  H
  H60      1.0000 0.86880  0.32120  0.67650  Biso   1.000  H
  N13      1.0000 0.51200  0.08370  0.12222  Biso   1.000  N
  N14      1.0000 0.98800  0.58370  0.37778  Biso   1.000  N
  N15      1.0000 0.48800  0.91630  0.87778  Biso   1.000  N
  N16      1.0000 0.01200  0.41630  0.62222  Biso   1.000  N
  C49      1.0000 0.58750  0.12190  0.06120  Biso   1.000  C
  C50      1.0000 0.91250  0.62190  0.43880  Biso   1.000  C
  C51      1.0000 0.41250  0.87810  0.93880  Biso   1.000  C
  C52      1.0000 0.08750  0.37810  0.56120  Biso   1.000  C
  H61      1.0000 0.65110  0.07360  0.03970  Biso   1.000  H
  H62      1.0000 0.84890  0.57360  0.46030  Biso   1.000  H
  H63      1.0000 0.34890  0.92640  0.96030  Biso   1.000  H
  H64      1.0000 0.15110  0.42640  0.53970  Biso   1.000  H
  H65      1.0000 0.75100  0.46400  0.06700  Biso   1.000  H
  H66      1.0000 0.74900  0.96400  0.43300  Biso   1.000  H
  H67      1.0000 0.24900  0.53600  0.93300  Biso   1.000  H
  H68      1.0000 0.25100  0.03600  0.56700  Biso   1.000  H
  H69      1.0000 0.65700  0.52300  0.08400  Biso   1.000  H
  H70      1.0000 0.84300  0.02300  0.41600  Biso   1.000  H
  H71      1.0000 0.34300  0.47700  0.91600  Biso   1.000  H
  H72      1.0000 0.15700  0.97700  0.58400  Biso   1.000  H
  H73      1.0000 0.90900  0.61200  0.79500  Biso   1.000  H
  H74      1.0000 0.59100  0.11200  0.70500  Biso   1.000  H
  H75      1.0000 0.09100  0.38800  0.20500  Biso   1.000  H
  H76      1.0000 0.40900  0.88800  0.29500  Biso   1.000  H
  H77      1.0000 0.51600  0.01800  0.14400  Biso   1.000  H
  H78      1.0000 0.98400  0.51800  0.35600  Biso   1.000  H
  H79      1.0000 0.48400  0.98200  0.85600  Biso   1.000  H
  H80      1.0000 0.01600  0.48200  0.64400  Biso   1.000  H
