data_image0
_cell_length_a       19.091
_cell_length_b       19.091
_cell_length_c       10.384
_cell_angle_alpha    90
_cell_angle_beta     90
_cell_angle_gamma    120

_symmetry_space_group_name_H-M    "P 1"
_symmetry_int_tables_number       1

loop_
  _symmetry_equiv_pos_as_xyz
  'x, y, z'

loop_
  _atom_site_label
  _atom_site_occupancy
  _atom_site_fract_x
  _atom_site_fract_y
  _atom_site_fract_z
  _atom_site_thermal_displace_type
  _atom_site_B_iso_or_equiv
  _atom_site_type_symbol
  C1       1.0000 0.34944  0.14042  0.97210  Biso   1.000  C
  C2       1.0000 0.85958  0.20902  0.97210  Biso   1.000  C
  C3       1.0000 0.79098  0.65056  0.97210  Biso   1.000  C
  C4       1.0000 0.14042  0.34944  0.52790  Biso   1.000  C
  C5       1.0000 0.20902  0.85958  0.52790  Biso   1.000  C
  C6       1.0000 0.65056  0.79098  0.52790  Biso   1.000  C
  C7       1.0000 0.65056  0.85958  0.02790  Biso   1.000  C
  C8       1.0000 0.14042  0.79098  0.02790  Biso   1.000  C
  C9       1.0000 0.20902  0.34944  0.02790  Biso   1.000  C
  C10      1.0000 0.85958  0.65056  0.47210  Biso   1.000  C
  C11      1.0000 0.79098  0.14042  0.47210  Biso   1.000  C
  C12      1.0000 0.34944  0.20902  0.47210  Biso   1.000  C
  C13      1.0000 0.38276  0.09917  0.02659  Biso   1.000  C
  C14      1.0000 0.90083  0.28359  0.02659  Biso   1.000  C
  C15      1.0000 0.71641  0.61724  0.02659  Biso   1.000  C
  C16      1.0000 0.09917  0.38276  0.47341  Biso   1.000  C
  C17      1.0000 0.28359  0.90083  0.47341  Biso   1.000  C
  C18      1.0000 0.61724  0.71641  0.47341  Biso   1.000  C
  C19      1.0000 0.61724  0.90083  0.97341  Biso   1.000  C
  C20      1.0000 0.09917  0.71641  0.97341  Biso   1.000  C
  C21      1.0000 0.28359  0.38276  0.97341  Biso   1.000  C
  C22      1.0000 0.90083  0.61724  0.52659  Biso   1.000  C
  C23      1.0000 0.71641  0.09917  0.52659  Biso   1.000  C
  C24      1.0000 0.38276  0.28359  0.52659  Biso   1.000  C
  C25      1.0000 0.44017  0.13694  0.11861  Biso   1.000  C
  C26      1.0000 0.86306  0.30323  0.11861  Biso   1.000  C
  C27      1.0000 0.69677  0.55983  0.11861  Biso   1.000  C
  C28      1.0000 0.13694  0.44017  0.38139  Biso   1.000  C
  C29      1.0000 0.30323  0.86306  0.38139  Biso   1.000  C
  C30      1.0000 0.55983  0.69677  0.38139  Biso   1.000  C
  C31      1.0000 0.55983  0.86306  0.88139  Biso   1.000  C
  C32      1.0000 0.13694  0.69677  0.88139  Biso   1.000  C
  C33      1.0000 0.30323  0.44017  0.88139  Biso   1.000  C
  C34      1.0000 0.86306  0.55983  0.61861  Biso   1.000  C
  C35      1.0000 0.69677  0.13694  0.61861  Biso   1.000  C
  C36      1.0000 0.44017  0.30323  0.61861  Biso   1.000  C
  C37      1.0000 0.46719  0.21780  0.15983  Biso   1.000  C
  C38      1.0000 0.78220  0.24939  0.15983  Biso   1.000  C
  C39      1.0000 0.75061  0.53281  0.15983  Biso   1.000  C
  C40      1.0000 0.21780  0.46719  0.34017  Biso   1.000  C
  C41      1.0000 0.24939  0.78220  0.34017  Biso   1.000  C
  C42      1.0000 0.53281  0.75061  0.34017  Biso   1.000  C
  C43      1.0000 0.53281  0.78220  0.84017  Biso   1.000  C
  C44      1.0000 0.21780  0.75061  0.84017  Biso   1.000  C
  C45      1.0000 0.24939  0.46719  0.84017  Biso   1.000  C
  C46      1.0000 0.78220  0.53281  0.65983  Biso   1.000  C
  C47      1.0000 0.75061  0.21780  0.65983  Biso   1.000  C
  C48      1.0000 0.46719  0.24939  0.65983  Biso   1.000  C
  C49      1.0000 0.43226  0.26136  0.10526  Biso   1.000  C
  C50      1.0000 0.73864  0.17090  0.10526  Biso   1.000  C
  C51      1.0000 0.82910  0.56774  0.10526  Biso   1.000  C
  C52      1.0000 0.26136  0.43226  0.39474  Biso   1.000  C
  C53      1.0000 0.17090  0.73864  0.39474  Biso   1.000  C
  C54      1.0000 0.56774  0.82910  0.39474  Biso   1.000  C
  C55      1.0000 0.56774  0.73864  0.89474  Biso   1.000  C
  C56      1.0000 0.26136  0.82910  0.89474  Biso   1.000  C
  C57      1.0000 0.17090  0.43226  0.89474  Biso   1.000  C
  C58      1.0000 0.73864  0.56774  0.60526  Biso   1.000  C
  C59      1.0000 0.82910  0.26136  0.60526  Biso   1.000  C
  C60      1.0000 0.43226  0.17090  0.60526  Biso   1.000  C
  C61      1.0000 0.37183  0.22106  0.00978  Biso   1.000  C
  C62      1.0000 0.77894  0.15077  0.00978  Biso   1.000  C
  C63      1.0000 0.84923  0.62817  0.00978  Biso   1.000  C
  C64      1.0000 0.22106  0.37183  0.49022  Biso   1.000  C
  C65      1.0000 0.15077  0.77894  0.49022  Biso   1.000  C
  C66      1.0000 0.62817  0.84923  0.49022  Biso   1.000  C
  C67      1.0000 0.62817  0.77894  0.99022  Biso   1.000  C
  C68      1.0000 0.22106  0.84923  0.99022  Biso   1.000  C
  C69      1.0000 0.15077  0.37183  0.99022  Biso   1.000  C
  C70      1.0000 0.77894  0.62817  0.50978  Biso   1.000  C
  C71      1.0000 0.84923  0.22106  0.50978  Biso   1.000  C
  C72      1.0000 0.37183  0.15077  0.50978  Biso   1.000  C
  C73      1.0000 0.47618  0.09167  0.17404  Biso   1.000  C
  C74      1.0000 0.90833  0.38451  0.17404  Biso   1.000  C
  C75      1.0000 0.61549  0.52382  0.17404  Biso   1.000  C
  C76      1.0000 0.09167  0.47618  0.32596  Biso   1.000  C
  C77      1.0000 0.38451  0.90833  0.32596  Biso   1.000  C
  C78      1.0000 0.52382  0.61549  0.32596  Biso   1.000  C
  C79      1.0000 0.52382  0.90833  0.82596  Biso   1.000  C
  C80      1.0000 0.09167  0.61549  0.82596  Biso   1.000  C
  C81      1.0000 0.38451  0.47618  0.82596  Biso   1.000  C
  C82      1.0000 0.90833  0.52382  0.67404  Biso   1.000  C
  C83      1.0000 0.61549  0.09167  0.67404  Biso   1.000  C
  C84      1.0000 0.47618  0.38451  0.67404  Biso   1.000  C
  C85      1.0000 0.45750  0.34713  0.14904  Biso   1.000  C
  C86      1.0000 0.65287  0.11037  0.14904  Biso   1.000  C
  C87      1.0000 0.88963  0.54250  0.14904  Biso   1.000  C
  C88      1.0000 0.34713  0.45750  0.35096  Biso   1.000  C
  C89      1.0000 0.11037  0.65287  0.35096  Biso   1.000  C
  C90      1.0000 0.54250  0.88963  0.35096  Biso   1.000  C
  C91      1.0000 0.54250  0.65287  0.85096  Biso   1.000  C
  C92      1.0000 0.34713  0.88963  0.85096  Biso   1.000  C
  C93      1.0000 0.11037  0.45750  0.85096  Biso   1.000  C
  C94      1.0000 0.65287  0.54250  0.64904  Biso   1.000  C
  C95      1.0000 0.88963  0.34713  0.64904  Biso   1.000  C
  C96      1.0000 0.45750  0.11037  0.64904  Biso   1.000  C
  O1       1.0000 0.46948  0.07582  0.28683  Biso   1.000  O
  O2       1.0000 0.92418  0.39366  0.28683  Biso   1.000  O
  O3       1.0000 0.60634  0.53052  0.28683  Biso   1.000  O
  O4       1.0000 0.07582  0.46948  0.21317  Biso   1.000  O
  O5       1.0000 0.39366  0.92418  0.21317  Biso   1.000  O
  O6       1.0000 0.53052  0.60634  0.21317  Biso   1.000  O
  O7       1.0000 0.53052  0.92418  0.71317  Biso   1.000  O
  O8       1.0000 0.07582  0.60634  0.71317  Biso   1.000  O
  O9       1.0000 0.39366  0.46948  0.71317  Biso   1.000  O
  O10      1.0000 0.92418  0.53052  0.78683  Biso   1.000  O
  O11      1.0000 0.60634  0.07582  0.78683  Biso   1.000  O
  O12      1.0000 0.46948  0.39366  0.78683  Biso   1.000  O
  O13      1.0000 0.50546  0.06505  0.10018  Biso   1.000  O
  O14      1.0000 0.93495  0.44041  0.10018  Biso   1.000  O
  O15      1.0000 0.55959  0.49454  0.10018  Biso   1.000  O
  O16      1.0000 0.06505  0.50546  0.39982  Biso   1.000  O
  O17      1.0000 0.44041  0.93495  0.39982  Biso   1.000  O
  O18      1.0000 0.49454  0.55959  0.39982  Biso   1.000  O
  O19      1.0000 0.49454  0.93495  0.89982  Biso   1.000  O
  O20      1.0000 0.06505  0.55959  0.89982  Biso   1.000  O
  O21      1.0000 0.44041  0.50546  0.89982  Biso   1.000  O
  O22      1.0000 0.93495  0.49454  0.60018  Biso   1.000  O
  O23      1.0000 0.55959  0.06505  0.60018  Biso   1.000  O
  O24      1.0000 0.50546  0.44041  0.60018  Biso   1.000  O
  O25      1.0000 0.46375  0.36015  0.26772  Biso   1.000  O
  O26      1.0000 0.63985  0.10360  0.26772  Biso   1.000  O
  O27      1.0000 0.89640  0.53625  0.26772  Biso   1.000  O
  O28      1.0000 0.36015  0.46375  0.23228  Biso   1.000  O
  O29      1.0000 0.10360  0.63985  0.23228  Biso   1.000  O
  O30      1.0000 0.53625  0.89640  0.23228  Biso   1.000  O
  O31      1.0000 0.53625  0.63985  0.73228  Biso   1.000  O
  O32      1.0000 0.36015  0.89640  0.73228  Biso   1.000  O
  O33      1.0000 0.10360  0.46375  0.73228  Biso   1.000  O
  O34      1.0000 0.63985  0.53625  0.76772  Biso   1.000  O
  O35      1.0000 0.89640  0.36015  0.76772  Biso   1.000  O
  O36      1.0000 0.46375  0.10360  0.76772  Biso   1.000  O
  O37      1.0000 0.45742  0.39679  0.07011  Biso   1.000  O
  O38      1.0000 0.60321  0.06063  0.07011  Biso   1.000  O
  O39      1.0000 0.93937  0.54258  0.07011  Biso   1.000  O
  O40      1.0000 0.39679  0.45742  0.42989  Biso   1.000  O
  O41      1.0000 0.06063  0.60321  0.42989  Biso   1.000  O
  O42      1.0000 0.54258  0.93937  0.42989  Biso   1.000  O
  O43      1.0000 0.54258  0.60321  0.92989  Biso   1.000  O
  O44      1.0000 0.39679  0.93937  0.92989  Biso   1.000  O
  O45      1.0000 0.06063  0.45742  0.92989  Biso   1.000  O
  O46      1.0000 0.60321  0.54258  0.57011  Biso   1.000  O
  O47      1.0000 0.93937  0.39679  0.57011  Biso   1.000  O
  O48      1.0000 0.45742  0.06063  0.57011  Biso   1.000  O
  N1       1.0000 0.28878  0.09923  0.87544  Biso   1.000  N
  N2       1.0000 0.90077  0.18955  0.87544  Biso   1.000  N
  N3       1.0000 0.81045  0.71122  0.87544  Biso   1.000  N
  N4       1.0000 0.09923  0.28878  0.62456  Biso   1.000  N
  N5       1.0000 0.18955  0.90077  0.62456  Biso   1.000  N
  N6       1.0000 0.71122  0.81045  0.62456  Biso   1.000  N
  N7       1.0000 0.71122  0.90077  0.12456  Biso   1.000  N
  N8       1.0000 0.09923  0.81045  0.12456  Biso   1.000  N
  N9       1.0000 0.18955  0.28878  0.12456  Biso   1.000  N
  N10      1.0000 0.90077  0.71122  0.37544  Biso   1.000  N
  N11      1.0000 0.81045  0.09923  0.37544  Biso   1.000  N
  N12      1.0000 0.28878  0.18955  0.37544  Biso   1.000  N
  N13      1.0000 0.26528  0.13434  0.80465  Biso   1.000  N
  N14      1.0000 0.86566  0.13094  0.80465  Biso   1.000  N
  N15      1.0000 0.86906  0.73472  0.80465  Biso   1.000  N
  N16      1.0000 0.13434  0.26528  0.69535  Biso   1.000  N
  N17      1.0000 0.13094  0.86566  0.69535  Biso   1.000  N
  N18      1.0000 0.73472  0.86906  0.69535  Biso   1.000  N
  N19      1.0000 0.73472  0.86566  0.19535  Biso   1.000  N
  N20      1.0000 0.13434  0.86906  0.19535  Biso   1.000  N
  N21      1.0000 0.13094  0.26528  0.19535  Biso   1.000  N
  N22      1.0000 0.86566  0.73472  0.30465  Biso   1.000  N
  N23      1.0000 0.86906  0.13434  0.30465  Biso   1.000  N
  N24      1.0000 0.26528  0.13094  0.30465  Biso   1.000  N
  N25      1.0000 0.24408  0.16934  0.74034  Biso   1.000  N
  N26      1.0000 0.83066  0.07474  0.74034  Biso   1.000  N
  N27      1.0000 0.92526  0.75592  0.74034  Biso   1.000  N
  N28      1.0000 0.16934  0.24408  0.75966  Biso   1.000  N
  N29      1.0000 0.07474  0.83066  0.75966  Biso   1.000  N
  N30      1.0000 0.75592  0.92526  0.75966  Biso   1.000  N
  N31      1.0000 0.75592  0.83066  0.25966  Biso   1.000  N
  N32      1.0000 0.16934  0.92526  0.25966  Biso   1.000  N
  N33      1.0000 0.07474  0.24408  0.25966  Biso   1.000  N
  N34      1.0000 0.83066  0.75592  0.24034  Biso   1.000  N
  N35      1.0000 0.92526  0.16934  0.24034  Biso   1.000  N
  N36      1.0000 0.24408  0.07474  0.24034  Biso   1.000  N
  Cu1      1.0000 0.53584  0.03745  0.36531  Biso   1.000  Cu
  Cu2      1.0000 0.96255  0.49839  0.36531  Biso   1.000  Cu
  Cu3      1.0000 0.50161  0.46416  0.36531  Biso   1.000  Cu
  Cu4      1.0000 0.03745  0.53584  0.13469  Biso   1.000  Cu
  Cu5      1.0000 0.49839  0.96255  0.13469  Biso   1.000  Cu
  Cu6      1.0000 0.46416  0.50161  0.13469  Biso   1.000  Cu
  Cu7      1.0000 0.46416  0.96255  0.63469  Biso   1.000  Cu
  Cu8      1.0000 0.03745  0.50161  0.63469  Biso   1.000  Cu
  Cu9      1.0000 0.49839  0.53584  0.63469  Biso   1.000  Cu
  Cu10     1.0000 0.96255  0.46416  0.86531  Biso   1.000  Cu
  Cu11     1.0000 0.50161  0.03745  0.86531  Biso   1.000  Cu
  Cu12     1.0000 0.53584  0.49839  0.86531  Biso   1.000  Cu
  H1       1.0000 0.50747  0.24427  0.22403  Biso   1.000  H
  H2       1.0000 0.75573  0.26320  0.22403  Biso   1.000  H
  H3       1.0000 0.73680  0.49253  0.22403  Biso   1.000  H
  H4       1.0000 0.24427  0.50747  0.27597  Biso   1.000  H
  H5       1.0000 0.26320  0.75573  0.27597  Biso   1.000  H
  H6       1.0000 0.49253  0.73680  0.27597  Biso   1.000  H
  H7       1.0000 0.49253  0.75573  0.77597  Biso   1.000  H
  H8       1.0000 0.24427  0.73680  0.77597  Biso   1.000  H
  H9       1.0000 0.26320  0.50747  0.77597  Biso   1.000  H
  H10      1.0000 0.75573  0.49253  0.72403  Biso   1.000  H
  H11      1.0000 0.73680  0.24427  0.72403  Biso   1.000  H
  H12      1.0000 0.50747  0.26320  0.72403  Biso   1.000  H
  H13      1.0000 0.36637  0.04543  0.00053  Biso   1.000  H
  H14      1.0000 0.95457  0.32094  0.00053  Biso   1.000  H
  H15      1.0000 0.67906  0.63363  0.00053  Biso   1.000  H
  H16      1.0000 0.04543  0.36637  0.49947  Biso   1.000  H
  H17      1.0000 0.32094  0.95457  0.49947  Biso   1.000  H
  H18      1.0000 0.63363  0.67906  0.49947  Biso   1.000  H
  H19      1.0000 0.63363  0.95457  0.99947  Biso   1.000  H
  H20      1.0000 0.04543  0.67906  0.99947  Biso   1.000  H
  H21      1.0000 0.32094  0.36637  0.99947  Biso   1.000  H
  H22      1.0000 0.95457  0.63363  0.50053  Biso   1.000  H
  H23      1.0000 0.67906  0.04543  0.50053  Biso   1.000  H
  H24      1.0000 0.36637  0.32094  0.50053  Biso   1.000  H
  H25      1.0000 0.34835  0.24994  0.97240  Biso   1.000  H
  H26      1.0000 0.75006  0.09841  0.97240  Biso   1.000  H
  H27      1.0000 0.90159  0.65165  0.97240  Biso   1.000  H
  H28      1.0000 0.24994  0.34835  0.52760  Biso   1.000  H
  H29      1.0000 0.09841  0.75006  0.52760  Biso   1.000  H
  H30      1.0000 0.65165  0.90159  0.52760  Biso   1.000  H
  H31      1.0000 0.65165  0.75006  0.02760  Biso   1.000  H
  H32      1.0000 0.24994  0.90159  0.02760  Biso   1.000  H
  H33      1.0000 0.09841  0.34835  0.02760  Biso   1.000  H
  H34      1.0000 0.75006  0.65165  0.47240  Biso   1.000  H
  H35      1.0000 0.90159  0.24994  0.47240  Biso   1.000  H
  H36      1.0000 0.34835  0.09841  0.47240  Biso   1.000  H
