data_image0
_cell_length_a       18.55
_cell_length_b       18.55
_cell_length_c       6.7262
_cell_angle_alpha    90
_cell_angle_beta     90
_cell_angle_gamma    120

_symmetry_space_group_name_H-M    "P 1"
_symmetry_int_tables_number       1

loop_
  _symmetry_equiv_pos_as_xyz
  'x, y, z'

loop_
  _atom_site_label
  _atom_site_occupancy
  _atom_site_fract_x
  _atom_site_fract_y
  _atom_site_fract_z
  _atom_site_thermal_displace_type
  _atom_site_B_iso_or_equiv
  _atom_site_type_symbol
  Cu1      1.0000 0.52361  0.04723  0.65541  Biso   1.000  Cu
  Cu2      1.0000 0.95277  0.47638  0.65541  Biso   1.000  Cu
  Cu3      1.0000 0.52362  0.47639  0.65541  Biso   1.000  Cu
  Cu4      1.0000 0.47638  0.95277  0.34459  Biso   1.000  Cu
  Cu5      1.0000 0.47639  0.52362  0.34459  Biso   1.000  Cu
  Cu6      1.0000 0.04723  0.52361  0.34459  Biso   1.000  Cu
  O1       1.0000 0.56126  0.12252  0.91620  Biso   1.000  O
  O2       1.0000 0.87748  0.43874  0.91620  Biso   1.000  O
  O3       1.0000 0.56126  0.43874  0.91620  Biso   1.000  O
  O4       1.0000 0.43874  0.87748  0.08380  Biso   1.000  O
  O5       1.0000 0.43874  0.56126  0.08380  Biso   1.000  O
  O6       1.0000 0.12252  0.56126  0.08380  Biso   1.000  O
  O7       1.0000 0.41133  0.96997  0.75400  Biso   1.000  O
  O8       1.0000 0.03003  0.44136  0.75400  Biso   1.000  O
  O9       1.0000 0.55864  0.58867  0.75400  Biso   1.000  O
  O10      1.0000 0.44136  0.03003  0.24600  Biso   1.000  O
  O11      1.0000 0.58867  0.55864  0.24600  Biso   1.000  O
  O12      1.0000 0.96997  0.41133  0.24600  Biso   1.000  O
  O13      1.0000 0.58867  0.03003  0.24600  Biso   1.000  O
  O14      1.0000 0.96997  0.55864  0.24600  Biso   1.000  O
  O15      1.0000 0.44136  0.41133  0.24600  Biso   1.000  O
  O16      1.0000 0.55864  0.96997  0.75400  Biso   1.000  O
  O17      1.0000 0.41133  0.44136  0.75400  Biso   1.000  O
  O18      1.0000 0.03003  0.58867  0.75400  Biso   1.000  O
  O19      1.0000 0.37151  0.89110  0.48780  Biso   1.000  O
  O20      1.0000 0.10890  0.48041  0.48780  Biso   1.000  O
  O21      1.0000 0.51959  0.62849  0.48780  Biso   1.000  O
  O22      1.0000 0.48041  0.10890  0.51220  Biso   1.000  O
  O23      1.0000 0.62849  0.51959  0.51220  Biso   1.000  O
  O24      1.0000 0.89110  0.37151  0.51220  Biso   1.000  O
  O25      1.0000 0.62849  0.10890  0.51220  Biso   1.000  O
  O26      1.0000 0.89110  0.51959  0.51220  Biso   1.000  O
  O27      1.0000 0.48041  0.37151  0.51220  Biso   1.000  O
  O28      1.0000 0.51959  0.89110  0.48780  Biso   1.000  O
  O29      1.0000 0.37151  0.48041  0.48780  Biso   1.000  O
  O30      1.0000 0.10890  0.62849  0.48780  Biso   1.000  O
  N1       1.0000 0.16456  0.83544  0.22350  Biso   1.000  N
  N2       1.0000 0.16456  0.32912  0.22350  Biso   1.000  N
  N3       1.0000 0.67088  0.83544  0.22350  Biso   1.000  N
  N4       1.0000 0.32912  0.16456  0.77650  Biso   1.000  N
  N5       1.0000 0.83544  0.67088  0.77650  Biso   1.000  N
  N6       1.0000 0.83544  0.16456  0.77650  Biso   1.000  N
  N7       1.0000 0.20800  0.90670  0.28640  Biso   1.000  N
  N8       1.0000 0.09330  0.30130  0.28640  Biso   1.000  N
  N9       1.0000 0.69870  0.79200  0.28640  Biso   1.000  N
  N10      1.0000 0.30130  0.09330  0.71360  Biso   1.000  N
  N11      1.0000 0.79200  0.69870  0.71360  Biso   1.000  N
  N12      1.0000 0.90670  0.20800  0.71360  Biso   1.000  N
  N13      1.0000 0.79200  0.09330  0.71360  Biso   1.000  N
  N14      1.0000 0.90670  0.69870  0.71360  Biso   1.000  N
  N15      1.0000 0.30130  0.20800  0.71360  Biso   1.000  N
  N16      1.0000 0.69870  0.90670  0.28640  Biso   1.000  N
  N17      1.0000 0.20800  0.30130  0.28640  Biso   1.000  N
  N18      1.0000 0.09330  0.79200  0.28640  Biso   1.000  N
  N19      1.0000 0.24150  0.96940  0.36480  Biso   1.000  N
  N20      1.0000 0.03060  0.27210  0.36480  Biso   1.000  N
  N21      1.0000 0.72790  0.75850  0.36480  Biso   1.000  N
  N22      1.0000 0.27210  0.03060  0.63520  Biso   1.000  N
  N23      1.0000 0.75850  0.72790  0.63520  Biso   1.000  N
  N24      1.0000 0.96940  0.24150  0.63520  Biso   1.000  N
  N25      1.0000 0.75850  0.03060  0.63520  Biso   1.000  N
  N26      1.0000 0.96940  0.72790  0.63520  Biso   1.000  N
  N27      1.0000 0.27210  0.24150  0.63520  Biso   1.000  N
  N28      1.0000 0.72790  0.96940  0.36480  Biso   1.000  N
  N29      1.0000 0.24150  0.27210  0.36480  Biso   1.000  N
  N30      1.0000 0.03060  0.75850  0.36480  Biso   1.000  N
  C1       1.0000 0.27707  0.85282  0.75300  Biso   1.000  C
  C2       1.0000 0.14718  0.42425  0.75300  Biso   1.000  C
  C3       1.0000 0.57575  0.72293  0.75300  Biso   1.000  C
  C4       1.0000 0.42425  0.14718  0.24700  Biso   1.000  C
  C5       1.0000 0.72293  0.57575  0.24700  Biso   1.000  C
  C6       1.0000 0.85282  0.27707  0.24700  Biso   1.000  C
  C7       1.0000 0.72293  0.14718  0.24700  Biso   1.000  C
  C8       1.0000 0.85282  0.57575  0.24700  Biso   1.000  C
  C9       1.0000 0.42425  0.27707  0.24700  Biso   1.000  C
  C10      1.0000 0.57575  0.85282  0.75300  Biso   1.000  C
  C11      1.0000 0.27707  0.42425  0.75300  Biso   1.000  C
  C12      1.0000 0.14718  0.72293  0.75300  Biso   1.000  C
  C13      1.0000 0.25957  0.87175  0.94030  Biso   1.000  C
  C14      1.0000 0.12825  0.38782  0.94030  Biso   1.000  C
  C15      1.0000 0.61218  0.74043  0.94030  Biso   1.000  C
  C16      1.0000 0.38782  0.12825  0.05970  Biso   1.000  C
  C17      1.0000 0.74043  0.61218  0.05970  Biso   1.000  C
  C18      1.0000 0.87175  0.25957  0.05970  Biso   1.000  C
  C19      1.0000 0.74043  0.12825  0.05970  Biso   1.000  C
  C20      1.0000 0.87175  0.61218  0.05970  Biso   1.000  C
  C21      1.0000 0.38782  0.25957  0.05970  Biso   1.000  C
  C22      1.0000 0.61218  0.87175  0.94030  Biso   1.000  C
  C23      1.0000 0.25957  0.38782  0.94030  Biso   1.000  C
  C24      1.0000 0.12825  0.74043  0.94030  Biso   1.000  C
  C25      1.0000 0.18355  0.81645  0.03220  Biso   1.000  C
  C26      1.0000 0.18355  0.36710  0.03220  Biso   1.000  C
  C27      1.0000 0.63290  0.81645  0.03220  Biso   1.000  C
  C28      1.0000 0.36710  0.18355  0.96780  Biso   1.000  C
  C29      1.0000 0.81645  0.63290  0.96780  Biso   1.000  C
  C30      1.0000 0.81645  0.18355  0.96780  Biso   1.000  C
  C31      1.0000 0.22103  0.77897  0.65670  Biso   1.000  C
  C32      1.0000 0.22103  0.44206  0.65670  Biso   1.000  C
  C33      1.0000 0.55794  0.77897  0.65670  Biso   1.000  C
  C34      1.0000 0.44206  0.22103  0.34330  Biso   1.000  C
  C35      1.0000 0.77897  0.55794  0.34330  Biso   1.000  C
  C36      1.0000 0.77897  0.22103  0.34330  Biso   1.000  C
  C37      1.0000 0.35982  0.90924  0.65580  Biso   1.000  C
  C38      1.0000 0.09076  0.45058  0.65580  Biso   1.000  C
  C39      1.0000 0.54942  0.64018  0.65580  Biso   1.000  C
  C40      1.0000 0.45058  0.09076  0.34420  Biso   1.000  C
  C41      1.0000 0.64018  0.54942  0.34420  Biso   1.000  C
  C42      1.0000 0.90924  0.35982  0.34420  Biso   1.000  C
  C43      1.0000 0.64018  0.09076  0.34420  Biso   1.000  C
  C44      1.0000 0.90924  0.54942  0.34420  Biso   1.000  C
  C45      1.0000 0.45058  0.35982  0.34420  Biso   1.000  C
  C46      1.0000 0.54942  0.90924  0.65580  Biso   1.000  C
  C47      1.0000 0.35982  0.45058  0.65580  Biso   1.000  C
  C48      1.0000 0.09076  0.64018  0.65580  Biso   1.000  C
  H1       1.0000 0.29860  0.92160  0.00560  Biso   1.000  H
  H2       1.0000 0.07840  0.37700  0.00560  Biso   1.000  H
  H3       1.0000 0.62300  0.70140  0.00560  Biso   1.000  H
  H4       1.0000 0.37700  0.07840  0.99440  Biso   1.000  H
  H5       1.0000 0.70140  0.62300  0.99440  Biso   1.000  H
  H6       1.0000 0.92160  0.29860  0.99440  Biso   1.000  H
  H7       1.0000 0.70140  0.07840  0.99440  Biso   1.000  H
  H8       1.0000 0.92160  0.62300  0.99440  Biso   1.000  H
  H9       1.0000 0.37700  0.29860  0.99440  Biso   1.000  H
  H10      1.0000 0.62300  0.92160  0.00560  Biso   1.000  H
  H11      1.0000 0.29860  0.37700  0.00560  Biso   1.000  H
  H12      1.0000 0.07840  0.70140  0.00560  Biso   1.000  H
  H13      1.0000 0.23300  0.76700  0.52740  Biso   1.000  H
  H14      1.0000 0.23300  0.46600  0.52740  Biso   1.000  H
  H15      1.0000 0.53400  0.76700  0.52740  Biso   1.000  H
  H16      1.0000 0.46600  0.23300  0.47260  Biso   1.000  H
  H17      1.0000 0.76700  0.53400  0.47260  Biso   1.000  H
  H18      1.0000 0.76700  0.23300  0.47260  Biso   1.000  H
