data_image0
_cell_length_a       18.3806
_cell_length_b       18.3806
_cell_length_c       6.49079
_cell_angle_alpha    90
_cell_angle_beta     90
_cell_angle_gamma    120

_symmetry_space_group_name_H-M    "P 1"
_symmetry_int_tables_number       1

loop_
  _symmetry_equiv_pos_as_xyz
  'x, y, z'

loop_
  _atom_site_label
  _atom_site_occupancy
  _atom_site_fract_x
  _atom_site_fract_y
  _atom_site_fract_z
  _atom_site_thermal_displace_type
  _atom_site_B_iso_or_equiv
  _atom_site_type_symbol
  Cu1      1.0000 0.47641  0.52359  0.16162  Biso   1.000  Cu
  Cu2      1.0000 0.47641  0.95282  0.16162  Biso   1.000  Cu
  Cu3      1.0000 0.04718  0.52359  0.16162  Biso   1.000  Cu
  Cu4      1.0000 0.52359  0.47641  0.83838  Biso   1.000  Cu
  Cu5      1.0000 0.95282  0.47641  0.83838  Biso   1.000  Cu
  Cu6      1.0000 0.52359  0.04718  0.83838  Biso   1.000  Cu
  C1       1.0000 0.42642  0.57358  0.38800  Biso   1.000  C
  C2       1.0000 0.42642  0.85284  0.38800  Biso   1.000  C
  C3       1.0000 0.14716  0.57358  0.38800  Biso   1.000  C
  C4       1.0000 0.57358  0.42642  0.61200  Biso   1.000  C
  C5       1.0000 0.85284  0.42642  0.61200  Biso   1.000  C
  C6       1.0000 0.57358  0.14716  0.61200  Biso   1.000  C
  O1       1.0000 0.44125  0.41381  0.26620  Biso   1.000  O
  O2       1.0000 0.58619  0.02744  0.26620  Biso   1.000  O
  O3       1.0000 0.97256  0.55875  0.26620  Biso   1.000  O
  O4       1.0000 0.41381  0.44125  0.73380  Biso   1.000  O
  O5       1.0000 0.02744  0.58619  0.73380  Biso   1.000  O
  O6       1.0000 0.55875  0.97256  0.73380  Biso   1.000  O
  O7       1.0000 0.55875  0.58619  0.73380  Biso   1.000  O
  O8       1.0000 0.41381  0.97256  0.73380  Biso   1.000  O
  O9       1.0000 0.02744  0.44125  0.73380  Biso   1.000  O
  O10      1.0000 0.58619  0.55875  0.26620  Biso   1.000  O
  O11      1.0000 0.97256  0.41381  0.26620  Biso   1.000  O
  O12      1.0000 0.44125  0.02744  0.26620  Biso   1.000  O
  O13      1.0000 0.52610  0.62931  0.02235  Biso   1.000  O
  O14      1.0000 0.37069  0.89679  0.02235  Biso   1.000  O
  O15      1.0000 0.10321  0.47390  0.02235  Biso   1.000  O
  O16      1.0000 0.62931  0.52610  0.97765  Biso   1.000  O
  O17      1.0000 0.89679  0.37069  0.97765  Biso   1.000  O
  O18      1.0000 0.47390  0.10321  0.97765  Biso   1.000  O
  O19      1.0000 0.47390  0.37069  0.97765  Biso   1.000  O
  O20      1.0000 0.62931  0.10321  0.97765  Biso   1.000  O
  O21      1.0000 0.89679  0.52610  0.97765  Biso   1.000  O
  O22      1.0000 0.37069  0.47390  0.02235  Biso   1.000  O
  O23      1.0000 0.10321  0.62931  0.02235  Biso   1.000  O
  O24      1.0000 0.52610  0.89679  0.02235  Biso   1.000  O
  O25      1.0000 0.40382  0.59618  0.50990  Biso   1.000  O
  O26      1.0000 0.40382  0.80764  0.50990  Biso   1.000  O
  O27      1.0000 0.19236  0.59618  0.50990  Biso   1.000  O
  O28      1.0000 0.59618  0.40382  0.49010  Biso   1.000  O
  O29      1.0000 0.80764  0.40382  0.49010  Biso   1.000  O
  O30      1.0000 0.59618  0.19236  0.49010  Biso   1.000  O
  C7       1.0000 0.44946  0.36137  0.16059  Biso   1.000  C
  C8       1.0000 0.63863  0.08809  0.16059  Biso   1.000  C
  C9       1.0000 0.91191  0.55054  0.16059  Biso   1.000  C
  C10      1.0000 0.36137  0.44946  0.83941  Biso   1.000  C
  C11      1.0000 0.08809  0.63863  0.83941  Biso   1.000  C
  C12      1.0000 0.55054  0.91191  0.83941  Biso   1.000  C
  C13      1.0000 0.55054  0.63863  0.83941  Biso   1.000  C
  C14      1.0000 0.36137  0.91191  0.83941  Biso   1.000  C
  C15      1.0000 0.08809  0.44946  0.83941  Biso   1.000  C
  C16      1.0000 0.63863  0.55054  0.16059  Biso   1.000  C
  C17      1.0000 0.91191  0.36137  0.16059  Biso   1.000  C
  C18      1.0000 0.44946  0.08809  0.16059  Biso   1.000  C
  C19      1.0000 0.42632  0.27929  0.26124  Biso   1.000  C
  C20      1.0000 0.72071  0.14703  0.26124  Biso   1.000  C
  C21      1.0000 0.85297  0.57368  0.26124  Biso   1.000  C
  C22      1.0000 0.27929  0.42632  0.73876  Biso   1.000  C
  C23      1.0000 0.14703  0.72071  0.73876  Biso   1.000  C
  C24      1.0000 0.57368  0.85297  0.73876  Biso   1.000  C
  C25      1.0000 0.57368  0.72071  0.73876  Biso   1.000  C
  C26      1.0000 0.27929  0.85297  0.73876  Biso   1.000  C
  C27      1.0000 0.14703  0.42632  0.73876  Biso   1.000  C
  C28      1.0000 0.72071  0.57368  0.26124  Biso   1.000  C
  C29      1.0000 0.85297  0.27929  0.26124  Biso   1.000  C
  C30      1.0000 0.42632  0.14703  0.26124  Biso   1.000  C
  C31      1.0000 0.44486  0.22243  0.16600  Biso   1.000  C
  C32      1.0000 0.77757  0.22243  0.16600  Biso   1.000  C
  C33      1.0000 0.77757  0.55514  0.16600  Biso   1.000  C
  C34      1.0000 0.22243  0.44486  0.83400  Biso   1.000  C
  C35      1.0000 0.22243  0.77757  0.83400  Biso   1.000  C
  C36      1.0000 0.55514  0.77757  0.83400  Biso   1.000  C
  C37      1.0000 0.38543  0.25588  0.45252  Biso   1.000  C
  C38      1.0000 0.74412  0.12955  0.45252  Biso   1.000  C
  C39      1.0000 0.87045  0.61457  0.45252  Biso   1.000  C
  C40      1.0000 0.25588  0.38543  0.54748  Biso   1.000  C
  C41      1.0000 0.12955  0.74412  0.54748  Biso   1.000  C
  C42      1.0000 0.61457  0.87045  0.54748  Biso   1.000  C
  C43      1.0000 0.61457  0.74412  0.54748  Biso   1.000  C
  C44      1.0000 0.25588  0.87045  0.54748  Biso   1.000  C
  C45      1.0000 0.12955  0.38543  0.54748  Biso   1.000  C
  C46      1.0000 0.74412  0.61457  0.45252  Biso   1.000  C
  C47      1.0000 0.87045  0.25588  0.45252  Biso   1.000  C
  C48      1.0000 0.38543  0.12955  0.45252  Biso   1.000  C
  H1       1.0000 0.47248  0.23624  0.03625  Biso   1.000  H
  H2       1.0000 0.76376  0.23624  0.03625  Biso   1.000  H
  H3       1.0000 0.76376  0.52752  0.03625  Biso   1.000  H
  H4       1.0000 0.23624  0.47248  0.96375  Biso   1.000  H
  H5       1.0000 0.23624  0.76376  0.96375  Biso   1.000  H
  H6       1.0000 0.52752  0.76376  0.96375  Biso   1.000  H
  C49      1.0000 0.36420  0.18210  0.54449  Biso   1.000  C
  C50      1.0000 0.81790  0.18210  0.54449  Biso   1.000  C
  C51      1.0000 0.81790  0.63580  0.54449  Biso   1.000  C
  C52      1.0000 0.18210  0.36420  0.45551  Biso   1.000  C
  C53      1.0000 0.18210  0.81790  0.45551  Biso   1.000  C
  C54      1.0000 0.63580  0.81790  0.45551  Biso   1.000  C
  H7       1.0000 0.37135  0.29336  0.51838  Biso   1.000  H
  H8       1.0000 0.70664  0.07799  0.51838  Biso   1.000  H
  H9       1.0000 0.92201  0.62865  0.51838  Biso   1.000  H
  H10      1.0000 0.29336  0.37135  0.48162  Biso   1.000  H
  H11      1.0000 0.07799  0.70664  0.48162  Biso   1.000  H
  H12      1.0000 0.62865  0.92201  0.48162  Biso   1.000  H
  H13      1.0000 0.62865  0.70664  0.48162  Biso   1.000  H
  H14      1.0000 0.29336  0.92201  0.48162  Biso   1.000  H
  H15      1.0000 0.07799  0.37135  0.48162  Biso   1.000  H
  H16      1.0000 0.70664  0.62865  0.51838  Biso   1.000  H
  H17      1.0000 0.92201  0.29336  0.51838  Biso   1.000  H
  H18      1.0000 0.37135  0.07799  0.51838  Biso   1.000  H
  N1       1.0000 0.32122  0.16061  0.73787  Biso   1.000  N
  N2       1.0000 0.83939  0.16061  0.73787  Biso   1.000  N
  N3       1.0000 0.83939  0.67878  0.73787  Biso   1.000  N
  N4       1.0000 0.16061  0.32122  0.26213  Biso   1.000  N
  N5       1.0000 0.16061  0.83939  0.26213  Biso   1.000  N
  N6       1.0000 0.67878  0.83939  0.26213  Biso   1.000  N
  N7       1.0000 0.28872  0.08927  0.80618  Biso   1.000  N
  N8       1.0000 0.91073  0.19945  0.80618  Biso   1.000  N
  N9       1.0000 0.80055  0.71128  0.80618  Biso   1.000  N
  N10      1.0000 0.08927  0.28872  0.19382  Biso   1.000  N
  N11      1.0000 0.19945  0.91073  0.19382  Biso   1.000  N
  N12      1.0000 0.71128  0.80055  0.19382  Biso   1.000  N
  N13      1.0000 0.71128  0.91073  0.19382  Biso   1.000  N
  N14      1.0000 0.08927  0.80055  0.19382  Biso   1.000  N
  N15      1.0000 0.19945  0.28872  0.19382  Biso   1.000  N
  N16      1.0000 0.91073  0.71128  0.80618  Biso   1.000  N
  N17      1.0000 0.80055  0.08927  0.80618  Biso   1.000  N
  N18      1.0000 0.28872  0.19945  0.80618  Biso   1.000  N
  N19      1.0000 0.26360  0.02651  0.87850  Biso   1.000  N
  N20      1.0000 0.97349  0.23709  0.87850  Biso   1.000  N
  N21      1.0000 0.76291  0.73640  0.87850  Biso   1.000  N
  N22      1.0000 0.02651  0.26360  0.12150  Biso   1.000  N
  N23      1.0000 0.23709  0.97349  0.12150  Biso   1.000  N
  N24      1.0000 0.73640  0.76291  0.12150  Biso   1.000  N
  N25      1.0000 0.73640  0.97349  0.12150  Biso   1.000  N
  N26      1.0000 0.02651  0.76291  0.12150  Biso   1.000  N
  N27      1.0000 0.23709  0.26360  0.12150  Biso   1.000  N
  N28      1.0000 0.97349  0.73640  0.87850  Biso   1.000  N
  N29      1.0000 0.76291  0.02651  0.87850  Biso   1.000  N
  N30      1.0000 0.26360  0.23709  0.87850  Biso   1.000  N
  O31      1.0000 0.66667  0.33333  0.14920  Biso   1.000  O
  O32      1.0000 0.33333  0.66667  0.85080  Biso   1.000  O
  C55      1.0000 0.66667  0.33333  0.98438  Biso   1.000  C
  C56      1.0000 0.33333  0.66667  0.01562  Biso   1.000  C
  C57      1.0000 0.05001  0.11821  0.81130  Biso   1.000  C
  C58      1.0000 0.88179  0.93180  0.81130  Biso   1.000  C
  C59      1.0000 0.06820  0.94999  0.81130  Biso   1.000  C
  C60      1.0000 0.11821  0.05001  0.18870  Biso   1.000  C
  C61      1.0000 0.93180  0.88179  0.18870  Biso   1.000  C
  C62      1.0000 0.94999  0.06820  0.18870  Biso   1.000  C
  C63      1.0000 0.94999  0.88179  0.18870  Biso   1.000  C
  C64      1.0000 0.11821  0.06820  0.18870  Biso   1.000  C
  C65      1.0000 0.93180  0.05001  0.18870  Biso   1.000  C
  C66      1.0000 0.88179  0.94999  0.81130  Biso   1.000  C
  C67      1.0000 0.06820  0.11821  0.81130  Biso   1.000  C
  C68      1.0000 0.05001  0.93180  0.81130  Biso   1.000  C
  O33      1.0000 0.11249  0.15770  0.73204  Biso   1.000  O
  O34      1.0000 0.84230  0.95479  0.73204  Biso   1.000  O
  O35      1.0000 0.04521  0.88751  0.73204  Biso   1.000  O
  O36      1.0000 0.15770  0.11249  0.26796  Biso   1.000  O
  O37      1.0000 0.95479  0.84230  0.26796  Biso   1.000  O
  O38      1.0000 0.88751  0.04521  0.26796  Biso   1.000  O
  O39      1.0000 0.88751  0.84230  0.26796  Biso   1.000  O
  O40      1.0000 0.15770  0.04521  0.26796  Biso   1.000  O
  O41      1.0000 0.95479  0.11249  0.26796  Biso   1.000  O
  O42      1.0000 0.84230  0.88751  0.73204  Biso   1.000  O
  O43      1.0000 0.04521  0.15770  0.73204  Biso   1.000  O
  O44      1.0000 0.11249  0.95479  0.73204  Biso   1.000  O
