data_image0
_cell_length_a       23.109
_cell_length_b       20.296
_cell_length_c       7.183
_cell_angle_alpha    90
_cell_angle_beta     90
_cell_angle_gamma    90

_symmetry_space_group_name_H-M    "P 1"
_symmetry_int_tables_number       1

loop_
  _symmetry_equiv_pos_as_xyz
  'x, y, z'

loop_
  _atom_site_label
  _atom_site_occupancy
  _atom_site_fract_x
  _atom_site_fract_y
  _atom_site_fract_z
  _atom_site_thermal_displace_type
  _atom_site_B_iso_or_equiv
  _atom_site_type_symbol
  Cu1      1.0000 0.51888  0.81999  0.16821  Biso   1.000  Cu
  Cu2      1.0000 0.48112  0.18001  0.16821  Biso   1.000  Cu
  Cu3      1.0000 0.01888  0.68001  0.16821  Biso   1.000  Cu
  Cu4      1.0000 0.98112  0.31999  0.16821  Biso   1.000  Cu
  Cu5      1.0000 0.51888  0.31999  0.66821  Biso   1.000  Cu
  Cu6      1.0000 0.48112  0.68001  0.66821  Biso   1.000  Cu
  Cu7      1.0000 0.01888  0.18001  0.66821  Biso   1.000  Cu
  Cu8      1.0000 0.98112  0.81999  0.66821  Biso   1.000  Cu
  Br1      1.0000 0.32174  0.87786  0.31710  Biso   1.000  Br
  Br2      1.0000 0.67826  0.12214  0.31710  Biso   1.000  Br
  Br3      1.0000 0.82174  0.62214  0.31710  Biso   1.000  Br
  Br4      1.0000 0.17826  0.37786  0.31710  Biso   1.000  Br
  Br5      1.0000 0.32174  0.37786  0.81710  Biso   1.000  Br
  Br6      1.0000 0.67826  0.62214  0.81710  Biso   1.000  Br
  Br7      1.0000 0.82174  0.12214  0.81710  Biso   1.000  Br
  Br8      1.0000 0.17826  0.87786  0.81710  Biso   1.000  Br
  Cl1      1.0000 0.31106  0.02273  0.66590  Biso   1.000  Cl
  Cl2      1.0000 0.68894  0.97727  0.66590  Biso   1.000  Cl
  Cl3      1.0000 0.81106  0.47727  0.66590  Biso   1.000  Cl
  Cl4      1.0000 0.18894  0.52273  0.66590  Biso   1.000  Cl
  Cl5      1.0000 0.31106  0.52273  0.16590  Biso   1.000  Cl
  Cl6      1.0000 0.68894  0.47727  0.16590  Biso   1.000  Cl
  Cl7      1.0000 0.81106  0.97727  0.16590  Biso   1.000  Cl
  Cl8      1.0000 0.18894  0.02273  0.16590  Biso   1.000  Cl
  Cl9      1.0000 0.51094  0.79394  0.47640  Biso   1.000  Cl
  Cl10     1.0000 0.48906  0.20606  0.47640  Biso   1.000  Cl
  Cl11     1.0000 0.01094  0.70606  0.47640  Biso   1.000  Cl
  Cl12     1.0000 0.98906  0.29394  0.47640  Biso   1.000  Cl
  Cl13     1.0000 0.51094  0.29394  0.97640  Biso   1.000  Cl
  Cl14     1.0000 0.48906  0.70606  0.97640  Biso   1.000  Cl
  Cl15     1.0000 0.01094  0.20606  0.97640  Biso   1.000  Cl
  Cl16     1.0000 0.98906  0.79394  0.97640  Biso   1.000  Cl
  O1       1.0000 0.44100  0.85230  0.17680  Biso   1.000  O
  O2       1.0000 0.55900  0.14770  0.17680  Biso   1.000  O
  O3       1.0000 0.94100  0.64770  0.17680  Biso   1.000  O
  O4       1.0000 0.05900  0.35230  0.17680  Biso   1.000  O
  O5       1.0000 0.44100  0.35230  0.67680  Biso   1.000  O
  O6       1.0000 0.55900  0.64770  0.67680  Biso   1.000  O
  O7       1.0000 0.94100  0.14770  0.67680  Biso   1.000  O
  O8       1.0000 0.05900  0.85230  0.67680  Biso   1.000  O
  O9       1.0000 0.71430  0.78080  0.36200  Biso   1.000  O
  O10      1.0000 0.28570  0.21920  0.36200  Biso   1.000  O
  O11      1.0000 0.21430  0.71920  0.36200  Biso   1.000  O
  O12      1.0000 0.78570  0.28080  0.36200  Biso   1.000  O
  O13      1.0000 0.71430  0.28080  0.86200  Biso   1.000  O
  O14      1.0000 0.28570  0.71920  0.86200  Biso   1.000  O
  O15      1.0000 0.21430  0.21920  0.86200  Biso   1.000  O
  O16      1.0000 0.78570  0.78080  0.86200  Biso   1.000  O
  N1       1.0000 0.53360  0.86640  0.93410  Biso   1.000  N
  N2       1.0000 0.46640  0.13360  0.93410  Biso   1.000  N
  N3       1.0000 0.03360  0.63360  0.93410  Biso   1.000  N
  N4       1.0000 0.96640  0.36640  0.93410  Biso   1.000  N
  N5       1.0000 0.53360  0.36640  0.43410  Biso   1.000  N
  N6       1.0000 0.46640  0.63360  0.43410  Biso   1.000  N
  N7       1.0000 0.03360  0.13360  0.43410  Biso   1.000  N
  N8       1.0000 0.96640  0.86640  0.43410  Biso   1.000  N
  N9       1.0000 0.60720  0.79960  0.15320  Biso   1.000  N
  N10      1.0000 0.39280  0.20040  0.15320  Biso   1.000  N
  N11      1.0000 0.10720  0.70040  0.15320  Biso   1.000  N
  N12      1.0000 0.89280  0.29960  0.15320  Biso   1.000  N
  N13      1.0000 0.60720  0.29960  0.65320  Biso   1.000  N
  N14      1.0000 0.39280  0.70040  0.65320  Biso   1.000  N
  N15      1.0000 0.10720  0.20040  0.65320  Biso   1.000  N
  N16      1.0000 0.89280  0.79960  0.65320  Biso   1.000  N
  C1       1.0000 0.43820  0.91430  0.89320  Biso   1.000  C
  C2       1.0000 0.56180  0.08570  0.89320  Biso   1.000  C
  C3       1.0000 0.93820  0.58570  0.89320  Biso   1.000  C
  C4       1.0000 0.06180  0.41430  0.89320  Biso   1.000  C
  C5       1.0000 0.43820  0.41430  0.39320  Biso   1.000  C
  C6       1.0000 0.56180  0.58570  0.39320  Biso   1.000  C
  C7       1.0000 0.93820  0.08570  0.39320  Biso   1.000  C
  C8       1.0000 0.06180  0.91430  0.39320  Biso   1.000  C
  C9       1.0000 0.41450  0.88980  0.05840  Biso   1.000  C
  C10      1.0000 0.58550  0.11020  0.05840  Biso   1.000  C
  C11      1.0000 0.91450  0.61020  0.05840  Biso   1.000  C
  C12      1.0000 0.08550  0.38980  0.05840  Biso   1.000  C
  C13      1.0000 0.41450  0.38980  0.55840  Biso   1.000  C
  C14      1.0000 0.58550  0.61020  0.55840  Biso   1.000  C
  C15      1.0000 0.91450  0.11020  0.55840  Biso   1.000  C
  C16      1.0000 0.08550  0.88980  0.55840  Biso   1.000  C
  C17      1.0000 0.35630  0.90890  0.09500  Biso   1.000  C
  C18      1.0000 0.64370  0.09110  0.09500  Biso   1.000  C
  C19      1.0000 0.85630  0.59110  0.09500  Biso   1.000  C
  C20      1.0000 0.14370  0.40890  0.09500  Biso   1.000  C
  C21      1.0000 0.35630  0.40890  0.59500  Biso   1.000  C
  C22      1.0000 0.64370  0.59110  0.59500  Biso   1.000  C
  C23      1.0000 0.85630  0.09110  0.59500  Biso   1.000  C
  C24      1.0000 0.14370  0.90890  0.59500  Biso   1.000  C
  C25      1.0000 0.32480  0.94790  0.97830  Biso   1.000  C
  C26      1.0000 0.67520  0.05210  0.97830  Biso   1.000  C
  C27      1.0000 0.82480  0.55210  0.97830  Biso   1.000  C
  C28      1.0000 0.17520  0.44790  0.97830  Biso   1.000  C
  C29      1.0000 0.32480  0.44790  0.47830  Biso   1.000  C
  C30      1.0000 0.67520  0.55210  0.47830  Biso   1.000  C
  C31      1.0000 0.82480  0.05210  0.47830  Biso   1.000  C
  C32      1.0000 0.17520  0.94790  0.47830  Biso   1.000  C
  H1       1.0000 0.28670  0.95880  0.00620  Biso   1.000  H
  H2       1.0000 0.71330  0.04120  0.00620  Biso   1.000  H
  H3       1.0000 0.78670  0.54120  0.00620  Biso   1.000  H
  H4       1.0000 0.21330  0.45880  0.00620  Biso   1.000  H
  H5       1.0000 0.28670  0.45880  0.50620  Biso   1.000  H
  H6       1.0000 0.71330  0.54120  0.50620  Biso   1.000  H
  H7       1.0000 0.78670  0.04120  0.50620  Biso   1.000  H
  H8       1.0000 0.21330  0.95880  0.50620  Biso   1.000  H
  C33      1.0000 0.35100  0.97080  0.81680  Biso   1.000  C
  C34      1.0000 0.64900  0.02920  0.81680  Biso   1.000  C
  C35      1.0000 0.85100  0.52920  0.81680  Biso   1.000  C
  C36      1.0000 0.14900  0.47080  0.81680  Biso   1.000  C
  C37      1.0000 0.35100  0.47080  0.31680  Biso   1.000  C
  C38      1.0000 0.64900  0.52920  0.31680  Biso   1.000  C
  C39      1.0000 0.85100  0.02920  0.31680  Biso   1.000  C
  C40      1.0000 0.14900  0.97080  0.31680  Biso   1.000  C
  C41      1.0000 0.40600  0.95510  0.77120  Biso   1.000  C
  C42      1.0000 0.59400  0.04490  0.77120  Biso   1.000  C
  C43      1.0000 0.90600  0.54490  0.77120  Biso   1.000  C
  C44      1.0000 0.09400  0.45510  0.77120  Biso   1.000  C
  C45      1.0000 0.40600  0.45510  0.27120  Biso   1.000  C
  C46      1.0000 0.59400  0.54490  0.27120  Biso   1.000  C
  C47      1.0000 0.90600  0.04490  0.27120  Biso   1.000  C
  C48      1.0000 0.09400  0.95510  0.27120  Biso   1.000  C
  H9       1.0000 0.42250  0.97090  0.66180  Biso   1.000  H
  H10      1.0000 0.57750  0.02910  0.66180  Biso   1.000  H
  H11      1.0000 0.92250  0.52910  0.66180  Biso   1.000  H
  H12      1.0000 0.07750  0.47090  0.66180  Biso   1.000  H
  H13      1.0000 0.42250  0.47090  0.16180  Biso   1.000  H
  H14      1.0000 0.57750  0.52910  0.16180  Biso   1.000  H
  H15      1.0000 0.92250  0.02910  0.16180  Biso   1.000  H
  H16      1.0000 0.07750  0.97090  0.16180  Biso   1.000  H
  C49      1.0000 0.49760  0.90010  0.83530  Biso   1.000  C
  C50      1.0000 0.50240  0.09990  0.83530  Biso   1.000  C
  C51      1.0000 0.99760  0.59990  0.83530  Biso   1.000  C
  C52      1.0000 0.00240  0.40010  0.83530  Biso   1.000  C
  C53      1.0000 0.49760  0.40010  0.33530  Biso   1.000  C
  C54      1.0000 0.50240  0.59990  0.33530  Biso   1.000  C
  C55      1.0000 0.99760  0.09990  0.33530  Biso   1.000  C
  C56      1.0000 0.00240  0.90010  0.33530  Biso   1.000  C
  H17      1.0000 0.51000  0.91630  0.72100  Biso   1.000  H
  H18      1.0000 0.49000  0.08370  0.72100  Biso   1.000  H
  H19      1.0000 0.01000  0.58370  0.72100  Biso   1.000  H
  H20      1.0000 0.99000  0.41630  0.72100  Biso   1.000  H
  H21      1.0000 0.51000  0.41630  0.22100  Biso   1.000  H
  H22      1.0000 0.49000  0.58370  0.22100  Biso   1.000  H
  H23      1.0000 0.01000  0.08370  0.22100  Biso   1.000  H
  H24      1.0000 0.99000  0.91630  0.22100  Biso   1.000  H
  C57      1.0000 0.59220  0.85790  0.86300  Biso   1.000  C
  C58      1.0000 0.40780  0.14210  0.86300  Biso   1.000  C
  C59      1.0000 0.09220  0.64210  0.86300  Biso   1.000  C
  C60      1.0000 0.90780  0.35790  0.86300  Biso   1.000  C
  C61      1.0000 0.59220  0.35790  0.36300  Biso   1.000  C
  C62      1.0000 0.40780  0.64210  0.36300  Biso   1.000  C
  C63      1.0000 0.09220  0.14210  0.36300  Biso   1.000  C
  C64      1.0000 0.90780  0.85790  0.36300  Biso   1.000  C
  H25      1.0000 0.61500  0.89690  0.88930  Biso   1.000  H
  H26      1.0000 0.38500  0.10310  0.88930  Biso   1.000  H
  H27      1.0000 0.11500  0.60310  0.88930  Biso   1.000  H
  H28      1.0000 0.88500  0.39690  0.88930  Biso   1.000  H
  H29      1.0000 0.61500  0.39690  0.38930  Biso   1.000  H
  H30      1.0000 0.38500  0.60310  0.38930  Biso   1.000  H
  H31      1.0000 0.11500  0.10310  0.38930  Biso   1.000  H
  H32      1.0000 0.88500  0.89690  0.38930  Biso   1.000  H
  H33      1.0000 0.59110  0.85170  0.72910  Biso   1.000  H
  H34      1.0000 0.40890  0.14830  0.72910  Biso   1.000  H
  H35      1.0000 0.09110  0.64830  0.72910  Biso   1.000  H
  H36      1.0000 0.90890  0.35170  0.72910  Biso   1.000  H
  H37      1.0000 0.59110  0.35170  0.22910  Biso   1.000  H
  H38      1.0000 0.40890  0.64830  0.22910  Biso   1.000  H
  H39      1.0000 0.09110  0.14830  0.22910  Biso   1.000  H
  H40      1.0000 0.90890  0.85170  0.22910  Biso   1.000  H
  C65      1.0000 0.61940  0.79930  0.95290  Biso   1.000  C
  C66      1.0000 0.38060  0.20070  0.95290  Biso   1.000  C
  C67      1.0000 0.11940  0.70070  0.95290  Biso   1.000  C
  C68      1.0000 0.88060  0.29930  0.95290  Biso   1.000  C
  C69      1.0000 0.61940  0.29930  0.45290  Biso   1.000  C
  C70      1.0000 0.38060  0.70070  0.45290  Biso   1.000  C
  C71      1.0000 0.11940  0.20070  0.45290  Biso   1.000  C
  C72      1.0000 0.88060  0.79930  0.45290  Biso   1.000  C
  H41      1.0000 0.60420  0.75930  0.89750  Biso   1.000  H
  H42      1.0000 0.39580  0.24070  0.89750  Biso   1.000  H
  H43      1.0000 0.10420  0.74070  0.89750  Biso   1.000  H
  H44      1.0000 0.89580  0.25930  0.89750  Biso   1.000  H
  H45      1.0000 0.60420  0.25930  0.39750  Biso   1.000  H
  H46      1.0000 0.39580  0.74070  0.39750  Biso   1.000  H
  H47      1.0000 0.10420  0.24070  0.39750  Biso   1.000  H
  H48      1.0000 0.89580  0.75930  0.39750  Biso   1.000  H
  H49      1.0000 0.66090  0.80020  0.93270  Biso   1.000  H
  H50      1.0000 0.33910  0.19980  0.93270  Biso   1.000  H
  H51      1.0000 0.16090  0.69980  0.93270  Biso   1.000  H
  H52      1.0000 0.83910  0.30020  0.93270  Biso   1.000  H
  H53      1.0000 0.66090  0.30020  0.43270  Biso   1.000  H
  H54      1.0000 0.33910  0.69980  0.43270  Biso   1.000  H
  H55      1.0000 0.16090  0.19980  0.43270  Biso   1.000  H
  H56      1.0000 0.83910  0.80020  0.43270  Biso   1.000  H
  C73      1.0000 0.63650  0.85330  0.25510  Biso   1.000  C
  C74      1.0000 0.36350  0.14670  0.25510  Biso   1.000  C
  C75      1.0000 0.13650  0.64670  0.25510  Biso   1.000  C
  C76      1.0000 0.86350  0.35330  0.25510  Biso   1.000  C
  C77      1.0000 0.63650  0.35330  0.75510  Biso   1.000  C
  C78      1.0000 0.36350  0.64670  0.75510  Biso   1.000  C
  C79      1.0000 0.13650  0.14670  0.75510  Biso   1.000  C
  C80      1.0000 0.86350  0.85330  0.75510  Biso   1.000  C
  H57      1.0000 0.61990  0.85720  0.37860  Biso   1.000  H
  H58      1.0000 0.38010  0.14280  0.37860  Biso   1.000  H
  H59      1.0000 0.11990  0.64280  0.37860  Biso   1.000  H
  H60      1.0000 0.88010  0.35720  0.37860  Biso   1.000  H
  H61      1.0000 0.61990  0.35720  0.87860  Biso   1.000  H
  H62      1.0000 0.38010  0.64280  0.87860  Biso   1.000  H
  H63      1.0000 0.11990  0.14280  0.87860  Biso   1.000  H
  H64      1.0000 0.88010  0.85720  0.87860  Biso   1.000  H
  H65      1.0000 0.63020  0.89460  0.19040  Biso   1.000  H
  H66      1.0000 0.36980  0.10540  0.19040  Biso   1.000  H
  H67      1.0000 0.13020  0.60540  0.19040  Biso   1.000  H
  H68      1.0000 0.86980  0.39460  0.19040  Biso   1.000  H
  H69      1.0000 0.63020  0.39460  0.69040  Biso   1.000  H
  H70      1.0000 0.36980  0.60540  0.69040  Biso   1.000  H
  H71      1.0000 0.13020  0.10540  0.69040  Biso   1.000  H
  H72      1.0000 0.86980  0.89460  0.69040  Biso   1.000  H
  C81      1.0000 0.70300  0.84020  0.27190  Biso   1.000  C
  C82      1.0000 0.29700  0.15980  0.27190  Biso   1.000  C
  C83      1.0000 0.20300  0.65980  0.27190  Biso   1.000  C
  C84      1.0000 0.79700  0.34020  0.27190  Biso   1.000  C
  C85      1.0000 0.70300  0.34020  0.77190  Biso   1.000  C
  C86      1.0000 0.29700  0.65980  0.77190  Biso   1.000  C
  C87      1.0000 0.20300  0.15980  0.77190  Biso   1.000  C
  C88      1.0000 0.79700  0.84020  0.77190  Biso   1.000  C
  H73      1.0000 0.71990  0.83920  0.14850  Biso   1.000  H
  H74      1.0000 0.28010  0.16080  0.14850  Biso   1.000  H
  H75      1.0000 0.21990  0.66080  0.14850  Biso   1.000  H
  H76      1.0000 0.78010  0.33920  0.14850  Biso   1.000  H
  H77      1.0000 0.71990  0.33920  0.64850  Biso   1.000  H
  H78      1.0000 0.28010  0.66080  0.64850  Biso   1.000  H
  H79      1.0000 0.21990  0.16080  0.64850  Biso   1.000  H
  H80      1.0000 0.78010  0.83920  0.64850  Biso   1.000  H
  H81      1.0000 0.72080  0.87590  0.34070  Biso   1.000  H
  H82      1.0000 0.27920  0.12410  0.34070  Biso   1.000  H
  H83      1.0000 0.22080  0.62410  0.34070  Biso   1.000  H
  H84      1.0000 0.77920  0.37590  0.34070  Biso   1.000  H
  H85      1.0000 0.72080  0.37590  0.84070  Biso   1.000  H
  H86      1.0000 0.27920  0.62410  0.84070  Biso   1.000  H
  H87      1.0000 0.22080  0.12410  0.84070  Biso   1.000  H
  H88      1.0000 0.77920  0.87590  0.84070  Biso   1.000  H
  C89      1.0000 0.68990  0.72890  0.25550  Biso   1.000  C
  C90      1.0000 0.31010  0.27110  0.25550  Biso   1.000  C
  C91      1.0000 0.18990  0.77110  0.25550  Biso   1.000  C
  C92      1.0000 0.81010  0.22890  0.25550  Biso   1.000  C
  C93      1.0000 0.68990  0.22890  0.75550  Biso   1.000  C
  C94      1.0000 0.31010  0.77110  0.75550  Biso   1.000  C
  C95      1.0000 0.18990  0.27110  0.75550  Biso   1.000  C
  C96      1.0000 0.81010  0.72890  0.75550  Biso   1.000  C
  H89      1.0000 0.69880  0.68710  0.31410  Biso   1.000  H
  H90      1.0000 0.30120  0.31290  0.31410  Biso   1.000  H
  H91      1.0000 0.19880  0.81290  0.31410  Biso   1.000  H
  H92      1.0000 0.80120  0.18710  0.31410  Biso   1.000  H
  H93      1.0000 0.69880  0.18710  0.81410  Biso   1.000  H
  H94      1.0000 0.30120  0.81290  0.81410  Biso   1.000  H
  H95      1.0000 0.19880  0.31290  0.81410  Biso   1.000  H
  H96      1.0000 0.80120  0.68710  0.81410  Biso   1.000  H
  H97      1.0000 0.70700  0.72890  0.13220  Biso   1.000  H
  H98      1.0000 0.29300  0.27110  0.13220  Biso   1.000  H
  H99      1.0000 0.20700  0.77110  0.13220  Biso   1.000  H
  H100     1.0000 0.79300  0.22890  0.13220  Biso   1.000  H
  H101     1.0000 0.70700  0.22890  0.63220  Biso   1.000  H
  H102     1.0000 0.29300  0.77110  0.63220  Biso   1.000  H
  H103     1.0000 0.20700  0.27110  0.63220  Biso   1.000  H
  H104     1.0000 0.79300  0.72890  0.63220  Biso   1.000  H
  C97      1.0000 0.62410  0.73640  0.23840  Biso   1.000  C
  C98      1.0000 0.37590  0.26360  0.23840  Biso   1.000  C
  C99      1.0000 0.12410  0.76360  0.23840  Biso   1.000  C
  C100     1.0000 0.87590  0.23640  0.23840  Biso   1.000  C
  C101     1.0000 0.62410  0.23640  0.73840  Biso   1.000  C
  C102     1.0000 0.37590  0.76360  0.73840  Biso   1.000  C
  C103     1.0000 0.12410  0.26360  0.73840  Biso   1.000  C
  C104     1.0000 0.87590  0.73640  0.73840  Biso   1.000  C
  H105     1.0000 0.60900  0.70050  0.16340  Biso   1.000  H
  H106     1.0000 0.39100  0.29950  0.16340  Biso   1.000  H
  H107     1.0000 0.10900  0.79950  0.16340  Biso   1.000  H
  H108     1.0000 0.89100  0.20050  0.16340  Biso   1.000  H
  H109     1.0000 0.60900  0.20050  0.66340  Biso   1.000  H
  H110     1.0000 0.39100  0.79950  0.66340  Biso   1.000  H
  H111     1.0000 0.10900  0.29950  0.66340  Biso   1.000  H
  H112     1.0000 0.89100  0.70050  0.66340  Biso   1.000  H
  H113     1.0000 0.60690  0.73310  0.36120  Biso   1.000  H
  H114     1.0000 0.39310  0.26690  0.36120  Biso   1.000  H
  H115     1.0000 0.10690  0.76690  0.36120  Biso   1.000  H
  H116     1.0000 0.89310  0.23310  0.36120  Biso   1.000  H
  H117     1.0000 0.60690  0.23310  0.86120  Biso   1.000  H
  H118     1.0000 0.39310  0.76690  0.86120  Biso   1.000  H
  H119     1.0000 0.10690  0.26690  0.86120  Biso   1.000  H
  H120     1.0000 0.89310  0.73310  0.86120  Biso   1.000  H
  O17      1.0000 0.50000  0.00000  0.27700  Biso   1.000  O
  O18      1.0000 0.00000  0.50000  0.27700  Biso   1.000  O
  O19      1.0000 0.50000  0.50000  0.77700  Biso   1.000  O
  O20      1.0000 0.00000  0.00000  0.77700  Biso   1.000  O
  H121     1.0000 0.49710  0.98110  0.38190  Biso   1.000  H
  H122     1.0000 0.50290  0.01890  0.38190  Biso   1.000  H
  H123     1.0000 0.99710  0.51890  0.38190  Biso   1.000  H
  H124     1.0000 0.00290  0.48110  0.38190  Biso   1.000  H
  H125     1.0000 0.49710  0.48110  0.88190  Biso   1.000  H
  H126     1.0000 0.50290  0.51890  0.88190  Biso   1.000  H
  H127     1.0000 0.99710  0.01890  0.88190  Biso   1.000  H
  H128     1.0000 0.00290  0.98110  0.88190  Biso   1.000  H
  H129     1.0000 0.50190  0.97710  0.17790  Biso   1.000  H
  H130     1.0000 0.49810  0.02290  0.17790  Biso   1.000  H
  H131     1.0000 0.00190  0.52290  0.17790  Biso   1.000  H
  H132     1.0000 0.99810  0.47710  0.17790  Biso   1.000  H
  H133     1.0000 0.50190  0.47710  0.67790  Biso   1.000  H
  H134     1.0000 0.49810  0.52290  0.67790  Biso   1.000  H
  H135     1.0000 0.00190  0.02290  0.67790  Biso   1.000  H
  H136     1.0000 0.99810  0.97710  0.67790  Biso   1.000  H
