data_image0
_cell_length_a       25.521
_cell_length_b       9.808
_cell_length_c       21.185
_cell_angle_alpha    90
_cell_angle_beta     90.92
_cell_angle_gamma    90

_symmetry_space_group_name_H-M    "P 1"
_symmetry_int_tables_number       1

loop_
  _symmetry_equiv_pos_as_xyz
  'x, y, z'

loop_
  _atom_site_label
  _atom_site_occupancy
  _atom_site_fract_x
  _atom_site_fract_y
  _atom_site_fract_z
  _atom_site_thermal_displace_type
  _atom_site_B_iso_or_equiv
  _atom_site_type_symbol
  Cu1      1.0000 0.25704  0.38719  0.37375  Biso   1.000  Cu
  Cu2      1.0000 0.74296  0.38719  0.12625  Biso   1.000  Cu
  Cu3      1.0000 0.74296  0.61281  0.62625  Biso   1.000  Cu
  Cu4      1.0000 0.25704  0.61281  0.87375  Biso   1.000  Cu
  Cu5      1.0000 0.75614  0.87686  0.38633  Biso   1.000  Cu
  Cu6      1.0000 0.24386  0.87686  0.11367  Biso   1.000  Cu
  Cu7      1.0000 0.24386  0.12314  0.61367  Biso   1.000  Cu
  Cu8      1.0000 0.75614  0.12314  0.88633  Biso   1.000  Cu
  N1       1.0000 0.68133  0.87720  0.35710  Biso   1.000  N
  N2       1.0000 0.31867  0.87720  0.14290  Biso   1.000  N
  N3       1.0000 0.31867  0.12280  0.64290  Biso   1.000  N
  N4       1.0000 0.68133  0.12280  0.85710  Biso   1.000  N
  N5       1.0000 0.83257  0.88220  0.41070  Biso   1.000  N
  N6       1.0000 0.16743  0.88220  0.08930  Biso   1.000  N
  N7       1.0000 0.16743  0.11780  0.58930  Biso   1.000  N
  N8       1.0000 0.83257  0.11780  0.91070  Biso   1.000  N
  N9       1.0000 0.20172  0.24200  0.38570  Biso   1.000  N
  N10      1.0000 0.79828  0.24200  0.11430  Biso   1.000  N
  N11      1.0000 0.79828  0.75800  0.61430  Biso   1.000  N
  N12      1.0000 0.20172  0.75800  0.88570  Biso   1.000  N
  N13      1.0000 0.48618  0.77140  0.32840  Biso   1.000  N
  N14      1.0000 0.51382  0.77140  0.17160  Biso   1.000  N
  N15      1.0000 0.51382  0.22860  0.67160  Biso   1.000  N
  N16      1.0000 0.48618  0.22860  0.82840  Biso   1.000  N
  N17      1.0000 0.02846  0.77360  0.42830  Biso   1.000  N
  N18      1.0000 0.97154  0.77360  0.07170  Biso   1.000  N
  N19      1.0000 0.97154  0.22640  0.57170  Biso   1.000  N
  N20      1.0000 0.02846  0.22640  0.92830  Biso   1.000  N
  N21      1.0000 0.02685  0.00120  0.41730  Biso   1.000  N
  N22      1.0000 0.97315  0.00120  0.08270  Biso   1.000  N
  N23      1.0000 0.97315  0.99880  0.58270  Biso   1.000  N
  N24      1.0000 0.02685  0.99880  0.91730  Biso   1.000  N
  N25      1.0000 0.48715  0.99780  0.33580  Biso   1.000  N
  N26      1.0000 0.51285  0.99780  0.16420  Biso   1.000  N
  N27      1.0000 0.51285  0.00220  0.66420  Biso   1.000  N
  N28      1.0000 0.48715  0.00220  0.83580  Biso   1.000  N
  H1       1.0000 0.49862  0.08011  0.33804  Biso   1.000  H
  H2       1.0000 0.50138  0.08011  0.16196  Biso   1.000  H
  H3       1.0000 0.50138  0.91989  0.66196  Biso   1.000  H
  H4       1.0000 0.49862  0.91989  0.83804  Biso   1.000  H
  C1       1.0000 0.39350  0.05490  0.34410  Biso   1.000  C
  C2       1.0000 0.60650  0.05490  0.15590  Biso   1.000  C
  C3       1.0000 0.60650  0.94510  0.65590  Biso   1.000  C
  C4       1.0000 0.39350  0.94510  0.84410  Biso   1.000  C
  O1       1.0000 0.77101  0.01540  0.31874  Biso   1.000  O
  O2       1.0000 0.22899  0.01540  0.18126  Biso   1.000  O
  O3       1.0000 0.22899  0.98460  0.68126  Biso   1.000  O
  O4       1.0000 0.77101  0.98460  0.81874  Biso   1.000  O
  C5       1.0000 0.12040  0.05600  0.40440  Biso   1.000  C
  C6       1.0000 0.87960  0.05600  0.09560  Biso   1.000  C
  C7       1.0000 0.87960  0.94400  0.59560  Biso   1.000  C
  C8       1.0000 0.12040  0.94400  0.90440  Biso   1.000  C
  C9       1.0000 0.43620  0.95740  0.33670  Biso   1.000  C
  C10      1.0000 0.56380  0.95740  0.16330  Biso   1.000  C
  C11      1.0000 0.56380  0.04260  0.66330  Biso   1.000  C
  C12      1.0000 0.43620  0.04260  0.83670  Biso   1.000  C
  C13      1.0000 0.60260  0.00230  0.33840  Biso   1.000  C
  C14      1.0000 0.39740  0.00230  0.16160  Biso   1.000  C
  C15      1.0000 0.39740  0.99770  0.66160  Biso   1.000  C
  C16      1.0000 0.60260  0.99770  0.83840  Biso   1.000  C
  H5       1.0000 0.58618  0.08632  0.33316  Biso   1.000  H
  H6       1.0000 0.41382  0.08632  0.16684  Biso   1.000  H
  H7       1.0000 0.41382  0.91368  0.66684  Biso   1.000  H
  H8       1.0000 0.58618  0.91368  0.83316  Biso   1.000  H
  C17      1.0000 0.60060  0.75940  0.34030  Biso   1.000  C
  C18      1.0000 0.39940  0.75940  0.15970  Biso   1.000  C
  C19      1.0000 0.39940  0.24060  0.65970  Biso   1.000  C
  C20      1.0000 0.60060  0.24060  0.84030  Biso   1.000  C
  H9       1.0000 0.58262  0.67716  0.33697  Biso   1.000  H
  H10      1.0000 0.41738  0.67716  0.16303  Biso   1.000  H
  H11      1.0000 0.41738  0.32284  0.66303  Biso   1.000  H
  H12      1.0000 0.58262  0.32284  0.83697  Biso   1.000  H
  O5       1.0000 0.23385  0.39260  0.26770  Biso   1.000  O
  O6       1.0000 0.76615  0.39260  0.23230  Biso   1.000  O
  O7       1.0000 0.76615  0.60740  0.73230  Biso   1.000  O
  O8       1.0000 0.23385  0.60740  0.76770  Biso   1.000  O
  C21      1.0000 0.38710  0.60440  0.30060  Biso   1.000  C
  C22      1.0000 0.61290  0.60440  0.19940  Biso   1.000  C
  C23      1.0000 0.61290  0.39560  0.69940  Biso   1.000  C
  C24      1.0000 0.38710  0.39560  0.80060  Biso   1.000  C
  H13      1.0000 0.41128  0.58732  0.26918  Biso   1.000  H
  H14      1.0000 0.58872  0.58732  0.23082  Biso   1.000  H
  H15      1.0000 0.58872  0.41268  0.73082  Biso   1.000  H
  H16      1.0000 0.41128  0.41268  0.76918  Biso   1.000  H
  C25      1.0000 0.43600  0.81680  0.33280  Biso   1.000  C
  C26      1.0000 0.56400  0.81680  0.16720  Biso   1.000  C
  C27      1.0000 0.56400  0.18320  0.66720  Biso   1.000  C
  C28      1.0000 0.43600  0.18320  0.83280  Biso   1.000  C
  C29      1.0000 0.39240  0.71990  0.33930  Biso   1.000  C
  C30      1.0000 0.60760  0.71990  0.16070  Biso   1.000  C
  C31      1.0000 0.60760  0.28010  0.66070  Biso   1.000  C
  C32      1.0000 0.39240  0.28010  0.83930  Biso   1.000  C
  C33      1.0000 0.07790  0.95740  0.41440  Biso   1.000  C
  C34      1.0000 0.92210  0.95740  0.08560  Biso   1.000  C
  C35      1.0000 0.92210  0.04260  0.58560  Biso   1.000  C
  C36      1.0000 0.07790  0.04260  0.91440  Biso   1.000  C
  O9       1.0000 0.79098  0.81990  0.27700  Biso   1.000  O
  O10      1.0000 0.20902  0.81990  0.22300  Biso   1.000  O
  O11      1.0000 0.20902  0.18010  0.72300  Biso   1.000  O
  O12      1.0000 0.79098  0.18010  0.77700  Biso   1.000  O
  C37      1.0000 0.21250  0.36500  0.10280  Biso   1.000  C
  C38      1.0000 0.78750  0.36500  0.39720  Biso   1.000  C
  C39      1.0000 0.78750  0.63500  0.89720  Biso   1.000  C
  C40      1.0000 0.21250  0.63500  0.60280  Biso   1.000  C
  H17      1.0000 0.18412  0.40430  0.07871  Biso   1.000  H
  H18      1.0000 0.81588  0.40430  0.42129  Biso   1.000  H
  H19      1.0000 0.81588  0.59570  0.92129  Biso   1.000  H
  H20      1.0000 0.18412  0.59570  0.57871  Biso   1.000  H
  H21      1.0000 0.24512  0.40225  0.08868  Biso   1.000  H
  H22      1.0000 0.75488  0.40225  0.41132  Biso   1.000  H
  H23      1.0000 0.75488  0.59775  0.91132  Biso   1.000  H
  H24      1.0000 0.24512  0.59775  0.58868  Biso   1.000  H
  H25      1.0000 0.21263  0.26797  0.09696  Biso   1.000  H
  H26      1.0000 0.78737  0.26797  0.40304  Biso   1.000  H
  H27      1.0000 0.78737  0.73203  0.90304  Biso   1.000  H
  H28      1.0000 0.21263  0.73203  0.59696  Biso   1.000  H
  C41      1.0000 0.65610  0.99470  0.34970  Biso   1.000  C
  C42      1.0000 0.34390  0.99470  0.15030  Biso   1.000  C
  C43      1.0000 0.34390  0.00530  0.65030  Biso   1.000  C
  C44      1.0000 0.65610  0.00530  0.84970  Biso   1.000  C
  H29      1.0000 0.67520  0.07533  0.35229  Biso   1.000  H
  H30      1.0000 0.32480  0.07533  0.14771  Biso   1.000  H
  H31      1.0000 0.32480  0.92467  0.64771  Biso   1.000  H
  H32      1.0000 0.67520  0.92467  0.85229  Biso   1.000  H
  C45      1.0000 0.85980  0.99970  0.40910  Biso   1.000  C
  C46      1.0000 0.14020  0.99970  0.09090  Biso   1.000  C
  C47      1.0000 0.14020  0.00030  0.59090  Biso   1.000  C
  C48      1.0000 0.85980  0.00030  0.90910  Biso   1.000  C
  H33      1.0000 0.84148  0.08044  0.40227  Biso   1.000  H
  H34      1.0000 0.15852  0.08044  0.09773  Biso   1.000  H
  H35      1.0000 0.15852  0.91956  0.59773  Biso   1.000  H
  H36      1.0000 0.84148  0.91956  0.90227  Biso   1.000  H
  C49      1.0000 0.12970  0.61100  0.45440  Biso   1.000  C
  C50      1.0000 0.87030  0.61100  0.04560  Biso   1.000  C
  C51      1.0000 0.87030  0.38900  0.54560  Biso   1.000  C
  C52      1.0000 0.12970  0.38900  0.95440  Biso   1.000  C
  H37      1.0000 0.10798  0.59847  0.48874  Biso   1.000  H
  H38      1.0000 0.89202  0.59847  0.01126  Biso   1.000  H
  H39      1.0000 0.89202  0.40153  0.51126  Biso   1.000  H
  H40      1.0000 0.10798  0.40153  0.98874  Biso   1.000  H
  C53      1.0000 0.07880  0.81600  0.42080  Biso   1.000  C
  C54      1.0000 0.92120  0.81600  0.07920  Biso   1.000  C
  C55      1.0000 0.92120  0.18400  0.57920  Biso   1.000  C
  C56      1.0000 0.07880  0.18400  0.92080  Biso   1.000  C
  N29      1.0000 0.79043  0.94640  0.27380  Biso   1.000  N
  N30      1.0000 0.20957  0.94640  0.22620  Biso   1.000  N
  N31      1.0000 0.20957  0.05360  0.72620  Biso   1.000  N
  N32      1.0000 0.79043  0.05360  0.77380  Biso   1.000  N
  C57      1.0000 0.51620  0.88380  0.33060  Biso   1.000  C
  C58      1.0000 0.48380  0.88380  0.16940  Biso   1.000  C
  C59      1.0000 0.48380  0.11620  0.66940  Biso   1.000  C
  C60      1.0000 0.51620  0.11620  0.83060  Biso   1.000  C
  C61      1.0000 0.57390  0.88250  0.33490  Biso   1.000  C
  C62      1.0000 0.42610  0.88250  0.16510  Biso   1.000  C
  C63      1.0000 0.42610  0.11750  0.66510  Biso   1.000  C
  C64      1.0000 0.57390  0.11750  0.83490  Biso   1.000  C
  O13      1.0000 0.74363  0.05180  0.45434  Biso   1.000  O
  O14      1.0000 0.25637  0.05180  0.04566  Biso   1.000  O
  O15      1.0000 0.25637  0.94820  0.54566  Biso   1.000  O
  O16      1.0000 0.74363  0.94820  0.95434  Biso   1.000  O
  C65      1.0000 0.94110  0.88730  0.42660  Biso   1.000  C
  C66      1.0000 0.05890  0.88730  0.07340  Biso   1.000  C
  C67      1.0000 0.05890  0.11270  0.57340  Biso   1.000  C
  C68      1.0000 0.94110  0.11270  0.92660  Biso   1.000  C
  C69      1.0000 0.99850  0.88760  0.42610  Biso   1.000  C
  C70      1.0000 0.00150  0.88760  0.07390  Biso   1.000  C
  C71      1.0000 0.00150  0.11240  0.57390  Biso   1.000  C
  C72      1.0000 0.99850  0.11240  0.92610  Biso   1.000  C
  C73      1.0000 0.20880  0.13180  0.42170  Biso   1.000  C
  C74      1.0000 0.79120  0.13180  0.07830  Biso   1.000  C
  C75      1.0000 0.79120  0.86820  0.57830  Biso   1.000  C
  C76      1.0000 0.20880  0.86820  0.92170  Biso   1.000  C
  H41      1.0000 0.24127  0.11899  0.44147  Biso   1.000  H
  H42      1.0000 0.75873  0.11899  0.05853  Biso   1.000  H
  H43      1.0000 0.75873  0.88101  0.55853  Biso   1.000  H
  H44      1.0000 0.24127  0.88101  0.94147  Biso   1.000  H
  O17      1.0000 0.67694  0.00020  0.51260  Biso   1.000  O
  O18      1.0000 0.32306  0.00020  0.98740  Biso   1.000  O
  O19      1.0000 0.32306  0.99980  0.48740  Biso   1.000  O
  O20      1.0000 0.67694  0.99980  0.01260  Biso   1.000  O
  O21      1.0000 0.80839  0.00930  0.22810  Biso   1.000  O
  O22      1.0000 0.19161  0.00930  0.27190  Biso   1.000  O
  O23      1.0000 0.19161  0.99070  0.77190  Biso   1.000  O
  O24      1.0000 0.80839  0.99070  0.72810  Biso   1.000  O
  C77      1.0000 0.12260  0.72160  0.41250  Biso   1.000  C
  C78      1.0000 0.87740  0.72160  0.08750  Biso   1.000  C
  C79      1.0000 0.87740  0.27840  0.58750  Biso   1.000  C
  C80      1.0000 0.12260  0.27840  0.91250  Biso   1.000  C
  N33      1.0000 0.70160  0.08280  0.48090  Biso   1.000  N
  N34      1.0000 0.29840  0.08280  0.01910  Biso   1.000  N
  N35      1.0000 0.29840  0.91720  0.51910  Biso   1.000  N
  N36      1.0000 0.70160  0.91720  0.98090  Biso   1.000  N
  C81      1.0000 0.17025  0.03660  0.43090  Biso   1.000  C
  C82      1.0000 0.82975  0.03660  0.06910  Biso   1.000  C
  C83      1.0000 0.82975  0.96340  0.56910  Biso   1.000  C
  C84      1.0000 0.17025  0.96340  0.93090  Biso   1.000  C
  H45      1.0000 0.17733  0.95911  0.45491  Biso   1.000  H
  H46      1.0000 0.82267  0.95911  0.04509  Biso   1.000  H
  H47      1.0000 0.82267  0.04089  0.54509  Biso   1.000  H
  H48      1.0000 0.17733  0.04089  0.95491  Biso   1.000  H
  C85      1.0000 0.91340  0.00640  0.41700  Biso   1.000  C
  C86      1.0000 0.08660  0.00640  0.08300  Biso   1.000  C
  C87      1.0000 0.08660  0.99360  0.58300  Biso   1.000  C
  C88      1.0000 0.91340  0.99360  0.91700  Biso   1.000  C
  H49      1.0000 0.93059  0.08990  0.41590  Biso   1.000  H
  H50      1.0000 0.06941  0.08990  0.08410  Biso   1.000  H
  H51      1.0000 0.06941  0.91010  0.58410  Biso   1.000  H
  H52      1.0000 0.93059  0.91010  0.91590  Biso   1.000  H
  C89      1.0000 0.85980  0.76900  0.42310  Biso   1.000  C
  C90      1.0000 0.14020  0.76900  0.07690  Biso   1.000  C
  C91      1.0000 0.14020  0.23100  0.57690  Biso   1.000  C
  C92      1.0000 0.85980  0.23100  0.92310  Biso   1.000  C
  H53      1.0000 0.84130  0.68773  0.42675  Biso   1.000  H
  H54      1.0000 0.15870  0.68773  0.07325  Biso   1.000  H
  H55      1.0000 0.15870  0.31227  0.57325  Biso   1.000  H
  H56      1.0000 0.84130  0.31227  0.92675  Biso   1.000  H
  C93      1.0000 0.15580  0.73430  0.36110  Biso   1.000  C
  C94      1.0000 0.84420  0.73430  0.13890  Biso   1.000  C
  C95      1.0000 0.84420  0.26570  0.63890  Biso   1.000  C
  C96      1.0000 0.15580  0.26570  0.86110  Biso   1.000  C
  H57      1.0000 0.15198  0.80669  0.33305  Biso   1.000  H
  H58      1.0000 0.84802  0.80669  0.16695  Biso   1.000  H
  H59      1.0000 0.84802  0.19331  0.66695  Biso   1.000  H
  H60      1.0000 0.15198  0.19331  0.83305  Biso   1.000  H
  C97      1.0000 0.65390  0.76120  0.35070  Biso   1.000  C
  C98      1.0000 0.34610  0.76120  0.14930  Biso   1.000  C
  C99      1.0000 0.34610  0.23880  0.64930  Biso   1.000  C
  C100     1.0000 0.65390  0.23880  0.85070  Biso   1.000  C
  H61      1.0000 0.67165  0.67856  0.35338  Biso   1.000  H
  H62      1.0000 0.32835  0.67856  0.14662  Biso   1.000  H
  H63      1.0000 0.32835  0.32144  0.64662  Biso   1.000  H
  H64      1.0000 0.67165  0.32144  0.85338  Biso   1.000  H
  O25      1.0000 0.68170  0.19910  0.47130  Biso   1.000  O
  O26      1.0000 0.31830  0.19910  0.02870  Biso   1.000  O
  O27      1.0000 0.31830  0.80090  0.52870  Biso   1.000  O
  O28      1.0000 0.68170  0.80090  0.97130  Biso   1.000  O
  C101     1.0000 0.40100  0.16960  0.38190  Biso   1.000  C
  C102     1.0000 0.59900  0.16960  0.11810  Biso   1.000  C
  C103     1.0000 0.59900  0.83040  0.61810  Biso   1.000  C
  C104     1.0000 0.40100  0.83040  0.88190  Biso   1.000  C
  H65      1.0000 0.43349  0.18607  0.40088  Biso   1.000  H
  H66      1.0000 0.56651  0.18607  0.09912  Biso   1.000  H
  H67      1.0000 0.56651  0.81393  0.59912  Biso   1.000  H
  H68      1.0000 0.43349  0.81393  0.90088  Biso   1.000  H
  C105     1.0000 0.91370  0.76480  0.43100  Biso   1.000  C
  C106     1.0000 0.08630  0.76480  0.06900  Biso   1.000  C
  C107     1.0000 0.08630  0.23520  0.56900  Biso   1.000  C
  C108     1.0000 0.91370  0.23520  0.93100  Biso   1.000  C
  H69      1.0000 0.93100  0.68300  0.43887  Biso   1.000  H
  H70      1.0000 0.06900  0.68300  0.06113  Biso   1.000  H
  H71      1.0000 0.06900  0.31700  0.56113  Biso   1.000  H
  H72      1.0000 0.93100  0.31700  0.93887  Biso   1.000  H
  C109     1.0000 0.35650  0.73620  0.38740  Biso   1.000  C
  C110     1.0000 0.64350  0.73620  0.11260  Biso   1.000  C
  C111     1.0000 0.64350  0.26380  0.61260  Biso   1.000  C
  C112     1.0000 0.35650  0.26380  0.88740  Biso   1.000  C
  H73      1.0000 0.35856  0.81137  0.41411  Biso   1.000  H
  H74      1.0000 0.64144  0.81137  0.08589  Biso   1.000  H
  H75      1.0000 0.64144  0.18863  0.58589  Biso   1.000  H
  H76      1.0000 0.35856  0.18863  0.91411  Biso   1.000  H
  C113     1.0000 0.34418  0.03790  0.31550  Biso   1.000  C
  C114     1.0000 0.65582  0.03790  0.18450  Biso   1.000  C
  C115     1.0000 0.65582  0.96210  0.68450  Biso   1.000  C
  C116     1.0000 0.34418  0.96210  0.81550  Biso   1.000  C
  H77      1.0000 0.33726  0.96189  0.29051  Biso   1.000  H
  H78      1.0000 0.66274  0.96189  0.20949  Biso   1.000  H
  H79      1.0000 0.66274  0.03811  0.70949  Biso   1.000  H
  H80      1.0000 0.33726  0.03811  0.79051  Biso   1.000  H
  C117     1.0000 0.11300  0.16980  0.36750  Biso   1.000  C
  C118     1.0000 0.88700  0.16980  0.13250  Biso   1.000  C
  C119     1.0000 0.88700  0.83020  0.63250  Biso   1.000  C
  C120     1.0000 0.11300  0.83020  0.86750  Biso   1.000  C
  H81      1.0000 0.08057  0.18579  0.34831  Biso   1.000  H
  H82      1.0000 0.91943  0.18579  0.15169  Biso   1.000  H
  H83      1.0000 0.91943  0.81421  0.65169  Biso   1.000  H
  H84      1.0000 0.08057  0.81421  0.84831  Biso   1.000  H
  N37      1.0000 0.20630  0.39530  0.16730  Biso   1.000  N
  N38      1.0000 0.79370  0.39530  0.33270  Biso   1.000  N
  N39      1.0000 0.79370  0.60470  0.83270  Biso   1.000  N
  N40      1.0000 0.20630  0.60470  0.66730  Biso   1.000  N
  C121     1.0000 0.23400  0.36400  0.21340  Biso   1.000  C
  C122     1.0000 0.76600  0.36400  0.28660  Biso   1.000  C
  C123     1.0000 0.76600  0.63600  0.78660  Biso   1.000  C
  C124     1.0000 0.23400  0.63600  0.71340  Biso   1.000  C
  H85      1.0000 0.26105  0.30476  0.20314  Biso   1.000  H
  H86      1.0000 0.73895  0.30476  0.29686  Biso   1.000  H
  H87      1.0000 0.73895  0.69524  0.79686  Biso   1.000  H
  H88      1.0000 0.26105  0.69524  0.70314  Biso   1.000  H
  C125     1.0000 0.15340  0.26000  0.35870  Biso   1.000  C
  C126     1.0000 0.84660  0.26000  0.14130  Biso   1.000  C
  C127     1.0000 0.84660  0.74000  0.64130  Biso   1.000  C
  C128     1.0000 0.15340  0.74000  0.85870  Biso   1.000  C
  H89      1.0000 0.14753  0.33627  0.33350  Biso   1.000  H
  H90      1.0000 0.85247  0.33627  0.16650  Biso   1.000  H
  H91      1.0000 0.85247  0.66373  0.66650  Biso   1.000  H
  H92      1.0000 0.14753  0.66373  0.83350  Biso   1.000  H
  N41      1.0000 0.20246  0.53210  0.39180  Biso   1.000  N
  N42      1.0000 0.79754  0.53210  0.10820  Biso   1.000  N
  N43      1.0000 0.79754  0.46790  0.60820  Biso   1.000  N
  N44      1.0000 0.20246  0.46790  0.89180  Biso   1.000  N
  C129     1.0000 0.17020  0.52250  0.44230  Biso   1.000  C
  C130     1.0000 0.82980  0.52250  0.05770  Biso   1.000  C
  C131     1.0000 0.82980  0.47750  0.55770  Biso   1.000  C
  C132     1.0000 0.17020  0.47750  0.94230  Biso   1.000  C
  H93      1.0000 0.17594  0.45117  0.47054  Biso   1.000  H
  H94      1.0000 0.82406  0.45117  0.02946  Biso   1.000  H
  H95      1.0000 0.82406  0.54883  0.52946  Biso   1.000  H
  H96      1.0000 0.17594  0.54883  0.97054  Biso   1.000  H
  C133     1.0000 0.19480  0.63600  0.35250  Biso   1.000  C
  C134     1.0000 0.80520  0.63600  0.14750  Biso   1.000  C
  C135     1.0000 0.80520  0.36400  0.64750  Biso   1.000  C
  C136     1.0000 0.19480  0.36400  0.85250  Biso   1.000  C
  H97      1.0000 0.21643  0.64386  0.31776  Biso   1.000  H
  H98      1.0000 0.78357  0.64386  0.18224  Biso   1.000  H
  H99      1.0000 0.78357  0.35614  0.68224  Biso   1.000  H
  H100     1.0000 0.21643  0.35614  0.81776  Biso   1.000  H
  N45      1.0000 0.31316  0.24260  0.36300  Biso   1.000  N
  N46      1.0000 0.68684  0.24260  0.13700  Biso   1.000  N
  N47      1.0000 0.68684  0.75740  0.63700  Biso   1.000  N
  N48      1.0000 0.31316  0.75740  0.86300  Biso   1.000  N
  C137     1.0000 0.36020  0.25810  0.39110  Biso   1.000  C
  C138     1.0000 0.63980  0.25810  0.10890  Biso   1.000  C
  C139     1.0000 0.63980  0.74190  0.60890  Biso   1.000  C
  C140     1.0000 0.36020  0.74190  0.89110  Biso   1.000  C
  H101     1.0000 0.36542  0.33208  0.41795  Biso   1.000  H
  H102     1.0000 0.63458  0.33208  0.08205  Biso   1.000  H
  H103     1.0000 0.63458  0.66792  0.58205  Biso   1.000  H
  H104     1.0000 0.36542  0.66792  0.91795  Biso   1.000  H
  C141     1.0000 0.30620  0.13400  0.32470  Biso   1.000  C
  C142     1.0000 0.69380  0.13400  0.17530  Biso   1.000  C
  C143     1.0000 0.69380  0.86600  0.67530  Biso   1.000  C
  C144     1.0000 0.30620  0.86600  0.82470  Biso   1.000  C
  H105     1.0000 0.27418  0.12407  0.30355  Biso   1.000  H
  H106     1.0000 0.72582  0.12407  0.19645  Biso   1.000  H
  H107     1.0000 0.72582  0.87593  0.69645  Biso   1.000  H
  H108     1.0000 0.27418  0.87593  0.80355  Biso   1.000  H
  N49      1.0000 0.31158  0.53280  0.35660  Biso   1.000  N
  N50      1.0000 0.68842  0.53280  0.14340  Biso   1.000  N
  N51      1.0000 0.68842  0.46720  0.64340  Biso   1.000  N
  N52      1.0000 0.31158  0.46720  0.85660  Biso   1.000  N
  C145     1.0000 0.34640  0.51780  0.30950  Biso   1.000  C
  C146     1.0000 0.65360  0.51780  0.19050  Biso   1.000  C
  C147     1.0000 0.65360  0.48220  0.69050  Biso   1.000  C
  C148     1.0000 0.34640  0.48220  0.80950  Biso   1.000  C
  H109     1.0000 0.34213  0.44481  0.28187  Biso   1.000  H
  H110     1.0000 0.65787  0.44481  0.21813  Biso   1.000  H
  H111     1.0000 0.65787  0.55519  0.71813  Biso   1.000  H
  H112     1.0000 0.34213  0.55519  0.78187  Biso   1.000  H
  C149     1.0000 0.31780  0.64040  0.39510  Biso   1.000  C
  C150     1.0000 0.68220  0.64040  0.10490  Biso   1.000  C
  C151     1.0000 0.68220  0.35960  0.60490  Biso   1.000  C
  C152     1.0000 0.31780  0.35960  0.89510  Biso   1.000  C
  H113     1.0000 0.29498  0.65057  0.42849  Biso   1.000  H
  H114     1.0000 0.70502  0.65057  0.07151  Biso   1.000  H
  H115     1.0000 0.70502  0.34943  0.57151  Biso   1.000  H
  H116     1.0000 0.29498  0.34943  0.92849  Biso   1.000  H
  O29      1.0000 0.25028  0.29050  0.56611  Biso   1.000  O
  O30      1.0000 0.74972  0.29050  0.93389  Biso   1.000  O
  O31      1.0000 0.74972  0.70950  0.43389  Biso   1.000  O
  O32      1.0000 0.25028  0.70950  0.06611  Biso   1.000  O
  C153     1.0000 0.28270  0.31070  0.52220  Biso   1.000  C
  C154     1.0000 0.71730  0.31070  0.97780  Biso   1.000  C
  C155     1.0000 0.71730  0.68930  0.47780  Biso   1.000  C
  C156     1.0000 0.28270  0.68930  0.02220  Biso   1.000  C
  H117     1.0000 0.31027  0.24934  0.51859  Biso   1.000  H
  H118     1.0000 0.68973  0.24934  0.98141  Biso   1.000  H
  H119     1.0000 0.68973  0.75066  0.48141  Biso   1.000  H
  H120     1.0000 0.31027  0.75066  0.01859  Biso   1.000  H
  O33      1.0000 0.28039  0.40500  0.48421  Biso   1.000  O
  O34      1.0000 0.71961  0.40500  0.01579  Biso   1.000  O
  O35      1.0000 0.71961  0.59500  0.51579  Biso   1.000  O
  O36      1.0000 0.28039  0.59500  0.98421  Biso   1.000  O
  C157     1.0000 0.16300  0.50140  0.18140  Biso   1.000  C
  C158     1.0000 0.83700  0.50140  0.31860  Biso   1.000  C
  C159     1.0000 0.83700  0.49860  0.81860  Biso   1.000  C
  C160     1.0000 0.16300  0.49860  0.68140  Biso   1.000  C
  H121     1.0000 0.14326  0.52023  0.14348  Biso   1.000  H
  H122     1.0000 0.85674  0.52023  0.35652  Biso   1.000  H
  H123     1.0000 0.85674  0.47977  0.85652  Biso   1.000  H
  H124     1.0000 0.14326  0.47977  0.64348  Biso   1.000  H
  H125     1.0000 0.14006  0.46557  0.21285  Biso   1.000  H
  H126     1.0000 0.85994  0.46557  0.28715  Biso   1.000  H
  H127     1.0000 0.85994  0.53443  0.78715  Biso   1.000  H
  H128     1.0000 0.14006  0.53443  0.71285  Biso   1.000  H
  H129     1.0000 0.17890  0.58394  0.19673  Biso   1.000  H
  H130     1.0000 0.82110  0.58394  0.30327  Biso   1.000  H
  H131     1.0000 0.82110  0.41606  0.80327  Biso   1.000  H
  H132     1.0000 0.17890  0.41606  0.69673  Biso   1.000  H
  C161     1.0000 0.14100  0.39300  0.16540  Biso   1.000  C
  C162     1.0000 0.85900  0.39300  0.33460  Biso   1.000  C
  C163     1.0000 0.85900  0.60700  0.83460  Biso   1.000  C
  C164     1.0000 0.14100  0.60700  0.66540  Biso   1.000  C
