data_image0
_cell_length_a       7.4301
_cell_length_b       15.9715
_cell_length_c       17.4521
_cell_angle_alpha    67.997
_cell_angle_beta     85.224
_cell_angle_gamma    79.743

_symmetry_space_group_name_H-M    "P 1"
_symmetry_int_tables_number       1

loop_
  _symmetry_equiv_pos_as_xyz
  'x, y, z'

loop_
  _atom_site_label
  _atom_site_occupancy
  _atom_site_fract_x
  _atom_site_fract_y
  _atom_site_fract_z
  _atom_site_thermal_displace_type
  _atom_site_B_iso_or_equiv
  _atom_site_type_symbol
  Cu1      1.0000 0.65694  0.14503  0.40226  Biso   1.000  Cu
  Cu2      1.0000 0.34306  0.85497  0.59774  Biso   1.000  Cu
  Cu3      1.0000 0.71878  0.41833  0.39227  Biso   1.000  Cu
  Cu4      1.0000 0.28122  0.58167  0.60773  Biso   1.000  Cu
  Cu5      1.0000 0.23747  0.34328  0.19624  Biso   1.000  Cu
  Cu6      1.0000 0.76253  0.65672  0.80376  Biso   1.000  Cu
  P1       1.0000 0.90030  0.28625  0.32150  Biso   1.000  P
  P2       1.0000 0.09970  0.71375  0.67850  Biso   1.000  P
  P3       1.0000 0.37405  0.32040  0.37283  Biso   1.000  P
  P4       1.0000 0.62595  0.67960  0.62717  Biso   1.000  P
  N1       1.0000 0.63250  0.06757  0.52077  Biso   1.000  N
  N2       1.0000 0.36750  0.93243  0.47923  Biso   1.000  N
  N3       1.0000 0.81550  0.04502  0.37698  Biso   1.000  N
  N4       1.0000 0.18450  0.95498  0.62302  Biso   1.000  N
  N5       1.0000 0.21440  0.47491  0.11643  Biso   1.000  N
  N6       1.0000 0.78560  0.52509  0.88357  Biso   1.000  N
  N7       1.0000 0.19460  0.30629  0.10209  Biso   1.000  N
  N8       1.0000 0.80540  0.69371  0.89791  Biso   1.000  N
  N9       1.0000 0.83320  0.93710  0.51433  Biso   1.000  N
  N10      1.0000 0.16680  0.06290  0.48567  Biso   1.000  N
  C1       1.0000 0.81260  0.68090  0.37860  Biso   1.000  C
  C2       1.0000 0.18740  0.31910  0.62140  Biso   1.000  C
  N11      1.0000 0.78380  0.54302  0.35877  Biso   1.000  N
  N12      1.0000 0.21620  0.45698  0.64123  Biso   1.000  N
  N13      1.0000 0.29570  0.43550  0.99911  Biso   1.000  N
  N14      1.0000 0.70430  0.56450  0.00089  Biso   1.000  N
  N15      1.0000 0.78240  0.54600  0.49357  Biso   1.000  N
  N16      1.0000 0.21760  0.45400  0.50643  Biso   1.000  N
  C3       1.0000 0.87140  0.96020  0.43130  Biso   1.000  C
  C4       1.0000 0.12860  0.03980  0.56870  Biso   1.000  C
  N17      1.0000 0.71220  0.40084  0.51078  Biso   1.000  N
  N18      1.0000 0.28780  0.59916  0.48922  Biso   1.000  N
  C5       1.0000 0.52620  0.10770  0.56920  Biso   1.000  C
  C6       1.0000 0.47380  0.89230  0.43080  Biso   1.000  C
  C7       1.0000 0.94910  0.99910  0.26620  Biso   1.000  C
  C8       1.0000 0.05090  0.00090  0.73380  Biso   1.000  C
  C9       1.0000 0.25090  0.49990  0.03530  Biso   1.000  C
  C10      1.0000 0.74910  0.50010  0.96470  Biso   1.000  C
  C11      1.0000 0.79230  0.58830  0.40890  Biso   1.000  C
  C12      1.0000 0.20770  0.41170  0.59110  Biso   1.000  C
  C13      1.0000 0.81030  0.68140  0.24280  Biso   1.000  C
  C14      1.0000 0.18970  0.31860  0.75720  Biso   1.000  C
  C15      1.0000 0.51240  0.06700  0.65350  Biso   1.000  C
  C16      1.0000 0.48760  0.93300  0.34650  Biso   1.000  C
  C17      1.0000 0.73210  0.44110  0.62930  Biso   1.000  C
  C18      1.0000 0.26790  0.55890  0.37070  Biso   1.000  C
  C19      1.0000 0.72330  0.98240  0.55850  Biso   1.000  C
  C20      1.0000 0.27670  0.01760  0.44150  Biso   1.000  C
  C21      1.0000 0.26200  0.34700  0.02560  Biso   1.000  C
  C22      1.0000 0.73800  0.65300  0.97440  Biso   1.000  C
  C23      1.0000 0.85570  0.06250  0.29560  Biso   1.000  C
  C24      1.0000 0.14430  0.93750  0.70440  Biso   1.000  C
  C25      1.0000 0.01090  0.91090  0.32330  Biso   1.000  C
  C26      1.0000 0.98910  0.08910  0.67670  Biso   1.000  C
  C27      1.0000 0.79390  0.59110  0.27580  Biso   1.000  C
  C28      1.0000 0.20610  0.40890  0.72420  Biso   1.000  C
  C29      1.0000 0.70970  0.93590  0.64450  Biso   1.000  C
  C30      1.0000 0.29030  0.06410  0.35550  Biso   1.000  C
  C31      1.0000 0.16740  0.54170  0.14770  Biso   1.000  C
  C32      1.0000 0.83260  0.45830  0.85230  Biso   1.000  C
  C33      1.0000 0.60710  0.97850  0.69130  Biso   1.000  C
  C34      1.0000 0.39290  0.02150  0.30870  Biso   1.000  C
  C35      1.0000 0.65780  0.29510  0.64810  Biso   1.000  C
  C36      1.0000 0.34220  0.70490  0.35190  Biso   1.000  C
  C37      1.0000 0.68810  0.35900  0.68100  Biso   1.000  C
  C38      1.0000 0.31190  0.64100  0.31900  Biso   1.000  C
  C39      1.0000 0.67210  0.31870  0.56470  Biso   1.000  C
  C40      1.0000 0.32790  0.68130  0.43530  Biso   1.000  C
  C41      1.0000 0.74260  0.46130  0.54350  Biso   1.000  C
  C42      1.0000 0.25740  0.53870  0.45650  Biso   1.000  C
  C43      1.0000 0.15130  0.22150  0.12130  Biso   1.000  C
  C44      1.0000 0.84870  0.77850  0.87870  Biso   1.000  C
  C45      1.0000 0.20740  0.65810  0.01790  Biso   1.000  C
  C46      1.0000 0.79260  0.34190  0.98210  Biso   1.000  C
  C47      1.0000 0.30190  0.30080  0.96990  Biso   1.000  C
  C48      1.0000 0.69810  0.69920  0.03010  Biso   1.000  C
  C49      1.0000 0.16270  0.63240  0.10160  Biso   1.000  C
  C50      1.0000 0.83730  0.36760  0.89840  Biso   1.000  C
  C51      1.0000 0.17860  0.17470  0.06960  Biso   1.000  C
  C52      1.0000 0.82140  0.82530  0.93040  Biso   1.000  C
  C53      1.0000 0.81890  0.72750  0.29540  Biso   1.000  C
  C54      1.0000 0.18110  0.27250  0.70460  Biso   1.000  C
  C55      1.0000 0.97270  0.89210  0.40510  Biso   1.000  C
  C56      1.0000 0.02730  0.10790  0.59490  Biso   1.000  C
  C57      1.0000 0.25050  0.59220  0.98410  Biso   1.000  C
  C58      1.0000 0.74950  0.40780  0.01590  Biso   1.000  C
  C59      1.0000 0.25930  0.21500  0.99210  Biso   1.000  C
  C60      1.0000 0.74070  0.78500  0.00790  Biso   1.000  C
  O1       1.0000 0.95260  0.24460  0.41332  Biso   1.000  O
  O2       1.0000 0.04740  0.75540  0.58668  Biso   1.000  O
  O3       1.0000 0.42060  0.21711  0.39664  Biso   1.000  O
  O4       1.0000 0.57940  0.78289  0.60336  Biso   1.000  O
  O5       1.0000 0.33790  0.37326  0.28120  Biso   1.000  O
  O6       1.0000 0.66210  0.62674  0.71880  Biso   1.000  O
  O7       1.0000 0.06160  0.27060  0.26669  Biso   1.000  O
  O8       1.0000 0.93840  0.72940  0.73331  Biso   1.000  O
  O9       1.0000 0.74350  0.24071  0.30921  Biso   1.000  O
  O10      1.0000 0.25650  0.75929  0.69079  Biso   1.000  O
  O11      1.0000 0.83370  0.39072  0.29941  Biso   1.000  O
  O12      1.0000 0.16630  0.60928  0.70059  Biso   1.000  O
  O13      1.0000 0.19020  0.33631  0.42374  Biso   1.000  O
  O14      1.0000 0.80980  0.66369  0.57626  Biso   1.000  O
  O15      1.0000 0.50840  0.35923  0.40588  Biso   1.000  O
  O16      1.0000 0.49160  0.64077  0.59412  Biso   1.000  O
  O17      1.0000 0.51620  0.27600  0.18368  Biso   1.000  O
  O18      1.0000 0.48380  0.72400  0.81632  Biso   1.000  O
  H1       1.0000 0.81000  0.12000  0.26100  Biso   1.000  H
  H2       1.0000 0.19000  0.88000  0.73900  Biso   1.000  H
  H3       1.0000 0.09800  0.19500  0.17500  Biso   1.000  H
  H4       1.0000 0.90200  0.80500  0.82500  Biso   1.000  H
  H5       1.0000 0.13400  0.67200  0.12600  Biso   1.000  H
  H6       1.0000 0.86600  0.32800  0.87400  Biso   1.000  H
  H7       1.0000 0.81800  0.70900  0.41300  Biso   1.000  H
  H8       1.0000 0.18200  0.29100  0.58700  Biso   1.000  H
  H9       1.0000 0.27500  0.60400  0.92900  Biso   1.000  H
  H10      1.0000 0.72500  0.39600  0.07100  Biso   1.000  H
  H11      1.0000 0.33400  0.45500  0.95200  Biso   1.000  H
  H12      1.0000 0.66600  0.54500  0.04800  Biso   1.000  H
  H13      1.0000 0.45800  0.16300  0.54200  Biso   1.000  H
  H14      1.0000 0.54200  0.83700  0.45800  Biso   1.000  H
  H15      1.0000 0.78700  0.56100  0.24200  Biso   1.000  H
  H16      1.0000 0.21300  0.43900  0.75800  Biso   1.000  H
  H17      1.0000 0.20500  0.72100  0.98300  Biso   1.000  H
  H18      1.0000 0.79500  0.27900  0.01700  Biso   1.000  H
  H19      1.0000 0.29300  0.18200  0.95700  Biso   1.000  H
  H20      1.0000 0.70700  0.81800  0.04300  Biso   1.000  H
  H21      1.0000 0.59100  0.95100  0.74300  Biso   1.000  H
  H22      1.0000 0.40900  0.04900  0.25700  Biso   1.000  H
  H23      1.0000 0.97400  0.01200  0.21200  Biso   1.000  H
  H24      1.0000 0.02600  0.98800  0.78800  Biso   1.000  H
  H25      1.0000 0.44100  0.09500  0.68600  Biso   1.000  H
  H26      1.0000 0.55900  0.90500  0.31400  Biso   1.000  H
  H27      1.0000 0.65700  0.27900  0.54300  Biso   1.000  H
  H28      1.0000 0.34300  0.72100  0.45700  Biso   1.000  H
  H29      1.0000 0.14800  0.52200  0.20400  Biso   1.000  H
  H30      1.0000 0.85200  0.47800  0.79600  Biso   1.000  H
  H31      1.0000 0.68100  0.34700  0.73500  Biso   1.000  H
  H32      1.0000 0.31900  0.65300  0.26500  Biso   1.000  H
  H33      1.0000 0.07600  0.86800  0.30700  Biso   1.000  H
  H34      1.0000 0.92400  0.13200  0.69300  Biso   1.000  H
  H35      1.0000 0.01100  0.83600  0.44600  Biso   1.000  H
  H36      1.0000 0.98900  0.16400  0.55400  Biso   1.000  H
  H37      1.0000 0.74600  0.48300  0.64700  Biso   1.000  H
  H38      1.0000 0.25400  0.51700  0.35300  Biso   1.000  H
  H39      1.0000 0.77100  0.88000  0.66400  Biso   1.000  H
  H40      1.0000 0.22900  0.12000  0.33600  Biso   1.000  H
  H41      1.0000 0.57600  0.27100  0.21400  Biso   1.000  H
  H42      1.0000 0.42400  0.72900  0.78600  Biso   1.000  H
  H43      1.0000 0.82500  0.78700  0.27300  Biso   1.000  H
  H44      1.0000 0.17500  0.21300  0.72700  Biso   1.000  H
  H45      1.0000 0.14500  0.12100  0.08400  Biso   1.000  H
  H46      1.0000 0.85500  0.87900  0.91600  Biso   1.000  H
  H47      1.0000 0.54600  0.23300  0.16700  Biso   1.000  H
  H48      1.0000 0.45400  0.76700  0.83300  Biso   1.000  H
  H49      1.0000 0.79000  0.58000  0.51900  Biso   1.000  H
  H50      1.0000 0.21000  0.42000  0.48100  Biso   1.000  H
  H51      1.0000 0.63100  0.24200  0.68200  Biso   1.000  H
  H52      1.0000 0.36900  0.75800  0.31800  Biso   1.000  H
  H53      1.0000 0.87700  0.89200  0.53800  Biso   1.000  H
  H54      1.0000 0.12300  0.10800  0.46200  Biso   1.000  H
  H55      1.0000 0.11500  0.30700  0.42000  Biso   1.000  H
  H56      1.0000 0.88500  0.69300  0.58000  Biso   1.000  H
  H57      1.0000 0.34900  0.33400  0.91900  Biso   1.000  H
  H58      1.0000 0.65100  0.66600  0.08100  Biso   1.000  H
  H59      1.0000 0.81900  0.70800  0.18600  Biso   1.000  H
  H60      1.0000 0.18100  0.29200  0.81400  Biso   1.000  H
  P5       1.0000 0.74670  0.12057  0.88873  Biso   1.000  P
  P6       1.0000 0.25330  0.87943  0.11127  Biso   1.000  P
  F1       1.0000 0.88830  0.17914  0.82558  Biso   1.000  F
  F2       1.0000 0.11170  0.82086  0.17442  Biso   1.000  F
  F3       1.0000 0.90590  0.03377  0.91763  Biso   1.000  F
  F4       1.0000 0.09410  0.96623  0.08237  Biso   1.000  F
  F5       1.0000 0.60500  0.06223  0.95136  Biso   1.000  F
  F6       1.0000 0.39500  0.93777  0.04864  Biso   1.000  F
  F7       1.0000 0.80110  0.15205  0.95929  Biso   1.000  F
  F8       1.0000 0.19890  0.84795  0.04071  Biso   1.000  F
  F9       1.0000 0.69210  0.08840  0.81827  Biso   1.000  F
  F10      1.0000 0.30790  0.91160  0.18173  Biso   1.000  F
  F11      1.0000 0.58890  0.20768  0.85903  Biso   1.000  F
  F12      1.0000 0.41110  0.79232  0.14097  Biso   1.000  F
  O19      1.0000 0.39330  0.51523  0.82825  Biso   1.000  O
  O20      1.0000 0.60670  0.48477  0.17175  Biso   1.000  O
  H61      1.0000 0.31000  0.54600  0.79900  Biso   1.000  H
  H62      1.0000 0.69000  0.45400  0.20100  Biso   1.000  H
  H63      1.0000 0.48100  0.53500  0.81000  Biso   1.000  H
  H64      1.0000 0.51900  0.46500  0.19000  Biso   1.000  H
  O21      1.0000 0.63440  0.13610  0.12170  Biso   1.000  O
  O22      1.0000 0.36560  0.86390  0.87830  Biso   1.000  O
  H65      1.0000 0.64500  0.08000  0.13600  Biso   1.000  H
  H66      1.0000 0.35500  0.92000  0.86400  Biso   1.000  H
  H67      1.0000 0.64500  0.15200  0.07600  Biso   1.000  H
  H68      1.0000 0.35500  0.84800  0.92400  Biso   1.000  H
  O23      1.0000 0.70900  0.94910  0.14310  Biso   1.000  O
  O24      1.0000 0.29100  0.05090  0.85690  Biso   1.000  O
  H69      1.0000 0.60700  0.94700  0.11300  Biso   1.000  H
  H70      1.0000 0.39300  0.05300  0.88700  Biso   1.000  H
  H71      1.0000 0.81600  0.94800  0.11000  Biso   1.000  H
  H72      1.0000 0.18400  0.05200  0.89000  Biso   1.000  H
