data_image0
_cell_length_a       20.6493
_cell_length_b       11.1426
_cell_length_c       13.6592
_cell_angle_alpha    90
_cell_angle_beta     90
_cell_angle_gamma    90

_symmetry_space_group_name_H-M    "P 1"
_symmetry_int_tables_number       1

loop_
  _symmetry_equiv_pos_as_xyz
  'x, y, z'

loop_
  _atom_site_label
  _atom_site_occupancy
  _atom_site_fract_x
  _atom_site_fract_y
  _atom_site_fract_z
  _atom_site_thermal_displace_type
  _atom_site_B_iso_or_equiv
  _atom_site_type_symbol
  Cu1      1.0000 0.50000  0.50000  0.50000  Biso   1.000  Cu
  Cu2      1.0000 0.00000  0.00000  0.00000  Biso   1.000  Cu
  Cu3      1.0000 0.00000  0.00000  0.50000  Biso   1.000  Cu
  Cu4      1.0000 0.50000  0.50000  0.00000  Biso   1.000  Cu
  N1       1.0000 0.62340  0.39450  0.56960  Biso   1.000  N
  N2       1.0000 0.87660  0.10550  0.06960  Biso   1.000  N
  N3       1.0000 0.12340  0.10550  0.43040  Biso   1.000  N
  N4       1.0000 0.37660  0.39450  0.93040  Biso   1.000  N
  N5       1.0000 0.37660  0.60550  0.43040  Biso   1.000  N
  N6       1.0000 0.12340  0.89450  0.93040  Biso   1.000  N
  N7       1.0000 0.87660  0.89450  0.56960  Biso   1.000  N
  N8       1.0000 0.62340  0.60550  0.06960  Biso   1.000  N
  H1       1.0000 0.60210  0.35990  0.61760  Biso   1.000  H
  H2       1.0000 0.89790  0.14010  0.11760  Biso   1.000  H
  H3       1.0000 0.10210  0.14010  0.38240  Biso   1.000  H
  H4       1.0000 0.39790  0.35990  0.88240  Biso   1.000  H
  H5       1.0000 0.39790  0.64010  0.38240  Biso   1.000  H
  H6       1.0000 0.10210  0.85990  0.88240  Biso   1.000  H
  H7       1.0000 0.89790  0.85990  0.61760  Biso   1.000  H
  H8       1.0000 0.60210  0.64010  0.11760  Biso   1.000  H
  N9       1.0000 0.59620  0.46810  0.50170  Biso   1.000  N
  N10      1.0000 0.90380  0.03190  0.00170  Biso   1.000  N
  N11      1.0000 0.09620  0.03190  0.49830  Biso   1.000  N
  N12      1.0000 0.40380  0.46810  0.99830  Biso   1.000  N
  N13      1.0000 0.40380  0.53190  0.49830  Biso   1.000  N
  N14      1.0000 0.09620  0.96810  0.99830  Biso   1.000  N
  N15      1.0000 0.90380  0.96810  0.50170  Biso   1.000  N
  N16      1.0000 0.59620  0.53190  0.00170  Biso   1.000  N
  C1       1.0000 0.64380  0.49870  0.44180  Biso   1.000  C
  C2       1.0000 0.85620  0.00130  0.94180  Biso   1.000  C
  C3       1.0000 0.14380  0.00130  0.55820  Biso   1.000  C
  C4       1.0000 0.35620  0.49870  0.05820  Biso   1.000  C
  C5       1.0000 0.35620  0.50130  0.55820  Biso   1.000  C
  C6       1.0000 0.14380  0.99870  0.05820  Biso   1.000  C
  C7       1.0000 0.85620  0.99870  0.44180  Biso   1.000  C
  C8       1.0000 0.64380  0.50130  0.94180  Biso   1.000  C
  H9       1.0000 0.63890  0.54870  0.38590  Biso   1.000  H
  H10      1.0000 0.86110  0.95130  0.88590  Biso   1.000  H
  H11      1.0000 0.13890  0.95130  0.61410  Biso   1.000  H
  H12      1.0000 0.36110  0.54870  0.11410  Biso   1.000  H
  H13      1.0000 0.36110  0.45130  0.61410  Biso   1.000  H
  H14      1.0000 0.13890  0.04870  0.11410  Biso   1.000  H
  H15      1.0000 0.86110  0.04870  0.38590  Biso   1.000  H
  H16      1.0000 0.63890  0.45130  0.88590  Biso   1.000  H
  C9       1.0000 0.70200  0.44780  0.47170  Biso   1.000  C
  C10      1.0000 0.79800  0.05220  0.97170  Biso   1.000  C
  C11      1.0000 0.20200  0.05220  0.52830  Biso   1.000  C
  C12      1.0000 0.29800  0.44780  0.02830  Biso   1.000  C
  C13      1.0000 0.29800  0.55220  0.52830  Biso   1.000  C
  C14      1.0000 0.20200  0.94780  0.02830  Biso   1.000  C
  C15      1.0000 0.79800  0.94780  0.47170  Biso   1.000  C
  C16      1.0000 0.70200  0.55220  0.97170  Biso   1.000  C
  H17      1.0000 0.74330  0.45690  0.44190  Biso   1.000  H
  H18      1.0000 0.75670  0.04310  0.94190  Biso   1.000  H
  H19      1.0000 0.24330  0.04310  0.55810  Biso   1.000  H
  H20      1.0000 0.25670  0.45690  0.05810  Biso   1.000  H
  H21      1.0000 0.25670  0.54310  0.55810  Biso   1.000  H
  H22      1.0000 0.24330  0.95690  0.05810  Biso   1.000  H
  H23      1.0000 0.75670  0.95690  0.44190  Biso   1.000  H
  H24      1.0000 0.74330  0.54310  0.94190  Biso   1.000  H
  C17      1.0000 0.68710  0.38160  0.55370  Biso   1.000  C
  C18      1.0000 0.81290  0.11840  0.05370  Biso   1.000  C
  C19      1.0000 0.18710  0.11840  0.44630  Biso   1.000  C
  C20      1.0000 0.31290  0.38160  0.94630  Biso   1.000  C
  C21      1.0000 0.31290  0.61840  0.44630  Biso   1.000  C
  C22      1.0000 0.18710  0.88160  0.94630  Biso   1.000  C
  C23      1.0000 0.81290  0.88160  0.55370  Biso   1.000  C
  C24      1.0000 0.68710  0.61840  0.05370  Biso   1.000  C
  C25      1.0000 0.72670  0.29900  0.61100  Biso   1.000  C
  C26      1.0000 0.77330  0.20100  0.11100  Biso   1.000  C
  C27      1.0000 0.22670  0.20100  0.38900  Biso   1.000  C
  C28      1.0000 0.27330  0.29900  0.88900  Biso   1.000  C
  C29      1.0000 0.27330  0.70100  0.38900  Biso   1.000  C
  C30      1.0000 0.22670  0.79900  0.88900  Biso   1.000  C
  C31      1.0000 0.77330  0.79900  0.61100  Biso   1.000  C
  C32      1.0000 0.72670  0.70100  0.11100  Biso   1.000  C
  C33      1.0000 0.71180  0.24100  0.69430  Biso   1.000  C
  C34      1.0000 0.78820  0.25900  0.19430  Biso   1.000  C
  C35      1.0000 0.21180  0.25900  0.30570  Biso   1.000  C
  C36      1.0000 0.28820  0.24100  0.80570  Biso   1.000  C
  C37      1.0000 0.28820  0.75900  0.30570  Biso   1.000  C
  C38      1.0000 0.21180  0.74100  0.80570  Biso   1.000  C
  C39      1.0000 0.78820  0.74100  0.69430  Biso   1.000  C
  C40      1.0000 0.71180  0.75900  0.19430  Biso   1.000  C
  H25      1.0000 0.67190  0.25250  0.72780  Biso   1.000  H
  H26      1.0000 0.82810  0.24750  0.22780  Biso   1.000  H
  H27      1.0000 0.17190  0.24750  0.27220  Biso   1.000  H
  H28      1.0000 0.32810  0.25250  0.77220  Biso   1.000  H
  H29      1.0000 0.32810  0.74750  0.27220  Biso   1.000  H
  H30      1.0000 0.17190  0.75250  0.77220  Biso   1.000  H
  H31      1.0000 0.82810  0.75250  0.72780  Biso   1.000  H
  H32      1.0000 0.67190  0.74750  0.22780  Biso   1.000  H
  C41      1.0000 0.76100  0.16170  0.72790  Biso   1.000  C
  C42      1.0000 0.73900  0.33830  0.22790  Biso   1.000  C
  C43      1.0000 0.26100  0.33830  0.27210  Biso   1.000  C
  C44      1.0000 0.23900  0.16170  0.77210  Biso   1.000  C
  C45      1.0000 0.23900  0.83830  0.27210  Biso   1.000  C
  C46      1.0000 0.26100  0.66170  0.77210  Biso   1.000  C
  C47      1.0000 0.73900  0.66170  0.72790  Biso   1.000  C
  C48      1.0000 0.76100  0.83830  0.22790  Biso   1.000  C
  H33      1.0000 0.75720  0.11310  0.78470  Biso   1.000  H
  H34      1.0000 0.74280  0.38690  0.28470  Biso   1.000  H
  H35      1.0000 0.25720  0.38690  0.21530  Biso   1.000  H
  H36      1.0000 0.24280  0.11310  0.71530  Biso   1.000  H
  H37      1.0000 0.24280  0.88690  0.21530  Biso   1.000  H
  H38      1.0000 0.25720  0.61310  0.71530  Biso   1.000  H
  H39      1.0000 0.74280  0.61310  0.78470  Biso   1.000  H
  H40      1.0000 0.75720  0.88690  0.28470  Biso   1.000  H
  C49      1.0000 0.81350  0.16340  0.66960  Biso   1.000  C
  C50      1.0000 0.68650  0.33660  0.16960  Biso   1.000  C
  C51      1.0000 0.31350  0.33660  0.33040  Biso   1.000  C
  C52      1.0000 0.18650  0.16340  0.83040  Biso   1.000  C
  C53      1.0000 0.18650  0.83660  0.33040  Biso   1.000  C
  C54      1.0000 0.31350  0.66340  0.83040  Biso   1.000  C
  C55      1.0000 0.68650  0.66340  0.66960  Biso   1.000  C
  C56      1.0000 0.81350  0.83660  0.16960  Biso   1.000  C
  H41      1.0000 0.85130  0.11670  0.68000  Biso   1.000  H
  H42      1.0000 0.64870  0.38330  0.18000  Biso   1.000  H
  H43      1.0000 0.35130  0.38330  0.32000  Biso   1.000  H
  H44      1.0000 0.14870  0.11670  0.82000  Biso   1.000  H
  H45      1.0000 0.14870  0.88330  0.32000  Biso   1.000  H
  H46      1.0000 0.35130  0.61670  0.82000  Biso   1.000  H
  H47      1.0000 0.64870  0.61670  0.68000  Biso   1.000  H
  H48      1.0000 0.85130  0.88330  0.18000  Biso   1.000  H
  S1       1.0000 0.80282  0.26210  0.57320  Biso   1.000  S
  S2       1.0000 0.69718  0.23790  0.07320  Biso   1.000  S
  S3       1.0000 0.30282  0.23790  0.42680  Biso   1.000  S
  S4       1.0000 0.19718  0.26210  0.92680  Biso   1.000  S
  S5       1.0000 0.19718  0.73790  0.42680  Biso   1.000  S
  S6       1.0000 0.30282  0.76210  0.92680  Biso   1.000  S
  S7       1.0000 0.69718  0.76210  0.57320  Biso   1.000  S
  S8       1.0000 0.80282  0.73790  0.07320  Biso   1.000  S
  N17      1.0000 0.45450  0.24860  0.54550  Biso   1.000  N
  N18      1.0000 0.04550  0.25140  0.04550  Biso   1.000  N
  N19      1.0000 0.95450  0.25140  0.45450  Biso   1.000  N
  N20      1.0000 0.54550  0.24860  0.95450  Biso   1.000  N
  N21      1.0000 0.54550  0.75140  0.45450  Biso   1.000  N
  N22      1.0000 0.95450  0.74860  0.95450  Biso   1.000  N
  N23      1.0000 0.04550  0.74860  0.54550  Biso   1.000  N
  N24      1.0000 0.45450  0.75140  0.04550  Biso   1.000  N
  H49      1.0000 0.44470  0.26930  0.60590  Biso   1.000  H
  H50      1.0000 0.05530  0.23070  0.10590  Biso   1.000  H
  H51      1.0000 0.94470  0.23070  0.39410  Biso   1.000  H
  H52      1.0000 0.55530  0.26930  0.89410  Biso   1.000  H
  H53      1.0000 0.55530  0.73070  0.39410  Biso   1.000  H
  H54      1.0000 0.94470  0.76930  0.89410  Biso   1.000  H
  H55      1.0000 0.05530  0.76930  0.60590  Biso   1.000  H
  H56      1.0000 0.44470  0.73070  0.10590  Biso   1.000  H
  N25      1.0000 0.48370  0.32220  0.48020  Biso   1.000  N
  N26      1.0000 0.01630  0.17780  0.98020  Biso   1.000  N
  N27      1.0000 0.98370  0.17780  0.51980  Biso   1.000  N
  N28      1.0000 0.51630  0.32220  0.01980  Biso   1.000  N
  N29      1.0000 0.51630  0.67780  0.51980  Biso   1.000  N
  N30      1.0000 0.98370  0.82220  0.01980  Biso   1.000  N
  N31      1.0000 0.01630  0.82220  0.48020  Biso   1.000  N
  N32      1.0000 0.48370  0.67780  0.98020  Biso   1.000  N
  C57      1.0000 0.48940  0.25850  0.39930  Biso   1.000  C
  C58      1.0000 0.01060  0.24150  0.89930  Biso   1.000  C
  C59      1.0000 0.98940  0.24150  0.60070  Biso   1.000  C
  C60      1.0000 0.51060  0.25850  0.10070  Biso   1.000  C
  C61      1.0000 0.51060  0.74150  0.60070  Biso   1.000  C
  C62      1.0000 0.98940  0.75850  0.10070  Biso   1.000  C
  C63      1.0000 0.01060  0.75850  0.39930  Biso   1.000  C
  C64      1.0000 0.48940  0.74150  0.89930  Biso   1.000  C
  H57      1.0000 0.50850  0.28740  0.34050  Biso   1.000  H
  H58      1.0000 0.99150  0.21260  0.84050  Biso   1.000  H
  H59      1.0000 0.00850  0.21260  0.65950  Biso   1.000  H
  H60      1.0000 0.49150  0.28740  0.15950  Biso   1.000  H
  H61      1.0000 0.49150  0.71260  0.65950  Biso   1.000  H
  H62      1.0000 0.00850  0.78740  0.15950  Biso   1.000  H
  H63      1.0000 0.99150  0.78740  0.34050  Biso   1.000  H
  H64      1.0000 0.50850  0.71260  0.84050  Biso   1.000  H
  C65      1.0000 0.46390  0.14320  0.41110  Biso   1.000  C
  C66      1.0000 0.03610  0.35680  0.91110  Biso   1.000  C
  C67      1.0000 0.96390  0.35680  0.58890  Biso   1.000  C
  C68      1.0000 0.53610  0.14320  0.08890  Biso   1.000  C
  C69      1.0000 0.53610  0.85680  0.58890  Biso   1.000  C
  C70      1.0000 0.96390  0.64320  0.08890  Biso   1.000  C
  C71      1.0000 0.03610  0.64320  0.41110  Biso   1.000  C
  C72      1.0000 0.46390  0.85680  0.91110  Biso   1.000  C
  H65      1.0000 0.46200  0.08090  0.36370  Biso   1.000  H
  H66      1.0000 0.03800  0.41910  0.86370  Biso   1.000  H
  H67      1.0000 0.96200  0.41910  0.63630  Biso   1.000  H
  H68      1.0000 0.53800  0.08090  0.13630  Biso   1.000  H
  H69      1.0000 0.53800  0.91910  0.63630  Biso   1.000  H
  H70      1.0000 0.96200  0.58090  0.13630  Biso   1.000  H
  H71      1.0000 0.03800  0.58090  0.36370  Biso   1.000  H
  H72      1.0000 0.46200  0.91910  0.86370  Biso   1.000  H
  C73      1.0000 0.44210  0.13960  0.50680  Biso   1.000  C
  C74      1.0000 0.05790  0.36040  0.00680  Biso   1.000  C
  C75      1.0000 0.94210  0.36040  0.49320  Biso   1.000  C
  C76      1.0000 0.55790  0.13960  0.99320  Biso   1.000  C
  C77      1.0000 0.55790  0.86040  0.49320  Biso   1.000  C
  C78      1.0000 0.94210  0.63960  0.99320  Biso   1.000  C
  C79      1.0000 0.05790  0.63960  0.50680  Biso   1.000  C
  C80      1.0000 0.44210  0.86040  0.00680  Biso   1.000  C
  C81      1.0000 0.40910  0.04530  0.56050  Biso   1.000  C
  C82      1.0000 0.09090  0.45470  0.06050  Biso   1.000  C
  C83      1.0000 0.90910  0.45470  0.43950  Biso   1.000  C
  C84      1.0000 0.59090  0.04530  0.93950  Biso   1.000  C
  C85      1.0000 0.59090  0.95470  0.43950  Biso   1.000  C
  C86      1.0000 0.90910  0.54530  0.93950  Biso   1.000  C
  C87      1.0000 0.09090  0.54530  0.56050  Biso   1.000  C
  C88      1.0000 0.40910  0.95470  0.06050  Biso   1.000  C
  C89      1.0000 0.39750  0.03870  0.66160  Biso   1.000  C
  C90      1.0000 0.10250  0.46130  0.16160  Biso   1.000  C
  C91      1.0000 0.89750  0.46130  0.33840  Biso   1.000  C
  C92      1.0000 0.60250  0.03870  0.83840  Biso   1.000  C
  C93      1.0000 0.60250  0.96130  0.33840  Biso   1.000  C
  C94      1.0000 0.89750  0.53870  0.83840  Biso   1.000  C
  C95      1.0000 0.10250  0.53870  0.66160  Biso   1.000  C
  C96      1.0000 0.39750  0.96130  0.16160  Biso   1.000  C
  H73      1.0000 0.41130  0.09670  0.70810  Biso   1.000  H
  H74      1.0000 0.08870  0.40330  0.20810  Biso   1.000  H
  H75      1.0000 0.91130  0.40330  0.29190  Biso   1.000  H
  H76      1.0000 0.58870  0.09670  0.79190  Biso   1.000  H
  H77      1.0000 0.58870  0.90330  0.29190  Biso   1.000  H
  H78      1.0000 0.91130  0.59670  0.79190  Biso   1.000  H
  H79      1.0000 0.08870  0.59670  0.70810  Biso   1.000  H
  H80      1.0000 0.41130  0.90330  0.20810  Biso   1.000  H
  C97      1.0000 0.36230  0.93330  0.68450  Biso   1.000  C
  C98      1.0000 0.13770  0.56670  0.18450  Biso   1.000  C
  C99      1.0000 0.86230  0.56670  0.31550  Biso   1.000  C
  C100     1.0000 0.63770  0.93330  0.81550  Biso   1.000  C
  C101     1.0000 0.63770  0.06670  0.31550  Biso   1.000  C
  C102     1.0000 0.86230  0.43330  0.81550  Biso   1.000  C
  C103     1.0000 0.13770  0.43330  0.68450  Biso   1.000  C
  C104     1.0000 0.36230  0.06670  0.18450  Biso   1.000  C
  H81      1.0000 0.34890  0.91380  0.74910  Biso   1.000  H
  H82      1.0000 0.15110  0.58620  0.24910  Biso   1.000  H
  H83      1.0000 0.84890  0.58620  0.25090  Biso   1.000  H
  H84      1.0000 0.65110  0.91380  0.75090  Biso   1.000  H
  H85      1.0000 0.65110  0.08620  0.25090  Biso   1.000  H
  H86      1.0000 0.84890  0.41380  0.75090  Biso   1.000  H
  H87      1.0000 0.15110  0.41380  0.74910  Biso   1.000  H
  H88      1.0000 0.34890  0.08620  0.24910  Biso   1.000  H
  C105     1.0000 0.34930  0.86260  0.60600  Biso   1.000  C
  C106     1.0000 0.15070  0.63740  0.10600  Biso   1.000  C
  C107     1.0000 0.84930  0.63740  0.39400  Biso   1.000  C
  C108     1.0000 0.65070  0.86260  0.89400  Biso   1.000  C
  C109     1.0000 0.65070  0.13740  0.39400  Biso   1.000  C
  C110     1.0000 0.84930  0.36260  0.89400  Biso   1.000  C
  C111     1.0000 0.15070  0.36260  0.60600  Biso   1.000  C
  C112     1.0000 0.34930  0.13740  0.10600  Biso   1.000  C
  H89      1.0000 0.32700  0.78810  0.60990  Biso   1.000  H
  H90      1.0000 0.17300  0.71190  0.10990  Biso   1.000  H
  H91      1.0000 0.82700  0.71190  0.39010  Biso   1.000  H
  H92      1.0000 0.67300  0.78810  0.89010  Biso   1.000  H
  H93      1.0000 0.67300  0.21190  0.39010  Biso   1.000  H
  H94      1.0000 0.82700  0.28810  0.89010  Biso   1.000  H
  H95      1.0000 0.17300  0.28810  0.60990  Biso   1.000  H
  H96      1.0000 0.32700  0.21190  0.10990  Biso   1.000  H
  S9       1.0000 0.37765  0.92318  0.49951  Biso   1.000  S
  S10      1.0000 0.12235  0.57682  0.99951  Biso   1.000  S
  S11      1.0000 0.87765  0.57682  0.50049  Biso   1.000  S
  S12      1.0000 0.62235  0.92318  0.00049  Biso   1.000  S
  S13      1.0000 0.62235  0.07682  0.50049  Biso   1.000  S
  S14      1.0000 0.87765  0.42318  0.00049  Biso   1.000  S
  S15      1.0000 0.12235  0.42318  0.49951  Biso   1.000  S
  S16      1.0000 0.37765  0.07682  0.99951  Biso   1.000  S
  S17      1.0000 0.50000  0.40178  0.75000  Biso   1.000  S
  S18      1.0000 0.00000  0.09822  0.25000  Biso   1.000  S
  S19      1.0000 0.50000  0.59822  0.25000  Biso   1.000  S
  S20      1.0000 0.00000  0.90178  0.75000  Biso   1.000  S
  O1       1.0000 0.50180  0.47730  0.66240  Biso   1.000  O
  O2       1.0000 0.99820  0.02270  0.16240  Biso   1.000  O
  O3       1.0000 0.00180  0.02270  0.33760  Biso   1.000  O
  O4       1.0000 0.49820  0.47730  0.83760  Biso   1.000  O
  O5       1.0000 0.49820  0.52270  0.33760  Biso   1.000  O
  O6       1.0000 0.00180  0.97730  0.83760  Biso   1.000  O
  O7       1.0000 0.99820  0.97730  0.66240  Biso   1.000  O
  O8       1.0000 0.50180  0.52270  0.16240  Biso   1.000  O
  O9       1.0000 0.55845  0.32430  0.75230  Biso   1.000  O
  O10      1.0000 0.94155  0.17570  0.25230  Biso   1.000  O
  O11      1.0000 0.05845  0.17570  0.24770  Biso   1.000  O
  O12      1.0000 0.44155  0.32430  0.74770  Biso   1.000  O
  O13      1.0000 0.44155  0.67570  0.24770  Biso   1.000  O
  O14      1.0000 0.05845  0.82430  0.74770  Biso   1.000  O
  O15      1.0000 0.94155  0.82430  0.75230  Biso   1.000  O
  O16      1.0000 0.55845  0.67570  0.25230  Biso   1.000  O
  C113     1.0000 0.73000  0.31000  0.61200  Biso   1.000  C
  C114     1.0000 0.77000  0.19000  0.11200  Biso   1.000  C
  C115     1.0000 0.23000  0.19000  0.38800  Biso   1.000  C
  C116     1.0000 0.27000  0.31000  0.88800  Biso   1.000  C
  C117     1.0000 0.27000  0.69000  0.38800  Biso   1.000  C
  C118     1.0000 0.23000  0.81000  0.88800  Biso   1.000  C
  C119     1.0000 0.77000  0.81000  0.61200  Biso   1.000  C
  C120     1.0000 0.73000  0.69000  0.11200  Biso   1.000  C
  C121     1.0000 0.78600  0.26600  0.57800  Biso   1.000  C
  C122     1.0000 0.71400  0.23400  0.07800  Biso   1.000  C
  C123     1.0000 0.28600  0.23400  0.42200  Biso   1.000  C
  C124     1.0000 0.21400  0.26600  0.92200  Biso   1.000  C
  C125     1.0000 0.21400  0.73400  0.42200  Biso   1.000  C
  C126     1.0000 0.28600  0.76600  0.92200  Biso   1.000  C
  C127     1.0000 0.71400  0.76600  0.57800  Biso   1.000  C
  C128     1.0000 0.78600  0.73400  0.07800  Biso   1.000  C
  H97      1.0000 0.80340  0.28880  0.51650  Biso   1.000  H
  H98      1.0000 0.69660  0.21120  0.01650  Biso   1.000  H
  H99      1.0000 0.30340  0.21120  0.48350  Biso   1.000  H
  H100     1.0000 0.19660  0.28880  0.98350  Biso   1.000  H
  H101     1.0000 0.19660  0.71120  0.48350  Biso   1.000  H
  H102     1.0000 0.30340  0.78880  0.98350  Biso   1.000  H
  H103     1.0000 0.69660  0.78880  0.51650  Biso   1.000  H
  H104     1.0000 0.80340  0.71120  0.01650  Biso   1.000  H
  C129     1.0000 0.81710  0.18200  0.64100  Biso   1.000  C
  C130     1.0000 0.68290  0.31800  0.14100  Biso   1.000  C
  C131     1.0000 0.31710  0.31800  0.35900  Biso   1.000  C
  C132     1.0000 0.18290  0.18200  0.85900  Biso   1.000  C
  C133     1.0000 0.18290  0.81800  0.35900  Biso   1.000  C
  C134     1.0000 0.31710  0.68200  0.85900  Biso   1.000  C
  C135     1.0000 0.68290  0.68200  0.64100  Biso   1.000  C
  C136     1.0000 0.81710  0.81800  0.14100  Biso   1.000  C
  H105     1.0000 0.85850  0.14830  0.62920  Biso   1.000  H
  H106     1.0000 0.64150  0.35170  0.12920  Biso   1.000  H
  H107     1.0000 0.35850  0.35170  0.37080  Biso   1.000  H
  H108     1.0000 0.14150  0.14830  0.87080  Biso   1.000  H
  H109     1.0000 0.14150  0.85170  0.37080  Biso   1.000  H
  H110     1.0000 0.35850  0.64830  0.87080  Biso   1.000  H
  H111     1.0000 0.64150  0.64830  0.62920  Biso   1.000  H
  H112     1.0000 0.85850  0.85170  0.12920  Biso   1.000  H
  C137     1.0000 0.78100  0.15700  0.72000  Biso   1.000  C
  C138     1.0000 0.71900  0.34300  0.22000  Biso   1.000  C
  C139     1.0000 0.28100  0.34300  0.28000  Biso   1.000  C
  C140     1.0000 0.21900  0.15700  0.78000  Biso   1.000  C
  C141     1.0000 0.21900  0.84300  0.28000  Biso   1.000  C
  C142     1.0000 0.28100  0.65700  0.78000  Biso   1.000  C
  C143     1.0000 0.71900  0.65700  0.72000  Biso   1.000  C
  C144     1.0000 0.78100  0.84300  0.22000  Biso   1.000  C
  H113     1.0000 0.79250  0.10110  0.76970  Biso   1.000  H
  H114     1.0000 0.70750  0.39890  0.26970  Biso   1.000  H
  H115     1.0000 0.29250  0.39890  0.23030  Biso   1.000  H
  H116     1.0000 0.20750  0.10110  0.73030  Biso   1.000  H
  H117     1.0000 0.20750  0.89890  0.23030  Biso   1.000  H
  H118     1.0000 0.29250  0.60110  0.73030  Biso   1.000  H
  H119     1.0000 0.70750  0.60110  0.76970  Biso   1.000  H
  H120     1.0000 0.79250  0.89890  0.26970  Biso   1.000  H
  S21      1.0000 0.70980  0.24100  0.71910  Biso   1.000  S
  S22      1.0000 0.79020  0.25900  0.21910  Biso   1.000  S
  S23      1.0000 0.20980  0.25900  0.28090  Biso   1.000  S
  S24      1.0000 0.29020  0.24100  0.78090  Biso   1.000  S
  S25      1.0000 0.29020  0.75900  0.28090  Biso   1.000  S
  S26      1.0000 0.20980  0.74100  0.78090  Biso   1.000  S
  S27      1.0000 0.79020  0.74100  0.71910  Biso   1.000  S
  S28      1.0000 0.70980  0.75900  0.21910  Biso   1.000  S
