data_image0
_cell_length_a       10.559
_cell_length_b       8.715
_cell_length_c       11.217
_cell_angle_alpha    90
_cell_angle_beta     111.85
_cell_angle_gamma    90

_symmetry_space_group_name_H-M    "P 1"
_symmetry_int_tables_number       1

loop_
  _symmetry_equiv_pos_as_xyz
  'x, y, z'

loop_
  _atom_site_label
  _atom_site_occupancy
  _atom_site_fract_x
  _atom_site_fract_y
  _atom_site_fract_z
  _atom_site_thermal_displace_type
  _atom_site_B_iso_or_equiv
  _atom_site_type_symbol
  Cu1      1.0000 0.69238  0.49258  0.42077  Biso   1.000  Cu
  Cu2      1.0000 0.30762  0.99258  0.07923  Biso   1.000  Cu
  Cu3      1.0000 0.30762  0.50742  0.57923  Biso   1.000  Cu
  Cu4      1.0000 0.69238  0.00742  0.92077  Biso   1.000  Cu
  O1       1.0000 0.65710  0.51900  0.57650  Biso   1.000  O
  O2       1.0000 0.34290  0.01900  0.92350  Biso   1.000  O
  O3       1.0000 0.34290  0.48100  0.42350  Biso   1.000  O
  O4       1.0000 0.65710  0.98100  0.07650  Biso   1.000  O
  N1       1.0000 0.74050  0.46880  0.26510  Biso   1.000  N
  N2       1.0000 0.25950  0.96880  0.23490  Biso   1.000  N
  N3       1.0000 0.25950  0.53120  0.73490  Biso   1.000  N
  N4       1.0000 0.74050  0.03120  0.76510  Biso   1.000  N
  C1       1.0000 0.88180  0.40250  0.30200  Biso   1.000  C
  C2       1.0000 0.11820  0.90250  0.19800  Biso   1.000  C
  C3       1.0000 0.11820  0.59750  0.69800  Biso   1.000  C
  C4       1.0000 0.88180  0.09750  0.80200  Biso   1.000  C
  C5       1.0000 0.89340  0.23620  0.34610  Biso   1.000  C
  C6       1.0000 0.10660  0.73620  0.15390  Biso   1.000  C
  C7       1.0000 0.10660  0.76380  0.65390  Biso   1.000  C
  C8       1.0000 0.89340  0.26380  0.84610  Biso   1.000  C
  C9       1.0000 0.87290  0.21020  0.47110  Biso   1.000  C
  C10      1.0000 0.12710  0.71020  0.02890  Biso   1.000  C
  C11      1.0000 0.12710  0.78980  0.52890  Biso   1.000  C
  C12      1.0000 0.87290  0.28980  0.97110  Biso   1.000  C
  O5       1.0000 0.85200  0.06800  0.49780  Biso   1.000  O
  O6       1.0000 0.14800  0.56800  0.00220  Biso   1.000  O
  O7       1.0000 0.14800  0.93200  0.50220  Biso   1.000  O
  O8       1.0000 0.85200  0.43200  0.99780  Biso   1.000  O
  O9       1.0000 0.87890  0.31330  0.54560  Biso   1.000  O
  O10      1.0000 0.12110  0.81330  0.95440  Biso   1.000  O
  O11      1.0000 0.12110  0.68670  0.45440  Biso   1.000  O
  O12      1.0000 0.87890  0.18670  0.04560  Biso   1.000  O
  C13      1.0000 0.63170  0.37110  0.17350  Biso   1.000  C
  C14      1.0000 0.36830  0.87110  0.32650  Biso   1.000  C
  C15      1.0000 0.36830  0.62890  0.82650  Biso   1.000  C
  C16      1.0000 0.63170  0.12890  0.67350  Biso   1.000  C
  C17      1.0000 0.57460  0.26200  0.24870  Biso   1.000  C
  C18      1.0000 0.42540  0.76200  0.25130  Biso   1.000  C
  C19      1.0000 0.42540  0.73800  0.75130  Biso   1.000  C
  C20      1.0000 0.57460  0.23800  0.74870  Biso   1.000  C
  O13      1.0000 0.58450  0.30410  0.36080  Biso   1.000  O
  O14      1.0000 0.41550  0.80410  0.13920  Biso   1.000  O
  O15      1.0000 0.41550  0.69590  0.63920  Biso   1.000  O
  O16      1.0000 0.58450  0.19590  0.86080  Biso   1.000  O
  O17      1.0000 0.52070  0.14020  0.19740  Biso   1.000  O
  O18      1.0000 0.47930  0.64020  0.30260  Biso   1.000  O
  O19      1.0000 0.47930  0.85980  0.80260  Biso   1.000  O
  O20      1.0000 0.52070  0.35980  0.69740  Biso   1.000  O
  C21      1.0000 0.73970  0.62890  0.21880  Biso   1.000  C
  C22      1.0000 0.26030  0.12890  0.28120  Biso   1.000  C
  C23      1.0000 0.26030  0.37110  0.78120  Biso   1.000  C
  C24      1.0000 0.73970  0.87110  0.71880  Biso   1.000  C
  C25      1.0000 0.78850  0.73820  0.33260  Biso   1.000  C
  C26      1.0000 0.21150  0.23820  0.16740  Biso   1.000  C
  C27      1.0000 0.21150  0.26180  0.66740  Biso   1.000  C
  C28      1.0000 0.78850  0.76180  0.83260  Biso   1.000  C
  O21      1.0000 0.79040  0.69000  0.44060  Biso   1.000  O
  O22      1.0000 0.20960  0.19000  0.05940  Biso   1.000  O
  O23      1.0000 0.20960  0.31000  0.55940  Biso   1.000  O
  O24      1.0000 0.79040  0.81000  0.94060  Biso   1.000  O
  O25      1.0000 0.81870  0.87180  0.31220  Biso   1.000  O
  O26      1.0000 0.18130  0.37180  0.18780  Biso   1.000  O
  O27      1.0000 0.18130  0.12820  0.68780  Biso   1.000  O
  O28      1.0000 0.81870  0.62820  0.81220  Biso   1.000  O
  H1       1.0000 0.60160  0.46880  0.59380  Biso   1.000  H
  H2       1.0000 0.39840  0.96880  0.90620  Biso   1.000  H
  H3       1.0000 0.39840  0.53120  0.40620  Biso   1.000  H
  H4       1.0000 0.60160  0.03120  0.09380  Biso   1.000  H
  H5       1.0000 0.71870  0.55470  0.65630  Biso   1.000  H
  H6       1.0000 0.28130  0.05470  0.84370  Biso   1.000  H
  H7       1.0000 0.28130  0.44530  0.34370  Biso   1.000  H
  H8       1.0000 0.71870  0.94530  0.15630  Biso   1.000  H
  H9       1.0000 0.94530  0.46870  0.37500  Biso   1.000  H
  H10      1.0000 0.05470  0.96870  0.12500  Biso   1.000  H
  H11      1.0000 0.05470  0.53130  0.62500  Biso   1.000  H
  H12      1.0000 0.94530  0.03130  0.87500  Biso   1.000  H
  H13      1.0000 0.90620  0.40620  0.21880  Biso   1.000  H
  H14      1.0000 0.09380  0.90620  0.28120  Biso   1.000  H
  H15      1.0000 0.09380  0.59380  0.78120  Biso   1.000  H
  H16      1.0000 0.90620  0.09380  0.71880  Biso   1.000  H
  H17      1.0000 0.83590  0.17970  0.28120  Biso   1.000  H
  H18      1.0000 0.16410  0.67970  0.21880  Biso   1.000  H
  H19      1.0000 0.16410  0.82030  0.71880  Biso   1.000  H
  H20      1.0000 0.83590  0.32030  0.78120  Biso   1.000  H
  H21      1.0000 0.98570  0.20940  0.35190  Biso   1.000  H
  H22      1.0000 0.01430  0.70940  0.14810  Biso   1.000  H
  H23      1.0000 0.01430  0.79060  0.64810  Biso   1.000  H
  H24      1.0000 0.98570  0.29060  0.85190  Biso   1.000  H
  H25      1.0000 0.85160  0.00780  0.43750  Biso   1.000  H
  H26      1.0000 0.14840  0.50780  0.06250  Biso   1.000  H
  H27      1.0000 0.14840  0.99220  0.56250  Biso   1.000  H
  H28      1.0000 0.85160  0.49220  0.93750  Biso   1.000  H
  H29      1.0000 0.66400  0.32810  0.12500  Biso   1.000  H
  H30      1.0000 0.33600  0.82810  0.37500  Biso   1.000  H
  H31      1.0000 0.33600  0.67190  0.87500  Biso   1.000  H
  H32      1.0000 0.66400  0.17190  0.62500  Biso   1.000  H
  H33      1.0000 0.54690  0.42190  0.12500  Biso   1.000  H
  H34      1.0000 0.45310  0.92190  0.37500  Biso   1.000  H
  H35      1.0000 0.45310  0.57810  0.87500  Biso   1.000  H
  H36      1.0000 0.54690  0.07810  0.62500  Biso   1.000  H
  H37      1.0000 0.80470  0.64060  0.18750  Biso   1.000  H
  H38      1.0000 0.19530  0.14060  0.31250  Biso   1.000  H
  H39      1.0000 0.19530  0.35940  0.81250  Biso   1.000  H
  H40      1.0000 0.80470  0.85940  0.68750  Biso   1.000  H
  H41      1.0000 0.63280  0.65620  0.18750  Biso   1.000  H
  H42      1.0000 0.36720  0.15620  0.31250  Biso   1.000  H
  H43      1.0000 0.36720  0.34380  0.81250  Biso   1.000  H
  H44      1.0000 0.63280  0.84380  0.68750  Biso   1.000  H
