data_image0
_cell_length_a       14.4639
_cell_length_b       7.7209
_cell_length_c       8.5172
_cell_angle_alpha    90
_cell_angle_beta     126.076
_cell_angle_gamma    90

_symmetry_space_group_name_H-M    "P 1"
_symmetry_int_tables_number       1

loop_
  _symmetry_equiv_pos_as_xyz
  'x, y, z'

loop_
  _atom_site_label
  _atom_site_occupancy
  _atom_site_fract_x
  _atom_site_fract_y
  _atom_site_fract_z
  _atom_site_thermal_displace_type
  _atom_site_B_iso_or_equiv
  _atom_site_type_symbol
  Cu1      1.0000 0.25000  0.25000  0.00000  Biso   1.000  Cu
  Cu2      1.0000 0.75000  0.75000  0.00000  Biso   1.000  Cu
  Cu3      1.0000 0.75000  0.25000  0.50000  Biso   1.000  Cu
  Cu4      1.0000 0.25000  0.75000  0.50000  Biso   1.000  Cu
  O1       1.0000 0.34971  0.49543  0.99475  Biso   1.000  O
  O2       1.0000 0.84971  0.99543  0.99475  Biso   1.000  O
  O3       1.0000 0.65029  0.49543  0.50525  Biso   1.000  O
  O4       1.0000 0.15029  0.99543  0.50525  Biso   1.000  O
  O5       1.0000 0.65029  0.50457  0.00525  Biso   1.000  O
  O6       1.0000 0.15029  0.00457  0.00525  Biso   1.000  O
  O7       1.0000 0.34971  0.50457  0.49475  Biso   1.000  O
  O8       1.0000 0.84971  0.00457  0.49475  Biso   1.000  O
  O9       1.0000 0.28653  0.67717  0.75023  Biso   1.000  O
  O10      1.0000 0.78653  0.17717  0.75023  Biso   1.000  O
  O11      1.0000 0.71347  0.67717  0.74977  Biso   1.000  O
  O12      1.0000 0.21347  0.17717  0.74977  Biso   1.000  O
  O13      1.0000 0.71347  0.32283  0.24977  Biso   1.000  O
  O14      1.0000 0.21347  0.82283  0.24977  Biso   1.000  O
  O15      1.0000 0.28653  0.32283  0.25023  Biso   1.000  O
  O16      1.0000 0.78653  0.82283  0.25023  Biso   1.000  O
  N1       1.0000 0.39876  0.10705  0.14401  Biso   1.000  N
  N2       1.0000 0.89876  0.60705  0.14401  Biso   1.000  N
  N3       1.0000 0.60124  0.10705  0.35599  Biso   1.000  N
  N4       1.0000 0.10124  0.60705  0.35599  Biso   1.000  N
  N5       1.0000 0.60124  0.89295  0.85599  Biso   1.000  N
  N6       1.0000 0.10124  0.39295  0.85599  Biso   1.000  N
  N7       1.0000 0.39876  0.89295  0.64401  Biso   1.000  N
  N8       1.0000 0.89876  0.39295  0.64401  Biso   1.000  N
  C1       1.0000 0.33356  0.53990  0.84070  Biso   1.000  C
  C2       1.0000 0.83356  0.03990  0.84070  Biso   1.000  C
  C3       1.0000 0.66644  0.53990  0.65930  Biso   1.000  C
  C4       1.0000 0.16644  0.03990  0.65930  Biso   1.000  C
  C5       1.0000 0.66644  0.46010  0.15930  Biso   1.000  C
  C6       1.0000 0.16644  0.96010  0.15930  Biso   1.000  C
  C7       1.0000 0.33356  0.46010  0.34070  Biso   1.000  C
  C8       1.0000 0.83356  0.96010  0.34070  Biso   1.000  C
  H1       1.0000 0.35860  0.46460  0.78770  Biso   1.000  H
  H2       1.0000 0.85860  0.96460  0.78770  Biso   1.000  H
  H3       1.0000 0.64140  0.46460  0.71230  Biso   1.000  H
  H4       1.0000 0.14140  0.96460  0.71230  Biso   1.000  H
  H5       1.0000 0.64140  0.53540  0.21230  Biso   1.000  H
  H6       1.0000 0.14140  0.03540  0.21230  Biso   1.000  H
  H7       1.0000 0.35860  0.53540  0.28770  Biso   1.000  H
  H8       1.0000 0.85860  0.03540  0.28770  Biso   1.000  H
  C9       1.0000 0.39919  0.93390  0.14270  Biso   1.000  C
  C10      1.0000 0.89919  0.43390  0.14270  Biso   1.000  C
  C11      1.0000 0.60081  0.93390  0.35730  Biso   1.000  C
  C12      1.0000 0.10081  0.43390  0.35730  Biso   1.000  C
  C13      1.0000 0.60081  0.06610  0.85730  Biso   1.000  C
  C14      1.0000 0.10081  0.56610  0.85730  Biso   1.000  C
  C15      1.0000 0.39919  0.06610  0.64270  Biso   1.000  C
  C16      1.0000 0.89919  0.56610  0.64270  Biso   1.000  C
  H9       1.0000 0.33000  0.87470  0.06780  Biso   1.000  H
  H10      1.0000 0.83000  0.37470  0.06780  Biso   1.000  H
  H11      1.0000 0.67000  0.87470  0.43220  Biso   1.000  H
  H12      1.0000 0.17000  0.37470  0.43220  Biso   1.000  H
  H13      1.0000 0.67000  0.12530  0.93220  Biso   1.000  H
  H14      1.0000 0.17000  0.62530  0.93220  Biso   1.000  H
  H15      1.0000 0.33000  0.12530  0.56780  Biso   1.000  H
  H16      1.0000 0.83000  0.62530  0.56780  Biso   1.000  H
  C17      1.0000 0.50000  0.84100  0.25000  Biso   1.000  C
  C18      1.0000 0.00000  0.34100  0.25000  Biso   1.000  C
  C19      1.0000 0.50000  0.15900  0.75000  Biso   1.000  C
  C20      1.0000 0.00000  0.65900  0.75000  Biso   1.000  C
  H17      1.0000 0.50000  0.72050  0.25000  Biso   1.000  H
  H18      1.0000 0.00000  0.22050  0.25000  Biso   1.000  H
  H19      1.0000 0.50000  0.27950  0.75000  Biso   1.000  H
  H20      1.0000 0.00000  0.77950  0.75000  Biso   1.000  H
  C21      1.0000 0.50000  0.18760  0.25000  Biso   1.000  C
  C22      1.0000 0.00000  0.68760  0.25000  Biso   1.000  C
  C23      1.0000 0.50000  0.81240  0.75000  Biso   1.000  C
  C24      1.0000 0.00000  0.31240  0.75000  Biso   1.000  C
  H21      1.0000 0.50000  0.30810  0.25000  Biso   1.000  H
  H22      1.0000 0.00000  0.80810  0.25000  Biso   1.000  H
  H23      1.0000 0.50000  0.69190  0.75000  Biso   1.000  H
  H24      1.0000 0.00000  0.19190  0.75000  Biso   1.000  H
