data_image0
_cell_length_a       13.222
_cell_length_b       10.82
_cell_length_c       11.821
_cell_angle_alpha    90
_cell_angle_beta     110.51
_cell_angle_gamma    90

_symmetry_space_group_name_H-M    "P 1"
_symmetry_int_tables_number       1

loop_
  _symmetry_equiv_pos_as_xyz
  'x, y, z'

loop_
  _atom_site_label
  _atom_site_occupancy
  _atom_site_fract_x
  _atom_site_fract_y
  _atom_site_fract_z
  _atom_site_thermal_displace_type
  _atom_site_B_iso_or_equiv
  _atom_site_type_symbol
  Cu1      1.0000 0.13409  0.18959  0.14295  Biso   1.000  Cu
  Cu2      1.0000 0.36591  0.68959  0.85705  Biso   1.000  Cu
  Cu3      1.0000 0.86591  0.81041  0.85705  Biso   1.000  Cu
  Cu4      1.0000 0.63409  0.31041  0.14295  Biso   1.000  Cu
  O1       1.0000 0.19430  0.32960  0.08500  Biso   1.000  O
  O2       1.0000 0.30570  0.82960  0.91500  Biso   1.000  O
  O3       1.0000 0.80570  0.67040  0.91500  Biso   1.000  O
  O4       1.0000 0.69430  0.17040  0.08500  Biso   1.000  O
  O5       1.0000 0.20720  0.53560  0.09410  Biso   1.000  O
  O6       1.0000 0.29280  0.03560  0.90590  Biso   1.000  O
  O7       1.0000 0.79280  0.46440  0.90590  Biso   1.000  O
  O8       1.0000 0.70720  0.96440  0.09410  Biso   1.000  O
  O9       1.0000 0.06650  0.05760  0.19260  Biso   1.000  O
  O10      1.0000 0.43350  0.55760  0.80740  Biso   1.000  O
  O11      1.0000 0.93350  0.94240  0.80740  Biso   1.000  O
  O12      1.0000 0.56650  0.44240  0.19260  Biso   1.000  O
  O13      1.0000 0.79290  0.34850  0.30960  Biso   1.000  O
  O14      1.0000 0.70710  0.84850  0.69040  Biso   1.000  O
  O15      1.0000 0.20710  0.65150  0.69040  Biso   1.000  O
  O16      1.0000 0.29290  0.15150  0.30960  Biso   1.000  O
  O17      1.0000 0.17080  0.06440  0.04250  Biso   1.000  O
  O18      1.0000 0.32920  0.56440  0.95750  Biso   1.000  O
  O19      1.0000 0.82920  0.93560  0.95750  Biso   1.000  O
  O20      1.0000 0.67080  0.43560  0.04250  Biso   1.000  O
  N1       1.0000 0.90710  0.94890  0.35470  Biso   1.000  N
  N2       1.0000 0.59290  0.44890  0.64530  Biso   1.000  N
  N3       1.0000 0.09290  0.05110  0.64530  Biso   1.000  N
  N4       1.0000 0.40710  0.55110  0.35470  Biso   1.000  N
  N5       1.0000 0.06700  0.31510  0.21160  Biso   1.000  N
  N6       1.0000 0.43300  0.81510  0.78840  Biso   1.000  N
  N7       1.0000 0.93300  0.68490  0.78840  Biso   1.000  N
  N8       1.0000 0.56700  0.18490  0.21160  Biso   1.000  N
  C1       1.0000 0.96900  0.94860  0.28720  Biso   1.000  C
  C2       1.0000 0.53100  0.44860  0.71280  Biso   1.000  C
  C3       1.0000 0.03100  0.05140  0.71280  Biso   1.000  C
  C4       1.0000 0.46900  0.55140  0.28720  Biso   1.000  C
  C5       1.0000 0.00440  0.06420  0.25520  Biso   1.000  C
  C6       1.0000 0.49560  0.56420  0.74480  Biso   1.000  C
  C7       1.0000 0.99560  0.93580  0.74480  Biso   1.000  C
  C8       1.0000 0.50440  0.43580  0.25520  Biso   1.000  C
  C9       1.0000 0.96990  0.17410  0.29640  Biso   1.000  C
  C10      1.0000 0.53010  0.67410  0.70360  Biso   1.000  C
  C11      1.0000 0.03010  0.82590  0.70360  Biso   1.000  C
  C12      1.0000 0.46990  0.32590  0.29640  Biso   1.000  C
  C13      1.0000 0.90090  0.16590  0.36490  Biso   1.000  C
  C14      1.0000 0.59910  0.66590  0.63510  Biso   1.000  C
  C15      1.0000 0.09910  0.83410  0.63510  Biso   1.000  C
  C16      1.0000 0.40090  0.33410  0.36490  Biso   1.000  C
  C17      1.0000 0.87120  0.05240  0.39380  Biso   1.000  C
  C18      1.0000 0.62880  0.55240  0.60620  Biso   1.000  C
  C19      1.0000 0.12880  0.94760  0.60620  Biso   1.000  C
  C20      1.0000 0.37120  0.44760  0.39380  Biso   1.000  C
  C21      1.0000 0.17240  0.43560  0.11810  Biso   1.000  C
  C22      1.0000 0.32760  0.93560  0.88190  Biso   1.000  C
  C23      1.0000 0.82760  0.56440  0.88190  Biso   1.000  C
  C24      1.0000 0.67240  0.06440  0.11810  Biso   1.000  C
  C25      1.0000 0.09600  0.43850  0.18730  Biso   1.000  C
  C26      1.0000 0.40400  0.93850  0.81270  Biso   1.000  C
  C27      1.0000 0.90400  0.56150  0.81270  Biso   1.000  C
  C28      1.0000 0.59600  0.06150  0.18730  Biso   1.000  C
  C29      1.0000 0.10500  0.54250  0.27460  Biso   1.000  C
  C30      1.0000 0.39500  0.04250  0.72540  Biso   1.000  C
  C31      1.0000 0.89500  0.45750  0.72540  Biso   1.000  C
  C32      1.0000 0.60500  0.95750  0.27460  Biso   1.000  C
  C33      1.0000 0.01330  0.54190  0.15950  Biso   1.000  C
  C34      1.0000 0.48670  0.04190  0.84050  Biso   1.000  C
  C35      1.0000 0.98670  0.45810  0.84050  Biso   1.000  C
  C36      1.0000 0.51330  0.95810  0.15950  Biso   1.000  C
  C37      1.0000 0.99950  0.82970  0.24700  Biso   1.000  C
  C38      1.0000 0.50050  0.32970  0.75300  Biso   1.000  C
  C39      1.0000 0.00050  0.17030  0.75300  Biso   1.000  C
  C40      1.0000 0.49950  0.67030  0.24700  Biso   1.000  C
  C41      1.0000 0.00280  0.29590  0.26970  Biso   1.000  C
  C42      1.0000 0.49720  0.79590  0.73030  Biso   1.000  C
  C43      1.0000 0.99720  0.70410  0.73030  Biso   1.000  C
  C44      1.0000 0.50280  0.20410  0.26970  Biso   1.000  C
  C45      1.0000 0.85850  0.27920  0.41030  Biso   1.000  C
  C46      1.0000 0.64150  0.77920  0.58970  Biso   1.000  C
  C47      1.0000 0.14150  0.72080  0.58970  Biso   1.000  C
  C48      1.0000 0.35850  0.22080  0.41030  Biso   1.000  C
  H1       1.0000 0.88300  0.88600  0.36700  Biso   1.000  H
  H2       1.0000 0.61700  0.38600  0.63300  Biso   1.000  H
  H3       1.0000 0.11700  0.11400  0.63300  Biso   1.000  H
  H4       1.0000 0.38300  0.61400  0.36700  Biso   1.000  H
  H5       1.0000 0.82100  0.04100  0.43300  Biso   1.000  H
  H6       1.0000 0.67900  0.54100  0.56700  Biso   1.000  H
  H7       1.0000 0.17900  0.95900  0.56700  Biso   1.000  H
  H8       1.0000 0.32100  0.45900  0.43300  Biso   1.000  H
  H9       1.0000 0.16600  0.60000  0.28800  Biso   1.000  H
  H10      1.0000 0.33400  0.10000  0.71200  Biso   1.000  H
  H11      1.0000 0.83400  0.40000  0.71200  Biso   1.000  H
  H12      1.0000 0.66600  0.90000  0.28800  Biso   1.000  H
  H13      1.0000 0.09200  0.52300  0.34000  Biso   1.000  H
  H14      1.0000 0.40800  0.02300  0.66000  Biso   1.000  H
  H15      1.0000 0.90800  0.47700  0.66000  Biso   1.000  H
  H16      1.0000 0.59200  0.97700  0.34000  Biso   1.000  H
  H17      1.0000 0.94500  0.52100  0.15900  Biso   1.000  H
  H18      1.0000 0.55500  0.02100  0.84100  Biso   1.000  H
  H19      1.0000 0.05500  0.47900  0.84100  Biso   1.000  H
  H20      1.0000 0.44500  0.97900  0.15900  Biso   1.000  H
  H21      1.0000 0.01200  0.59400  0.09300  Biso   1.000  H
  H22      1.0000 0.48800  0.09400  0.90700  Biso   1.000  H
  H23      1.0000 0.98800  0.40600  0.90700  Biso   1.000  H
  H24      1.0000 0.51200  0.90600  0.09300  Biso   1.000  H
  H25      1.0000 0.98600  0.83100  0.16700  Biso   1.000  H
  H26      1.0000 0.51400  0.33100  0.83300  Biso   1.000  H
  H27      1.0000 0.01400  0.16900  0.83300  Biso   1.000  H
  H28      1.0000 0.48600  0.66900  0.16700  Biso   1.000  H
  H29      1.0000 0.96600  0.76300  0.27500  Biso   1.000  H
  H30      1.0000 0.53400  0.26300  0.72500  Biso   1.000  H
  H31      1.0000 0.03400  0.23700  0.72500  Biso   1.000  H
  H32      1.0000 0.46600  0.73700  0.27500  Biso   1.000  H
  H33      1.0000 0.06800  0.82200  0.28200  Biso   1.000  H
  H34      1.0000 0.43200  0.32200  0.71800  Biso   1.000  H
  H35      1.0000 0.93200  0.17800  0.71800  Biso   1.000  H
  H36      1.0000 0.56800  0.67800  0.28200  Biso   1.000  H
  H37      1.0000 0.97500  0.36300  0.30400  Biso   1.000  H
  H38      1.0000 0.52500  0.86300  0.69600  Biso   1.000  H
  H39      1.0000 0.02500  0.63700  0.69600  Biso   1.000  H
  H40      1.0000 0.47500  0.13700  0.30400  Biso   1.000  H
  H41      1.0000 0.92000  0.31700  0.46100  Biso   1.000  H
  H42      1.0000 0.58000  0.81700  0.53900  Biso   1.000  H
  H43      1.0000 0.08000  0.68300  0.53900  Biso   1.000  H
  H44      1.0000 0.42000  0.18300  0.46100  Biso   1.000  H
  H45      1.0000 0.82000  0.25200  0.46500  Biso   1.000  H
  H46      1.0000 0.68000  0.75200  0.53500  Biso   1.000  H
  H47      1.0000 0.18000  0.74800  0.53500  Biso   1.000  H
  H48      1.0000 0.32000  0.24800  0.46500  Biso   1.000  H
  H49      1.0000 0.77500  0.41000  0.32600  Biso   1.000  H
  H50      1.0000 0.72500  0.91000  0.67400  Biso   1.000  H
  H51      1.0000 0.22500  0.59000  0.67400  Biso   1.000  H
  H52      1.0000 0.27500  0.09000  0.32600  Biso   1.000  H
  O21      1.0000 0.81140  0.75380  0.42410  Biso   1.000  O
  O22      1.0000 0.68860  0.25380  0.57590  Biso   1.000  O
  O23      1.0000 0.18860  0.24620  0.57590  Biso   1.000  O
  O24      1.0000 0.31140  0.74620  0.42410  Biso   1.000  O
  O25      1.0000 0.75980  0.56500  0.41590  Biso   1.000  O
  O26      1.0000 0.74020  0.06500  0.58410  Biso   1.000  O
  O27      1.0000 0.24020  0.43500  0.58410  Biso   1.000  O
  O28      1.0000 0.25980  0.93500  0.41590  Biso   1.000  O
  O29      1.0000 0.90800  0.60570  0.39390  Biso   1.000  O
  O30      1.0000 0.59200  0.10570  0.60610  Biso   1.000  O
  O31      1.0000 0.09200  0.39430  0.60610  Biso   1.000  O
  O32      1.0000 0.40800  0.89430  0.39390  Biso   1.000  O
  N9       1.0000 0.82480  0.64540  0.40730  Biso   1.000  N
  N10      1.0000 0.67520  0.14540  0.59270  Biso   1.000  N
  N11      1.0000 0.17520  0.35460  0.59270  Biso   1.000  N
  N12      1.0000 0.32480  0.85460  0.40730  Biso   1.000  N
  O33      1.0000 0.15060  0.80580  0.03290  Biso   1.000  O
  O34      1.0000 0.34940  0.30580  0.96710  Biso   1.000  O
  O35      1.0000 0.84940  0.19420  0.96710  Biso   1.000  O
  O36      1.0000 0.65060  0.69420  0.03290  Biso   1.000  O
