data_image0
_cell_length_a       13.222
_cell_length_b       10.82
_cell_length_c       11.821
_cell_angle_alpha    90
_cell_angle_beta     110.51
_cell_angle_gamma    90

_symmetry_space_group_name_H-M    "P 1"
_symmetry_int_tables_number       1

loop_
  _symmetry_equiv_pos_as_xyz
  'x, y, z'

loop_
  _atom_site_label
  _atom_site_occupancy
  _atom_site_fract_x
  _atom_site_fract_y
  _atom_site_fract_z
  _atom_site_thermal_displace_type
  _atom_site_B_iso_or_equiv
  _atom_site_type_symbol
  Cu1      1.0000 0.13416  0.18957  0.14303  Biso   1.000  Cu
  Cu2      1.0000 0.36584  0.68957  0.85697  Biso   1.000  Cu
  Cu3      1.0000 0.86584  0.81043  0.85697  Biso   1.000  Cu
  Cu4      1.0000 0.63416  0.31043  0.14303  Biso   1.000  Cu
  O1       1.0000 0.19420  0.32950  0.08490  Biso   1.000  O
  O2       1.0000 0.30580  0.82950  0.91510  Biso   1.000  O
  O3       1.0000 0.80580  0.67050  0.91510  Biso   1.000  O
  O4       1.0000 0.69420  0.17050  0.08490  Biso   1.000  O
  O5       1.0000 0.20740  0.53550  0.09430  Biso   1.000  O
  O6       1.0000 0.29260  0.03550  0.90570  Biso   1.000  O
  O7       1.0000 0.79260  0.46450  0.90570  Biso   1.000  O
  O8       1.0000 0.70740  0.96450  0.09430  Biso   1.000  O
  O9       1.0000 0.06610  0.05760  0.19250  Biso   1.000  O
  O10      1.0000 0.43390  0.55760  0.80750  Biso   1.000  O
  O11      1.0000 0.93390  0.94240  0.80750  Biso   1.000  O
  O12      1.0000 0.56610  0.44240  0.19250  Biso   1.000  O
  O13      1.0000 0.79280  0.34840  0.30930  Biso   1.000  O
  O14      1.0000 0.70720  0.84840  0.69070  Biso   1.000  O
  O15      1.0000 0.20720  0.65160  0.69070  Biso   1.000  O
  O16      1.0000 0.29280  0.15160  0.30930  Biso   1.000  O
  N1       1.0000 0.90670  0.94860  0.35440  Biso   1.000  N
  N2       1.0000 0.59330  0.44860  0.64560  Biso   1.000  N
  N3       1.0000 0.09330  0.05140  0.64560  Biso   1.000  N
  N4       1.0000 0.40670  0.55140  0.35440  Biso   1.000  N
  N5       1.0000 0.06670  0.31490  0.21140  Biso   1.000  N
  N6       1.0000 0.43330  0.81490  0.78860  Biso   1.000  N
  N7       1.0000 0.93330  0.68510  0.78860  Biso   1.000  N
  N8       1.0000 0.56670  0.18510  0.21140  Biso   1.000  N
  C1       1.0000 0.96910  0.94850  0.28740  Biso   1.000  C
  C2       1.0000 0.53090  0.44850  0.71260  Biso   1.000  C
  C3       1.0000 0.03090  0.05150  0.71260  Biso   1.000  C
  C4       1.0000 0.46910  0.55150  0.28740  Biso   1.000  C
  C5       1.0000 0.00430  0.06450  0.25490  Biso   1.000  C
  C6       1.0000 0.49570  0.56450  0.74510  Biso   1.000  C
  C7       1.0000 0.99570  0.93550  0.74510  Biso   1.000  C
  C8       1.0000 0.50430  0.43550  0.25490  Biso   1.000  C
  C9       1.0000 0.97000  0.17400  0.29630  Biso   1.000  C
  C10      1.0000 0.53000  0.67400  0.70370  Biso   1.000  C
  C11      1.0000 0.03000  0.82600  0.70370  Biso   1.000  C
  C12      1.0000 0.47000  0.32600  0.29630  Biso   1.000  C
  C13      1.0000 0.90060  0.16610  0.36480  Biso   1.000  C
  C14      1.0000 0.59940  0.66610  0.63520  Biso   1.000  C
  C15      1.0000 0.09940  0.83390  0.63520  Biso   1.000  C
  C16      1.0000 0.40060  0.33390  0.36480  Biso   1.000  C
  C17      1.0000 0.87150  0.05230  0.39400  Biso   1.000  C
  C18      1.0000 0.62850  0.55230  0.60600  Biso   1.000  C
  C19      1.0000 0.12850  0.94770  0.60600  Biso   1.000  C
  C20      1.0000 0.37150  0.44770  0.39400  Biso   1.000  C
  C21      1.0000 0.17190  0.43550  0.11780  Biso   1.000  C
  C22      1.0000 0.32810  0.93550  0.88220  Biso   1.000  C
  C23      1.0000 0.82810  0.56450  0.88220  Biso   1.000  C
  C24      1.0000 0.67190  0.06450  0.11780  Biso   1.000  C
  C25      1.0000 0.09580  0.43880  0.18690  Biso   1.000  C
  C26      1.0000 0.40420  0.93880  0.81310  Biso   1.000  C
  C27      1.0000 0.90420  0.56120  0.81310  Biso   1.000  C
  C28      1.0000 0.59580  0.06120  0.18690  Biso   1.000  C
  C29      1.0000 0.10500  0.54250  0.27520  Biso   1.000  C
  C30      1.0000 0.39500  0.04250  0.72480  Biso   1.000  C
  C31      1.0000 0.89500  0.45750  0.72480  Biso   1.000  C
  C32      1.0000 0.60500  0.95750  0.27520  Biso   1.000  C
  C33      1.0000 0.01340  0.54210  0.15970  Biso   1.000  C
  C34      1.0000 0.48660  0.04210  0.84030  Biso   1.000  C
  C35      1.0000 0.98660  0.45790  0.84030  Biso   1.000  C
  C36      1.0000 0.51340  0.95790  0.15970  Biso   1.000  C
  C37      1.0000 0.00070  0.82970  0.24720  Biso   1.000  C
  C38      1.0000 0.49930  0.32970  0.75280  Biso   1.000  C
  C39      1.0000 0.99930  0.17030  0.75280  Biso   1.000  C
  C40      1.0000 0.50070  0.67030  0.24720  Biso   1.000  C
  C41      1.0000 0.00320  0.29620  0.27000  Biso   1.000  C
  C42      1.0000 0.49680  0.79620  0.73000  Biso   1.000  C
  C43      1.0000 0.99680  0.70380  0.73000  Biso   1.000  C
  C44      1.0000 0.50320  0.20380  0.27000  Biso   1.000  C
  C45      1.0000 0.85960  0.27980  0.41110  Biso   1.000  C
  C46      1.0000 0.64040  0.77980  0.58890  Biso   1.000  C
  C47      1.0000 0.14040  0.72020  0.58890  Biso   1.000  C
  C48      1.0000 0.35960  0.22020  0.41110  Biso   1.000  C
  O17      1.0000 0.17260  0.06470  0.04400  Biso   1.000  O
  O18      1.0000 0.32740  0.56470  0.95600  Biso   1.000  O
  O19      1.0000 0.82740  0.93530  0.95600  Biso   1.000  O
  O20      1.0000 0.67260  0.43530  0.04400  Biso   1.000  O
  O21      1.0000 0.15570  0.80730  0.03780  Biso   1.000  O
  O22      1.0000 0.34430  0.30730  0.96220  Biso   1.000  O
  O23      1.0000 0.84430  0.19270  0.96220  Biso   1.000  O
  O24      1.0000 0.65570  0.69270  0.03780  Biso   1.000  O
  N9       1.0000 0.82510  0.64530  0.40740  Biso   1.000  N
  N10      1.0000 0.67490  0.14530  0.59260  Biso   1.000  N
  N11      1.0000 0.17490  0.35470  0.59260  Biso   1.000  N
  N12      1.0000 0.32510  0.85470  0.40740  Biso   1.000  N
  O25      1.0000 0.81070  0.75370  0.42310  Biso   1.000  O
  O26      1.0000 0.68930  0.25370  0.57690  Biso   1.000  O
  O27      1.0000 0.18930  0.24630  0.57690  Biso   1.000  O
  O28      1.0000 0.31070  0.74630  0.42310  Biso   1.000  O
  O29      1.0000 0.75980  0.56500  0.41550  Biso   1.000  O
  O30      1.0000 0.74020  0.06500  0.58450  Biso   1.000  O
  O31      1.0000 0.24020  0.43500  0.58450  Biso   1.000  O
  O32      1.0000 0.25980  0.93500  0.41550  Biso   1.000  O
  O33      1.0000 0.90760  0.60570  0.39280  Biso   1.000  O
  O34      1.0000 0.59240  0.10570  0.60720  Biso   1.000  O
  O35      1.0000 0.09240  0.39430  0.60720  Biso   1.000  O
  O36      1.0000 0.40760  0.89430  0.39280  Biso   1.000  O
  O37      1.0000 0.79780  0.55980  0.45710  Biso   1.000  O
  O38      1.0000 0.70220  0.05980  0.54290  Biso   1.000  O
  O39      1.0000 0.20220  0.44020  0.54290  Biso   1.000  O
  O40      1.0000 0.29780  0.94020  0.45710  Biso   1.000  O
  O41      1.0000 0.82490  0.64590  0.29900  Biso   1.000  O
  O42      1.0000 0.67510  0.14590  0.70100  Biso   1.000  O
  O43      1.0000 0.17510  0.35410  0.70100  Biso   1.000  O
  O44      1.0000 0.32490  0.85410  0.29900  Biso   1.000  O
  O45      1.0000 0.84830  0.74610  0.46660  Biso   1.000  O
  O46      1.0000 0.65170  0.24610  0.53340  Biso   1.000  O
  O47      1.0000 0.15170  0.25390  0.53340  Biso   1.000  O
  O48      1.0000 0.34830  0.75390  0.46660  Biso   1.000  O
  H1       1.0000 0.88300  0.87700  0.37300  Biso   1.000  H
  H2       1.0000 0.61700  0.37700  0.62700  Biso   1.000  H
  H3       1.0000 0.11700  0.12300  0.62700  Biso   1.000  H
  H4       1.0000 0.38300  0.62300  0.37300  Biso   1.000  H
  H5       1.0000 0.82100  0.04100  0.43200  Biso   1.000  H
  H6       1.0000 0.67900  0.54100  0.56800  Biso   1.000  H
  H7       1.0000 0.17900  0.95900  0.56800  Biso   1.000  H
  H8       1.0000 0.32100  0.45900  0.43200  Biso   1.000  H
  H9       1.0000 0.16400  0.60300  0.28700  Biso   1.000  H
  H10      1.0000 0.33600  0.10300  0.71300  Biso   1.000  H
  H11      1.0000 0.83600  0.39700  0.71300  Biso   1.000  H
  H12      1.0000 0.66400  0.89700  0.28700  Biso   1.000  H
  H13      1.0000 0.09400  0.52000  0.34500  Biso   1.000  H
  H14      1.0000 0.40600  0.02000  0.65500  Biso   1.000  H
  H15      1.0000 0.90600  0.48000  0.65500  Biso   1.000  H
  H16      1.0000 0.59400  0.98000  0.34500  Biso   1.000  H
  H17      1.0000 0.94100  0.52100  0.15800  Biso   1.000  H
  H18      1.0000 0.55900  0.02100  0.84200  Biso   1.000  H
  H19      1.0000 0.05900  0.47900  0.84200  Biso   1.000  H
  H20      1.0000 0.44100  0.97900  0.15800  Biso   1.000  H
  H21      1.0000 0.01600  0.59700  0.09200  Biso   1.000  H
  H22      1.0000 0.48400  0.09700  0.90800  Biso   1.000  H
  H23      1.0000 0.98400  0.40300  0.90800  Biso   1.000  H
  H24      1.0000 0.51600  0.90300  0.09200  Biso   1.000  H
  H25      1.0000 0.98200  0.83300  0.16000  Biso   1.000  H
  H26      1.0000 0.51800  0.33300  0.84000  Biso   1.000  H
  H27      1.0000 0.01800  0.16700  0.84000  Biso   1.000  H
  H28      1.0000 0.48200  0.66700  0.16000  Biso   1.000  H
  H29      1.0000 0.96800  0.77000  0.26900  Biso   1.000  H
  H30      1.0000 0.53200  0.27000  0.73100  Biso   1.000  H
  H31      1.0000 0.03200  0.23000  0.73100  Biso   1.000  H
  H32      1.0000 0.46800  0.73000  0.26900  Biso   1.000  H
  H33      1.0000 0.07100  0.82300  0.27400  Biso   1.000  H
  H34      1.0000 0.42900  0.32300  0.72600  Biso   1.000  H
  H35      1.0000 0.92900  0.17700  0.72600  Biso   1.000  H
  H36      1.0000 0.57100  0.67700  0.27400  Biso   1.000  H
  H37      1.0000 0.97500  0.36500  0.30400  Biso   1.000  H
  H38      1.0000 0.52500  0.86500  0.69600  Biso   1.000  H
  H39      1.0000 0.02500  0.63500  0.69600  Biso   1.000  H
  H40      1.0000 0.47500  0.13500  0.30400  Biso   1.000  H
  H41      1.0000 0.92600  0.32800  0.46600  Biso   1.000  H
  H42      1.0000 0.57400  0.82800  0.53400  Biso   1.000  H
  H43      1.0000 0.07400  0.67200  0.53400  Biso   1.000  H
  H44      1.0000 0.42600  0.17200  0.46600  Biso   1.000  H
  H45      1.0000 0.82100  0.25300  0.46100  Biso   1.000  H
  H46      1.0000 0.67900  0.75300  0.53900  Biso   1.000  H
  H47      1.0000 0.17900  0.74700  0.53900  Biso   1.000  H
  H48      1.0000 0.32100  0.24700  0.46100  Biso   1.000  H
  H49      1.0000 0.77700  0.42300  0.32900  Biso   1.000  H
  H50      1.0000 0.72300  0.92300  0.67100  Biso   1.000  H
  H51      1.0000 0.22300  0.57700  0.67100  Biso   1.000  H
  H52      1.0000 0.27700  0.07700  0.32900  Biso   1.000  H
  H53      1.0000 0.16100  0.00600  0.05600  Biso   1.000  H
  H54      1.0000 0.33900  0.50600  0.94400  Biso   1.000  H
  H55      1.0000 0.83900  0.99400  0.94400  Biso   1.000  H
  H56      1.0000 0.66100  0.49400  0.05600  Biso   1.000  H
  H57      1.0000 0.22500  0.06800  0.02800  Biso   1.000  H
  H58      1.0000 0.27500  0.56800  0.97200  Biso   1.000  H
  H59      1.0000 0.77500  0.93200  0.97200  Biso   1.000  H
  H60      1.0000 0.72500  0.43200  0.02800  Biso   1.000  H
  H61      1.0000 0.17200  0.74700  0.07900  Biso   1.000  H
  H62      1.0000 0.32800  0.24700  0.92100  Biso   1.000  H
  H63      1.0000 0.82800  0.25300  0.92100  Biso   1.000  H
  H64      1.0000 0.67200  0.75300  0.07900  Biso   1.000  H
  H65      1.0000 0.20000  0.80300  0.00200  Biso   1.000  H
  H66      1.0000 0.30000  0.30300  0.99800  Biso   1.000  H
  H67      1.0000 0.80000  0.19700  0.99800  Biso   1.000  H
  H68      1.0000 0.70000  0.69700  0.00200  Biso   1.000  H
