data_image0
_cell_length_a       8.944
_cell_length_b       13.689
_cell_length_c       10.309
_cell_angle_alpha    90
_cell_angle_beta     113.31
_cell_angle_gamma    90

_symmetry_space_group_name_H-M    "P 1"
_symmetry_int_tables_number       1

loop_
  _symmetry_equiv_pos_as_xyz
  'x, y, z'

loop_
  _atom_site_label
  _atom_site_occupancy
  _atom_site_fract_x
  _atom_site_fract_y
  _atom_site_fract_z
  _atom_site_thermal_displace_type
  _atom_site_B_iso_or_equiv
  _atom_site_type_symbol
  I1       1.0000 0.67542  0.45160  0.84307  Biso   1.000  I
  I2       1.0000 0.32458  0.95160  0.65693  Biso   1.000  I
  I3       1.0000 0.32458  0.54840  0.15693  Biso   1.000  I
  I4       1.0000 0.67542  0.04840  0.34307  Biso   1.000  I
  Cu1      1.0000 0.08713  0.99334  0.15938  Biso   1.000  Cu
  Cu2      1.0000 0.91287  0.49334  0.34062  Biso   1.000  Cu
  Cu3      1.0000 0.91287  0.00666  0.84062  Biso   1.000  Cu
  Cu4      1.0000 0.08713  0.50666  0.65938  Biso   1.000  Cu
  O1       1.0000 0.07730  0.93200  0.98780  Biso   1.000  O
  O2       1.0000 0.92270  0.43200  0.51220  Biso   1.000  O
  O3       1.0000 0.92270  0.06800  0.01220  Biso   1.000  O
  O4       1.0000 0.07730  0.56800  0.48780  Biso   1.000  O
  O5       1.0000 0.11460  0.38800  0.30220  Biso   1.000  O
  O6       1.0000 0.88540  0.88800  0.19780  Biso   1.000  O
  O7       1.0000 0.88540  0.61200  0.69780  Biso   1.000  O
  O8       1.0000 0.11460  0.11200  0.80220  Biso   1.000  O
  N1       1.0000 0.27980  0.91950  0.28490  Biso   1.000  N
  N2       1.0000 0.72020  0.41950  0.21510  Biso   1.000  N
  N3       1.0000 0.72020  0.08050  0.71510  Biso   1.000  N
  N4       1.0000 0.27980  0.58050  0.78490  Biso   1.000  N
  N5       1.0000 0.09660  0.08180  0.31700  Biso   1.000  N
  N6       1.0000 0.90340  0.58180  0.18300  Biso   1.000  N
  N7       1.0000 0.90340  0.91820  0.68300  Biso   1.000  N
  N8       1.0000 0.09660  0.41820  0.81700  Biso   1.000  N
  C1       1.0000 0.17670  0.85460  0.97440  Biso   1.000  C
  C2       1.0000 0.82330  0.35460  0.52560  Biso   1.000  C
  C3       1.0000 0.82330  0.14540  0.02560  Biso   1.000  C
  C4       1.0000 0.17670  0.64540  0.47440  Biso   1.000  C
  C5       1.0000 0.33440  0.84270  0.09440  Biso   1.000  C
  C6       1.0000 0.66560  0.34270  0.40560  Biso   1.000  C
  C7       1.0000 0.66560  0.15730  0.90560  Biso   1.000  C
  C8       1.0000 0.33440  0.65730  0.59440  Biso   1.000  C
  C9       1.0000 0.32370  0.82680  0.23720  Biso   1.000  C
  C10      1.0000 0.67630  0.32680  0.26280  Biso   1.000  C
  C11      1.0000 0.67630  0.17320  0.76280  Biso   1.000  C
  C12      1.0000 0.32370  0.67320  0.73720  Biso   1.000  C
  C13      1.0000 0.23350  0.34440  0.42490  Biso   1.000  C
  C14      1.0000 0.76650  0.84440  0.07510  Biso   1.000  C
  C15      1.0000 0.76650  0.65560  0.57510  Biso   1.000  C
  C16      1.0000 0.23350  0.15560  0.92490  Biso   1.000  C
  C17      1.0000 0.17950  0.24390  0.44020  Biso   1.000  C
  C18      1.0000 0.82050  0.74390  0.05980  Biso   1.000  C
  C19      1.0000 0.82050  0.75610  0.55980  Biso   1.000  C
  C20      1.0000 0.17950  0.25610  0.94020  Biso   1.000  C
  C21      1.0000 0.18420  0.17430  0.32640  Biso   1.000  C
  C22      1.0000 0.81580  0.67430  0.17360  Biso   1.000  C
  C23      1.0000 0.81580  0.82570  0.67360  Biso   1.000  C
  C24      1.0000 0.18420  0.32570  0.82640  Biso   1.000  C
  H1       1.0000 0.13300  0.40400  0.25700  Biso   1.000  H
  H2       1.0000 0.86700  0.90400  0.24300  Biso   1.000  H
  H3       1.0000 0.86700  0.59600  0.74300  Biso   1.000  H
  H4       1.0000 0.13300  0.09600  0.75700  Biso   1.000  H
  H5       1.0000 0.26600  0.91800  0.33600  Biso   1.000  H
  H6       1.0000 0.73400  0.41800  0.16400  Biso   1.000  H
  H7       1.0000 0.73400  0.08200  0.66400  Biso   1.000  H
  H8       1.0000 0.26600  0.58200  0.83600  Biso   1.000  H
  H9       1.0000 0.34100  0.95500  0.31700  Biso   1.000  H
  H10      1.0000 0.65900  0.45500  0.18300  Biso   1.000  H
  H11      1.0000 0.65900  0.04500  0.68300  Biso   1.000  H
  H12      1.0000 0.34100  0.54500  0.81700  Biso   1.000  H
  H13      1.0000 0.00300  0.10600  0.32000  Biso   1.000  H
  H14      1.0000 0.99700  0.60600  0.18000  Biso   1.000  H
  H15      1.0000 0.99700  0.89400  0.68000  Biso   1.000  H
  H16      1.0000 0.00300  0.39400  0.82000  Biso   1.000  H
  H17      1.0000 0.15900  0.06600  0.39200  Biso   1.000  H
  H18      1.0000 0.84100  0.56600  0.10800  Biso   1.000  H
  H19      1.0000 0.84100  0.93400  0.60800  Biso   1.000  H
  H20      1.0000 0.15900  0.43400  0.89200  Biso   1.000  H
  H21      1.0000 0.11710  0.79470  0.96300  Biso   1.000  H
  H22      1.0000 0.88290  0.29470  0.53700  Biso   1.000  H
  H23      1.0000 0.88290  0.20530  0.03700  Biso   1.000  H
  H24      1.0000 0.11710  0.70530  0.46300  Biso   1.000  H
  H25      1.0000 0.19760  0.86670  0.89130  Biso   1.000  H
  H26      1.0000 0.80240  0.36670  0.60870  Biso   1.000  H
  H27      1.0000 0.80240  0.13330  0.10870  Biso   1.000  H
  H28      1.0000 0.19760  0.63330  0.39130  Biso   1.000  H
  H29      1.0000 0.38850  0.78720  0.07570  Biso   1.000  H
  H30      1.0000 0.61150  0.28720  0.42430  Biso   1.000  H
  H31      1.0000 0.61150  0.21280  0.92430  Biso   1.000  H
  H32      1.0000 0.38850  0.71280  0.57570  Biso   1.000  H
  H33      1.0000 0.39800  0.90040  0.07570  Biso   1.000  H
  H34      1.0000 0.60200  0.40040  0.42430  Biso   1.000  H
  H35      1.0000 0.60200  0.09960  0.92430  Biso   1.000  H
  H36      1.0000 0.39800  0.59960  0.57570  Biso   1.000  H
  H37      1.0000 0.42720  0.80490  0.30490  Biso   1.000  H
  H38      1.0000 0.57280  0.30490  0.19510  Biso   1.000  H
  H39      1.0000 0.57280  0.19510  0.69510  Biso   1.000  H
  H40      1.0000 0.42720  0.69510  0.80490  Biso   1.000  H
  H41      1.0000 0.24220  0.77850  0.22780  Biso   1.000  H
  H42      1.0000 0.75780  0.27850  0.27220  Biso   1.000  H
  H43      1.0000 0.75780  0.22150  0.77220  Biso   1.000  H
  H44      1.0000 0.24220  0.72150  0.72780  Biso   1.000  H
  H45      1.0000 0.33620  0.34160  0.41570  Biso   1.000  H
  H46      1.0000 0.66380  0.84160  0.08430  Biso   1.000  H
  H47      1.0000 0.66380  0.65840  0.58430  Biso   1.000  H
  H48      1.0000 0.33620  0.15840  0.91570  Biso   1.000  H
  H49      1.0000 0.24500  0.38250  0.50650  Biso   1.000  H
  H50      1.0000 0.75500  0.88250  0.99350  Biso   1.000  H
  H51      1.0000 0.75500  0.61750  0.49350  Biso   1.000  H
  H52      1.0000 0.24500  0.11750  0.00650  Biso   1.000  H
  H53      1.0000 0.24980  0.21880  0.53080  Biso   1.000  H
  H54      1.0000 0.75020  0.71880  0.96920  Biso   1.000  H
  H55      1.0000 0.75020  0.78120  0.46920  Biso   1.000  H
  H56      1.0000 0.24980  0.28120  0.03080  Biso   1.000  H
  H57      1.0000 0.06990  0.24700  0.43470  Biso   1.000  H
  H58      1.0000 0.93010  0.74700  0.06530  Biso   1.000  H
  H59      1.0000 0.93010  0.75300  0.56530  Biso   1.000  H
  H60      1.0000 0.06990  0.25300  0.93470  Biso   1.000  H
  H61      1.0000 0.29600  0.15490  0.34600  Biso   1.000  H
  H62      1.0000 0.70400  0.65490  0.15400  Biso   1.000  H
  H63      1.0000 0.70400  0.84510  0.65400  Biso   1.000  H
  H64      1.0000 0.29600  0.34510  0.84600  Biso   1.000  H
  H65      1.0000 0.13620  0.20680  0.23680  Biso   1.000  H
  H66      1.0000 0.86380  0.70680  0.26320  Biso   1.000  H
  H67      1.0000 0.86380  0.79320  0.76320  Biso   1.000  H
  H68      1.0000 0.13620  0.29320  0.73680  Biso   1.000  H
