data_image0
_cell_length_a       17.9064
_cell_length_b       19.4404
_cell_length_c       19.6259
_cell_angle_alpha    60.362
_cell_angle_beta     84.707
_cell_angle_gamma    66.222

_symmetry_space_group_name_H-M    "P 1"
_symmetry_int_tables_number       1

loop_
  _symmetry_equiv_pos_as_xyz
  'x, y, z'

loop_
  _atom_site_label
  _atom_site_occupancy
  _atom_site_fract_x
  _atom_site_fract_y
  _atom_site_fract_z
  _atom_site_thermal_displace_type
  _atom_site_B_iso_or_equiv
  _atom_site_type_symbol
  Cu1      1.0000 0.69560  0.41060  0.56720  Biso   1.000  Cu
  Cu2      1.0000 0.30440  0.58940  0.43280  Biso   1.000  Cu
  Cu3      1.0000 0.82480  0.28360  0.56140  Biso   1.000  Cu
  Cu4      1.0000 0.17520  0.71640  0.43860  Biso   1.000  Cu
  C1       1.0000 0.68700  0.96900  0.61200  Biso   1.000  C
  C2       1.0000 0.31300  0.03100  0.38800  Biso   1.000  C
  H1       1.0000 0.68950  0.92770  0.59900  Biso   1.000  H
  H2       1.0000 0.31050  0.07230  0.40100  Biso   1.000  H
  C3       1.0000 0.66600  0.05400  0.55100  Biso   1.000  C
  C4       1.0000 0.33400  0.94600  0.44900  Biso   1.000  C
  C5       1.0000 0.66300  0.11300  0.57200  Biso   1.000  C
  C6       1.0000 0.33700  0.88700  0.42800  Biso   1.000  C
  C7       1.0000 0.68300  0.08900  0.64900  Biso   1.000  C
  C8       1.0000 0.31700  0.91100  0.35100  Biso   1.000  C
  H3       1.0000 0.68260  0.12930  0.66100  Biso   1.000  H
  H4       1.0000 0.31740  0.87070  0.33900  Biso   1.000  H
  C9       1.0000 0.70400  0.00300  0.70800  Biso   1.000  C
  C10      1.0000 0.29600  0.99700  0.29200  Biso   1.000  C
  C11      1.0000 0.70500  0.94200  0.69100  Biso   1.000  C
  C12      1.0000 0.29500  0.05800  0.30900  Biso   1.000  C
  C13      1.0000 0.60100  0.26400  0.53200  Biso   1.000  C
  C14      1.0000 0.39900  0.73600  0.46800  Biso   1.000  C
  H5       1.0000 0.57620  0.24320  0.57940  Biso   1.000  H
  H6       1.0000 0.42380  0.75680  0.42060  Biso   1.000  H
  H7       1.0000 0.55830  0.31420  0.48970  Biso   1.000  H
  H8       1.0000 0.44170  0.68580  0.51030  Biso   1.000  H
  C15      1.0000 0.66200  0.29300  0.54500  Biso   1.000  C
  C16      1.0000 0.33800  0.70700  0.45500  Biso   1.000  C
  C17      1.0000 0.73500  0.03100  0.80500  Biso   1.000  C
  C18      1.0000 0.26500  0.96900  0.19500  Biso   1.000  C
  H9       1.0000 0.77060  0.05550  0.76980  Biso   1.000  H
  H10      1.0000 0.22940  0.94450  0.23020  Biso   1.000  H
  H11      1.0000 0.76290  0.99810  0.85830  Biso   1.000  H
  H12      1.0000 0.23710  0.00190  0.14170  Biso   1.000  H
  C19      1.0000 0.66100  0.10100  0.79900  Biso   1.000  C
  C20      1.0000 0.33900  0.89900  0.20100  Biso   1.000  C
  C21      1.0000 0.60300  0.16300  0.79100  Biso   1.000  C
  C22      1.0000 0.39700  0.83700  0.20900  Biso   1.000  C
  H13      1.0000 0.55780  0.21200  0.78530  Biso   1.000  H
  H14      1.0000 0.44220  0.78800  0.21470  Biso   1.000  H
  C23      1.0000 0.72600  0.84800  0.75600  Biso   1.000  C
  C24      1.0000 0.27400  0.15200  0.24400  Biso   1.000  C
  H15      1.0000 0.75660  0.83770  0.80110  Biso   1.000  H
  H16      1.0000 0.24340  0.16230  0.19890  Biso   1.000  H
  C25      1.0000 0.64700  0.83500  0.78400  Biso   1.000  C
  C26      1.0000 0.35300  0.16500  0.21600  Biso   1.000  C
  H17      1.0000 0.61440  0.84740  0.73950  Biso   1.000  H
  H18      1.0000 0.38560  0.15260  0.26050  Biso   1.000  H
  H19      1.0000 0.66270  0.77480  0.82380  Biso   1.000  H
  H20      1.0000 0.33730  0.22520  0.17620  Biso   1.000  H
  C27      1.0000 0.59400  0.89100  0.81800  Biso   1.000  C
  C28      1.0000 0.40600  0.10900  0.18200  Biso   1.000  C
  H21      1.0000 0.54680  0.87910  0.83370  Biso   1.000  H
  H22      1.0000 0.45320  0.12090  0.16630  Biso   1.000  H
  H23      1.0000 0.57720  0.95160  0.77830  Biso   1.000  H
  H24      1.0000 0.42280  0.04840  0.22170  Biso   1.000  H
  H25      1.0000 0.62560  0.87880  0.86280  Biso   1.000  H
  H26      1.0000 0.37440  0.12120  0.13720  Biso   1.000  H
  C29      1.0000 0.78200  0.78500  0.73100  Biso   1.000  C
  C30      1.0000 0.21800  0.21500  0.26900  Biso   1.000  C
  C31      1.0000 0.86100  0.78000  0.71700  Biso   1.000  C
  C32      1.0000 0.13900  0.22000  0.28300  Biso   1.000  C
  C33      1.0000 0.91400  0.72200  0.69400  Biso   1.000  C
  C34      1.0000 0.08600  0.27800  0.30600  Biso   1.000  C
  H27      1.0000 0.96660  0.71900  0.68510  Biso   1.000  H
  H28      1.0000 0.03340  0.28100  0.31490  Biso   1.000  H
  C35      1.0000 0.88800  0.66800  0.68600  Biso   1.000  C
  C36      1.0000 0.11200  0.33200  0.31400  Biso   1.000  C
  C37      1.0000 0.80900  0.67200  0.69700  Biso   1.000  C
  C38      1.0000 0.19100  0.32800  0.30300  Biso   1.000  C
  C39      1.0000 0.75800  0.73000  0.72000  Biso   1.000  C
  C40      1.0000 0.24200  0.27000  0.28000  Biso   1.000  C
  H29      1.0000 0.70530  0.73320  0.72860  Biso   1.000  H
  H30      1.0000 0.29470  0.26680  0.27140  Biso   1.000  H
  C41      1.0000 0.90700  0.89100  0.65900  Biso   1.000  C
  C42      1.0000 0.09300  0.10900  0.34100  Biso   1.000  C
  H31      1.0000 0.86310  0.92060  0.61550  Biso   1.000  H
  H32      1.0000 0.13690  0.07940  0.38450  Biso   1.000  H
  H33      1.0000 0.95670  0.85810  0.64500  Biso   1.000  H
  H34      1.0000 0.04330  0.14190  0.35500  Biso   1.000  H
  C43      1.0000 0.92000  0.95600  0.66900  Biso   1.000  C
  C44      1.0000 0.08000  0.04400  0.33100  Biso   1.000  C
  C45      1.0000 0.01300  0.60100  0.64400  Biso   1.000  C
  C46      1.0000 0.98700  0.39900  0.35600  Biso   1.000  C
  H35      1.0000 0.04330  0.60760  0.67710  Biso   1.000  H
  H36      1.0000 0.95670  0.39240  0.32290  Biso   1.000  H
  H37      1.0000 0.00740  0.64480  0.58950  Biso   1.000  H
  H38      1.0000 0.99260  0.35520  0.41050  Biso   1.000  H
  C47      1.0000 0.05500  0.51300  0.65400  Biso   1.000  C
  C48      1.0000 0.94500  0.48700  0.34600  Biso   1.000  C
  C49      1.0000 0.08300  0.44000  0.66900  Biso   1.000  C
  C50      1.0000 0.91700  0.56000  0.33100  Biso   1.000  C
  H39      1.0000 0.10410  0.38230  0.68030  Biso   1.000  H
  H40      1.0000 0.89590  0.61770  0.31970  Biso   1.000  H
  C51      1.0000 0.78300  0.61600  0.68100  Biso   1.000  C
  C52      1.0000 0.21700  0.38400  0.31900  Biso   1.000  C
  H41      1.0000 0.82360  0.55610  0.71150  Biso   1.000  H
  H42      1.0000 0.17640  0.44390  0.28850  Biso   1.000  H
  C53      1.0000 0.69900  0.61800  0.70500  Biso   1.000  C
  C54      1.0000 0.30100  0.38200  0.29500  Biso   1.000  C
  H43      1.0000 0.65720  0.67660  0.67570  Biso   1.000  H
  H44      1.0000 0.34280  0.32340  0.32430  Biso   1.000  H
  H45      1.0000 0.70000  0.60000  0.76100  Biso   1.000  H
  H46      1.0000 0.30000  0.40000  0.23900  Biso   1.000  H
  C55      1.0000 0.67600  0.55700  0.69100  Biso   1.000  C
  C56      1.0000 0.32400  0.44300  0.30900  Biso   1.000  C
  H47      1.0000 0.62330  0.56030  0.70740  Biso   1.000  H
  H48      1.0000 0.37670  0.43970  0.29260  Biso   1.000  H
  H49      1.0000 0.71690  0.49880  0.72110  Biso   1.000  H
  H50      1.0000 0.28310  0.50120  0.27890  Biso   1.000  H
  H51      1.0000 0.67410  0.57540  0.63580  Biso   1.000  H
  H52      1.0000 0.32590  0.42460  0.36420  Biso   1.000  H
  C57      1.0000 0.78400  0.64200  0.59400  Biso   1.000  C
  C58      1.0000 0.21600  0.35800  0.40600  Biso   1.000  C
  C59      1.0000 0.82500  0.58100  0.56900  Biso   1.000  C
  C60      1.0000 0.17500  0.41900  0.43100  Biso   1.000  C
  C61      1.0000 0.82000  0.60600  0.49000  Biso   1.000  C
  C62      1.0000 0.18000  0.39400  0.51000  Biso   1.000  C
  H53      1.0000 0.84680  0.56600  0.47380  Biso   1.000  H
  H54      1.0000 0.15320  0.43400  0.52620  Biso   1.000  H
  C63      1.0000 0.77400  0.69300  0.43500  Biso   1.000  C
  C64      1.0000 0.22600  0.30700  0.56500  Biso   1.000  C
  C65      1.0000 0.73500  0.75600  0.45600  Biso   1.000  C
  C66      1.0000 0.26500  0.24400  0.54400  Biso   1.000  C
  C67      1.0000 0.74100  0.72800  0.53500  Biso   1.000  C
  C68      1.0000 0.25900  0.27200  0.46500  Biso   1.000  C
  H55      1.0000 0.71540  0.76950  0.55090  Biso   1.000  H
  H56      1.0000 0.28460  0.23050  0.44910  Biso   1.000  H
  C69      1.0000 0.91000  0.43300  0.60700  Biso   1.000  C
  C70      1.0000 0.09000  0.56700  0.39300  Biso   1.000  C
  H57      1.0000 0.95100  0.38240  0.65080  Biso   1.000  H
  H58      1.0000 0.04900  0.61760  0.34920  Biso   1.000  H
  H59      1.0000 0.93890  0.45510  0.56230  Biso   1.000  H
  H60      1.0000 0.06110  0.54490  0.43770  Biso   1.000  H
  C71      1.0000 0.85300  0.40500  0.58500  Biso   1.000  C
  C72      1.0000 0.14700  0.59500  0.41500  Biso   1.000  C
  C73      1.0000 0.73000  0.68300  0.33100  Biso   1.000  C
  C74      1.0000 0.27000  0.31700  0.66900  Biso   1.000  C
  H61      1.0000 0.76000  0.62090  0.35610  Biso   1.000  H
  H62      1.0000 0.24000  0.37910  0.64390  Biso   1.000  H
  H63      1.0000 0.67530  0.69640  0.34690  Biso   1.000  H
  H64      1.0000 0.32470  0.30360  0.65310  Biso   1.000  H
  C75      1.0000 0.72600  0.72300  0.24800  Biso   1.000  C
  C76      1.0000 0.27400  0.27700  0.75200  Biso   1.000  C
  C77      1.0000 0.76500  0.73100  0.17800  Biso   1.000  C
  C78      1.0000 0.23500  0.26900  0.82200  Biso   1.000  C
  C79      1.0000 0.68600  0.85100  0.39400  Biso   1.000  C
  C80      1.0000 0.31400  0.14900  0.60600  Biso   1.000  C
  H65      1.0000 0.69750  0.85770  0.34200  Biso   1.000  H
  H66      1.0000 0.30250  0.14230  0.65800  Biso   1.000  H
  C81      1.0000 0.59400  0.87800  0.39600  Biso   1.000  C
  C82      1.0000 0.40600  0.12200  0.60400  Biso   1.000  C
  H67      1.0000 0.58270  0.86490  0.44930  Biso   1.000  H
  H68      1.0000 0.41730  0.13510  0.55070  Biso   1.000  H
  H69      1.0000 0.56620  0.94100  0.36200  Biso   1.000  H
  H70      1.0000 0.43380  0.05900  0.63800  Biso   1.000  H
  C83      1.0000 0.55700  0.83700  0.37000  Biso   1.000  C
  C84      1.0000 0.44300  0.16300  0.63000  Biso   1.000  C
  H71      1.0000 0.49920  0.85720  0.37310  Biso   1.000  H
  H72      1.0000 0.50080  0.14280  0.62690  Biso   1.000  H
  H73      1.0000 0.58290  0.77460  0.40430  Biso   1.000  H
  H74      1.0000 0.41710  0.22540  0.59570  Biso   1.000  H
  H75      1.0000 0.56640  0.85080  0.31670  Biso   1.000  H
  H76      1.0000 0.43360  0.14920  0.68330  Biso   1.000  H
  C85      1.0000 0.71800  0.90800  0.40500  Biso   1.000  C
  C86      1.0000 0.28200  0.09200  0.59500  Biso   1.000  C
  C87      1.0000 0.79400  0.90600  0.38500  Biso   1.000  C
  C88      1.0000 0.20600  0.09400  0.61500  Biso   1.000  C
  C89      1.0000 0.82500  0.95600  0.39500  Biso   1.000  C
  C90      1.0000 0.17500  0.04400  0.60500  Biso   1.000  C
  H77      1.0000 0.87740  0.95260  0.38390  Biso   1.000  H
  H78      1.0000 0.12260  0.04740  0.61610  Biso   1.000  H
  C91      1.0000 0.77600  0.01200  0.42200  Biso   1.000  C
  C92      1.0000 0.22400  0.98800  0.57800  Biso   1.000  C
  C93      1.0000 0.69800  0.01800  0.44100  Biso   1.000  C
  C94      1.0000 0.30200  0.98200  0.55900  Biso   1.000  C
  C95      1.0000 0.67200  0.96300  0.43300  Biso   1.000  C
  C96      1.0000 0.32800  0.03700  0.56700  Biso   1.000  C
  H79      1.0000 0.62090  0.96410  0.44780  Biso   1.000  H
  H80      1.0000 0.37910  0.03590  0.55220  Biso   1.000  H
  C97      1.0000 0.91000  0.85800  0.32100  Biso   1.000  C
  C98      1.0000 0.09000  0.14200  0.67900  Biso   1.000  C
  H81      1.0000 0.95330  0.83500  0.36310  Biso   1.000  H
  H82      1.0000 0.04670  0.16500  0.63690  Biso   1.000  H
  H83      1.0000 0.89940  0.91900  0.28540  Biso   1.000  H
  H84      1.0000 0.10060  0.08100  0.71460  Biso   1.000  H
  C99      1.0000 0.93900  0.80900  0.27700  Biso   1.000  C
  C100     1.0000 0.06100  0.19100  0.72300  Biso   1.000  C
  C101     1.0000 0.87800  0.06800  0.40900  Biso   1.000  C
  C102     1.0000 0.12200  0.93200  0.59100  Biso   1.000  C
  H85      1.0000 0.88340  0.07340  0.35710  Biso   1.000  H
  H86      1.0000 0.11660  0.92660  0.64290  Biso   1.000  H
  H87      1.0000 0.92200  0.01480  0.44670  Biso   1.000  H
  H88      1.0000 0.07800  0.98520  0.55330  Biso   1.000  H
  C103     1.0000 0.88000  0.14200  0.40700  Biso   1.000  C
  C104     1.0000 0.12000  0.85800  0.59300  Biso   1.000  C
  C105     1.0000 0.88100  0.20500  0.40200  Biso   1.000  C
  C106     1.0000 0.11900  0.79500  0.59800  Biso   1.000  C
  H89      1.0000 0.88160  0.25480  0.39710  Biso   1.000  H
  H90      1.0000 0.11840  0.74520  0.60290  Biso   1.000  H
  C107     1.0000 0.64400  0.08300  0.46500  Biso   1.000  C
  C108     1.0000 0.35600  0.91700  0.53500  Biso   1.000  C
  H91      1.0000 0.65470  0.13500  0.43300  Biso   1.000  H
  H92      1.0000 0.34530  0.86500  0.56700  Biso   1.000  H
  C109     1.0000 0.55200  0.11200  0.44700  Biso   1.000  C
  C110     1.0000 0.44800  0.88800  0.55300  Biso   1.000  C
  H93      1.0000 0.53930  0.06120  0.47460  Biso   1.000  H
  H94      1.0000 0.46070  0.93880  0.52540  Biso   1.000  H
  H95      1.0000 0.52210  0.15020  0.46750  Biso   1.000  H
  H96      1.0000 0.47790  0.84980  0.53250  Biso   1.000  H
  C111     1.0000 0.52000  0.15800  0.36000  Biso   1.000  C
  C112     1.0000 0.48000  0.84200  0.64000  Biso   1.000  C
  H97      1.0000 0.46140  0.17420  0.35420  Biso   1.000  H
  H98      1.0000 0.53860  0.82580  0.64580  Biso   1.000  H
  H99      1.0000 0.54700  0.12070  0.33910  Biso   1.000  H
  H100     1.0000 0.45300  0.87930  0.66090  Biso   1.000  H
  H101     1.0000 0.52980  0.20980  0.33210  Biso   1.000  H
  H102     1.0000 0.47020  0.79020  0.66790  Biso   1.000  H
  C113     1.0000 0.67500  0.46500  0.11200  Biso   1.000  C
  C114     1.0000 0.32500  0.53500  0.88800  Biso   1.000  C
  H103     1.0000 0.66720  0.43120  0.09570  Biso   1.000  H
  H104     1.0000 0.33280  0.56880  0.90430  Biso   1.000  H
  C115     1.0000 0.69900  0.43000  0.19200  Biso   1.000  C
  C116     1.0000 0.30100  0.57000  0.80800  Biso   1.000  C
  C117     1.0000 0.71000  0.48200  0.21500  Biso   1.000  C
  C118     1.0000 0.29000  0.51800  0.78500  Biso   1.000  C
  C119     1.0000 0.69700  0.56700  0.16100  Biso   1.000  C
  C120     1.0000 0.30300  0.43300  0.83900  Biso   1.000  C
  H105     1.0000 0.70420  0.60150  0.17710  Biso   1.000  H
  H106     1.0000 0.29580  0.39850  0.82290  Biso   1.000  H
  C121     1.0000 0.67300  0.60000  0.08100  Biso   1.000  C
  C122     1.0000 0.32700  0.40000  0.91900  Biso   1.000  C
  C123     1.0000 0.66200  0.55000  0.05600  Biso   1.000  C
  C124     1.0000 0.33800  0.45000  0.94400  Biso   1.000  C
  C125     1.0000 0.72800  0.49500  0.32600  Biso   1.000  C
  C126     1.0000 0.27200  0.50500  0.67400  Biso   1.000  C
  H107     1.0000 0.67180  0.53940  0.30910  Biso   1.000  H
  H108     1.0000 0.32820  0.46060  0.69090  Biso   1.000  H
  H109     1.0000 0.76530  0.52260  0.30680  Biso   1.000  H
  H110     1.0000 0.23470  0.47740  0.69320  Biso   1.000  H
  C127     1.0000 0.74400  0.43900  0.41500  Biso   1.000  C
  C128     1.0000 0.25600  0.56100  0.58500  Biso   1.000  C
  C129     1.0000 0.63800  0.74900  0.04000  Biso   1.000  C
  C130     1.0000 0.36200  0.25100  0.96000  Biso   1.000  C
  H111     1.0000 0.65650  0.79370  0.00440  Biso   1.000  H
  H112     1.0000 0.34350  0.20630  0.99560  Biso   1.000  H
  H113     1.0000 0.65930  0.72760  0.09380  Biso   1.000  H
  H114     1.0000 0.34070  0.27240  0.90620  Biso   1.000  H
  C131     1.0000 0.54600  0.78800  0.03100  Biso   1.000  C
  C132     1.0000 0.45400  0.21200  0.96900  Biso   1.000  C
  C133     1.0000 0.47200  0.81800  0.02300  Biso   1.000  C
  C134     1.0000 0.52800  0.18200  0.97700  Biso   1.000  C
  H115     1.0000 0.41480  0.84090  0.01620  Biso   1.000  H
  H116     1.0000 0.58520  0.15910  0.98380  Biso   1.000  H
  C135     1.0000 0.63900  0.58500  0.96800  Biso   1.000  C
  C136     1.0000 0.36100  0.41500  0.03200  Biso   1.000  C
  H117     1.0000 0.65080  0.63640  0.93870  Biso   1.000  H
  H118     1.0000 0.34920  0.36360  0.06130  Biso   1.000  H
  C137     1.0000 0.54600  0.61600  0.94900  Biso   1.000  C
  C138     1.0000 0.45400  0.38400  0.05100  Biso   1.000  C
  H119     1.0000 0.53280  0.56640  0.97400  Biso   1.000  H
  H120     1.0000 0.46720  0.43360  0.02600  Biso   1.000  H
  H121     1.0000 0.51720  0.65310  0.97110  Biso   1.000  H
  H122     1.0000 0.48280  0.34690  0.02890  Biso   1.000  H
  C139     1.0000 0.51700  0.66600  0.86100  Biso   1.000  C
  C140     1.0000 0.48300  0.33400  0.13900  Biso   1.000  C
  H123     1.0000 0.45880  0.68410  0.85290  Biso   1.000  H
  H124     1.0000 0.54120  0.31590  0.14710  Biso   1.000  H
  H125     1.0000 0.54480  0.62980  0.83900  Biso   1.000  H
  H126     1.0000 0.45520  0.37020  0.16100  Biso   1.000  H
  H127     1.0000 0.52920  0.71660  0.83610  Biso   1.000  H
  H128     1.0000 0.47080  0.28340  0.16390  Biso   1.000  H
  C141     1.0000 0.69300  0.52000  0.94300  Biso   1.000  C
  C142     1.0000 0.30700  0.48000  0.05700  Biso   1.000  C
  C143     1.0000 0.66600  0.46900  0.93000  Biso   1.000  C
  C144     1.0000 0.33400  0.53100  0.07000  Biso   1.000  C
  H129     1.0000 0.61280  0.47420  0.93840  Biso   1.000  H
  H130     1.0000 0.38720  0.52580  0.06160  Biso   1.000  H
  C145     1.0000 0.71400  0.41200  0.90500  Biso   1.000  C
  C146     1.0000 0.28600  0.58800  0.09500  Biso   1.000  C
  C147     1.0000 0.79400  0.40300  0.89500  Biso   1.000  C
  C148     1.0000 0.20600  0.59700  0.10500  Biso   1.000  C
  C149     1.0000 0.82400  0.45200  0.90900  Biso   1.000  C
  C150     1.0000 0.17600  0.54800  0.09100  Biso   1.000  C
  H131     1.0000 0.87850  0.44560  0.90170  Biso   1.000  H
  H132     1.0000 0.12150  0.55440  0.09830  Biso   1.000  H
  C151     1.0000 0.77300  0.51000  0.93200  Biso   1.000  C
  C152     1.0000 0.22700  0.49000  0.06800  Biso   1.000  C
  C153     1.0000 0.87500  0.56200  0.92900  Biso   1.000  C
  C154     1.0000 0.12500  0.43800  0.07100  Biso   1.000  C
  H133     1.0000 0.88090  0.57760  0.87480  Biso   1.000  H
  H134     1.0000 0.11910  0.42240  0.12520  Biso   1.000  H
  H135     1.0000 0.91790  0.50540  0.96330  Biso   1.000  H
  H136     1.0000 0.08210  0.49460  0.03670  Biso   1.000  H
  C155     1.0000 0.88100  0.62900  0.94500  Biso   1.000  C
  C156     1.0000 0.11900  0.37100  0.05500  Biso   1.000  C
  C157     1.0000 0.91200  0.34900  0.83600  Biso   1.000  C
  C158     1.0000 0.08800  0.65100  0.16400  Biso   1.000  C
  H137     1.0000 0.89930  0.40950  0.79640  Biso   1.000  H
  H138     1.0000 0.10070  0.59050  0.20360  Biso   1.000  H
  H139     1.0000 0.92570  0.31680  0.80800  Biso   1.000  H
  H140     1.0000 0.07430  0.68320  0.19200  Biso   1.000  H
  C159     1.0000 0.98400  0.31700  0.88800  Biso   1.000  C
  C160     1.0000 0.01600  0.68300  0.11200  Biso   1.000  C
  C161     1.0000 0.04200  0.29200  0.93000  Biso   1.000  C
  C162     1.0000 0.95800  0.70800  0.07000  Biso   1.000  C
  H141     1.0000 0.08880  0.27110  0.96360  Biso   1.000  H
  H142     1.0000 0.91120  0.72890  0.03640  Biso   1.000  H
  C163     1.0000 0.68000  0.36500  0.88200  Biso   1.000  C
  C164     1.0000 0.32000  0.63500  0.11800  Biso   1.000  C
  H143     1.0000 0.69960  0.37130  0.83200  Biso   1.000  H
  H144     1.0000 0.30040  0.62870  0.16800  Biso   1.000  H
  C165     1.0000 0.58500  0.40500  0.86700  Biso   1.000  C
  C166     1.0000 0.41500  0.59500  0.13300  Biso   1.000  C
  H145     1.0000 0.56420  0.39240  0.91780  Biso   1.000  H
  H146     1.0000 0.43580  0.60760  0.08220  Biso   1.000  H
  H147     1.0000 0.56550  0.46800  0.83520  Biso   1.000  H
  H148     1.0000 0.43450  0.53200  0.16480  Biso   1.000  H
  C167     1.0000 0.55000  0.37300  0.82700  Biso   1.000  C
  C168     1.0000 0.45000  0.62700  0.17300  Biso   1.000  C
  H149     1.0000 0.49140  0.40100  0.81960  Biso   1.000  H
  H150     1.0000 0.50860  0.59900  0.18040  Biso   1.000  H
  H151     1.0000 0.56840  0.31150  0.85910  Biso   1.000  H
  H152     1.0000 0.43160  0.68850  0.14090  Biso   1.000  H
  H153     1.0000 0.56970  0.38720  0.77640  Biso   1.000  H
  H154     1.0000 0.43030  0.61280  0.22360  Biso   1.000  H
  C169     1.0000 0.71400  0.26800  0.94100  Biso   1.000  C
  C170     1.0000 0.28600  0.73200  0.05900  Biso   1.000  C
  C171     1.0000 0.74100  0.20800  0.91500  Biso   1.000  C
  C172     1.0000 0.25900  0.79200  0.08500  Biso   1.000  C
  C173     1.0000 0.77100  0.12000  0.96700  Biso   1.000  C
  C174     1.0000 0.22900  0.88000  0.03300  Biso   1.000  C
  H155     1.0000 0.78910  0.08080  0.94870  Biso   1.000  H
  H156     1.0000 0.21090  0.91920  0.05130  Biso   1.000  H
  C175     1.0000 0.77400  0.08900  0.04800  Biso   1.000  C
  C176     1.0000 0.22600  0.91100  0.95200  Biso   1.000  C
  C177     1.0000 0.74900  0.14500  0.07700  Biso   1.000  C
  C178     1.0000 0.25100  0.85500  0.92300  Biso   1.000  C
  C179     1.0000 0.71800  0.23500  0.02200  Biso   1.000  C
  C180     1.0000 0.28200  0.76500  0.97800  Biso   1.000  C
  H157     1.0000 0.69980  0.27330  0.04070  Biso   1.000  H
  H158     1.0000 0.30020  0.72670  0.95930  Biso   1.000  H
  C181     1.0000 0.79400  0.20200  0.80200  Biso   1.000  C
  C182     1.0000 0.20600  0.79800  0.19800  Biso   1.000  C
  H159     1.0000 0.79680  0.14470  0.81990  Biso   1.000  H
  H160     1.0000 0.20320  0.85530  0.18010  Biso   1.000  H
  H161     1.0000 0.84720  0.19470  0.81980  Biso   1.000  H
  H162     1.0000 0.15280  0.80530  0.18020  Biso   1.000  H
  C183     1.0000 0.77800  0.25500  0.71300  Biso   1.000  C
  C184     1.0000 0.22200  0.74500  0.28700  Biso   1.000  C
  C185     1.0000 0.82100  0.94100  0.07700  Biso   1.000  C
  C186     1.0000 0.17900  0.05900  0.92300  Biso   1.000  C
  H163     1.0000 0.85870  0.94910  0.03840  Biso   1.000  H
  H164     1.0000 0.14130  0.05090  0.96160  Biso   1.000  H
  H165     1.0000 0.84750  0.88250  0.12190  Biso   1.000  H
  H166     1.0000 0.15250  0.11750  0.87810  Biso   1.000  H
  C187     1.0000 0.75000  0.94800  0.04400  Biso   1.000  C
  C188     1.0000 0.25000  0.05200  0.95600  Biso   1.000  C
  C189     1.0000 0.68700  0.95700  0.01400  Biso   1.000  C
  C190     1.0000 0.31300  0.04300  0.98600  Biso   1.000  C
  H167     1.0000 0.63970  0.96330  0.99120  Biso   1.000  H
  H168     1.0000 0.36030  0.03670  0.00880  Biso   1.000  H
  C191     1.0000 0.75600  0.11400  0.16600  Biso   1.000  C
  C192     1.0000 0.24400  0.88600  0.83400  Biso   1.000  C
  H169     1.0000 0.79820  0.05370  0.19210  Biso   1.000  H
  H170     1.0000 0.20180  0.94630  0.80790  Biso   1.000  H
  C193     1.0000 0.67600  0.11100  0.19900  Biso   1.000  C
  C194     1.0000 0.32400  0.88900  0.80100  Biso   1.000  C
  H171     1.0000 0.63240  0.16910  0.17060  Biso   1.000  H
  H172     1.0000 0.36760  0.83090  0.82940  Biso   1.000  H
  H173     1.0000 0.68250  0.09490  0.25390  Biso   1.000  H
  H174     1.0000 0.31750  0.90510  0.74610  Biso   1.000  H
  C195     1.0000 0.65100  0.04800  0.19200  Biso   1.000  C
  C196     1.0000 0.34900  0.95200  0.80800  Biso   1.000  C
  H175     1.0000 0.60060  0.04980  0.21420  Biso   1.000  H
  H176     1.0000 0.39940  0.95020  0.78580  Biso   1.000  H
  H177     1.0000 0.69360  0.99040  0.22130  Biso   1.000  H
  H178     1.0000 0.30640  0.00960  0.77870  Biso   1.000  H
  H179     1.0000 0.64350  0.06460  0.13780  Biso   1.000  H
  H180     1.0000 0.35650  0.93540  0.86220  Biso   1.000  H
  C197     1.0000 0.63600  0.32600  0.27900  Biso   1.000  C
  C198     1.0000 0.36400  0.67400  0.72100  Biso   1.000  C
  H181     1.0000 0.59950  0.34530  0.23310  Biso   1.000  H
  H182     1.0000 0.40050  0.65470  0.76690  Biso   1.000  H
  H183     1.0000 0.64890  0.26470  0.31430  Biso   1.000  H
  H184     1.0000 0.35110  0.73530  0.68570  Biso   1.000  H
  C199     1.0000 0.86400  0.16700  0.16300  Biso   1.000  C
  C200     1.0000 0.13600  0.83300  0.83700  Biso   1.000  C
  C201     1.0000 0.89100  0.21900  0.17200  Biso   1.000  C
  C202     1.0000 0.10900  0.78100  0.82800  Biso   1.000  C
  H185     1.0000 0.94330  0.21730  0.15880  Biso   1.000  H
  H186     1.0000 0.05670  0.78270  0.84120  Biso   1.000  H
  C203     1.0000 0.84300  0.27400  0.19800  Biso   1.000  C
  C204     1.0000 0.15700  0.72600  0.80200  Biso   1.000  C
  C205     1.0000 0.76700  0.27500  0.22000  Biso   1.000  C
  C206     1.0000 0.23300  0.72500  0.78000  Biso   1.000  C
  C207     1.0000 0.74100  0.22200  0.21100  Biso   1.000  C
  C208     1.0000 0.25900  0.77800  0.78900  Biso   1.000  C
  H187     1.0000 0.68970  0.22220  0.22570  Biso   1.000  H
  H188     1.0000 0.31030  0.77780  0.77430  Biso   1.000  H
  C209     1.0000 0.93300  0.15000  0.06000  Biso   1.000  C
  C210     1.0000 0.06700  0.85000  0.94000  Biso   1.000  C
  H189     1.0000 0.97410  0.17100  0.05950  Biso   1.000  H
  H190     1.0000 0.02590  0.82900  0.94050  Biso   1.000  H
  H191     1.0000 0.88460  0.19890  0.02390  Biso   1.000  H
  H192     1.0000 0.11540  0.80110  0.97610  Biso   1.000  H
  C211     1.0000 0.96700  0.08400  0.03400  Biso   1.000  C
  C212     1.0000 0.03300  0.91600  0.96600  Biso   1.000  C
  C213     1.0000 0.91300  0.36400  0.15100  Biso   1.000  C
  C214     1.0000 0.08700  0.63600  0.84900  Biso   1.000  C
  H193     1.0000 0.88820  0.38390  0.09900  Biso   1.000  H
  H194     1.0000 0.11180  0.61610  0.90100  Biso   1.000  H
  H195     1.0000 0.96910  0.32070  0.15980  Biso   1.000  H
  H196     1.0000 0.03090  0.67930  0.84020  Biso   1.000  H
  C215     1.0000 0.91600  0.43700  0.15300  Biso   1.000  C
  C216     1.0000 0.08400  0.56300  0.84700  Biso   1.000  C
  C217     1.0000 0.92000  0.49500  0.15300  Biso   1.000  C
  C218     1.0000 0.08000  0.50500  0.84700  Biso   1.000  C
  H197     1.0000 0.92270  0.54150  0.15330  Biso   1.000  H
  H198     1.0000 0.07730  0.45850  0.84670  Biso   1.000  H
  C219     1.0000 0.71600  0.33500  0.25100  Biso   1.000  C
  C220     1.0000 0.28400  0.66500  0.74900  Biso   1.000  C
  H199     1.0000 0.74910  0.31910  0.29760  Biso   1.000  H
  H200     1.0000 0.25090  0.68090  0.70240  Biso   1.000  H
  C221     1.0000 0.78700  0.16700  0.18200  Biso   1.000  C
  C222     1.0000 0.21300  0.83300  0.81800  Biso   1.000  C
  C223     1.0000 0.59100  0.37600  0.32000  Biso   1.000  C
  C224     1.0000 0.40900  0.62400  0.68000  Biso   1.000  C
  H201     1.0000 0.54150  0.36700  0.33610  Biso   1.000  H
  H202     1.0000 0.45850  0.63300  0.66390  Biso   1.000  H
  H203     1.0000 0.57620  0.43710  0.28520  Biso   1.000  H
  H204     1.0000 0.42380  0.56290  0.71480  Biso   1.000  H
  H205     1.0000 0.62560  0.35630  0.36650  Biso   1.000  H
  H206     1.0000 0.37440  0.64370  0.63350  Biso   1.000  H
  O1       1.0000 0.63500  0.19860  0.51140  Biso   1.000  O
  O2       1.0000 0.36500  0.80140  0.48860  Biso   1.000  O
  O3       1.0000 0.73700  0.25200  0.54800  Biso   1.000  O
  O4       1.0000 0.26300  0.74800  0.45200  Biso   1.000  O
  O5       1.0000 0.62900  0.35900  0.55200  Biso   1.000  O
  O6       1.0000 0.37100  0.64100  0.44800  Biso   1.000  O
  O7       1.0000 0.72400  0.97500  0.78610  Biso   1.000  O
  O8       1.0000 0.27600  0.02500  0.21390  Biso   1.000  O
  O9       1.0000 0.88600  0.83200  0.72700  Biso   1.000  O
  O10      1.0000 0.11400  0.16800  0.27300  Biso   1.000  O
  O11      1.0000 0.91400  0.94700  0.73900  Biso   1.000  O
  O12      1.0000 0.08600  0.05300  0.26100  Biso   1.000  O
  H207     1.0000 0.92250  0.98530  0.73950  Biso   1.000  H
  H208     1.0000 0.07750  0.01470  0.26050  Biso   1.000  H
  O13      1.0000 0.86900  0.32700  0.20800  Biso   1.000  O
  O14      1.0000 0.13100  0.67300  0.79200  Biso   1.000  O
  O15      1.0000 0.93800  0.01100  0.61400  Biso   1.000  O
  O16      1.0000 0.06200  0.98900  0.38600  Biso   1.000  O
  O17      1.0000 0.93800  0.60700  0.66700  Biso   1.000  O
  O18      1.0000 0.06200  0.39300  0.33300  Biso   1.000  O
  O19      1.0000 0.86900  0.49700  0.62800  Biso   1.000  O
  O20      1.0000 0.13100  0.50300  0.37200  Biso   1.000  O
  O21      1.0000 0.88700  0.34100  0.57400  Biso   1.000  O
  O22      1.0000 0.11300  0.65900  0.42600  Biso   1.000  O
  O23      1.0000 0.77700  0.44300  0.58400  Biso   1.000  O
  O24      1.0000 0.22300  0.55700  0.41600  Biso   1.000  O
  O25      1.0000 0.77200  0.71800  0.35400  Biso   1.000  O
  O26      1.0000 0.22800  0.28200  0.64600  Biso   1.000  O
  O27      1.0000 0.83800  0.85300  0.35500  Biso   1.000  O
  O28      1.0000 0.16200  0.14700  0.64500  Biso   1.000  O
  O29      1.0000 0.89700  0.76600  0.28000  Biso   1.000  O
  O30      1.0000 0.10300  0.23400  0.72000  Biso   1.000  O
  H209     1.0000 0.85960  0.77220  0.30600  Biso   1.000  H
  H210     1.0000 0.14040  0.22780  0.69400  Biso   1.000  H
  O31      1.0000 0.99800  0.80700  0.24400  Biso   1.000  O
  O32      1.0000 0.00200  0.19300  0.75600  Biso   1.000  O
  O33      1.0000 0.80000  0.06600  0.43100  Biso   1.000  O
  O34      1.0000 0.20000  0.93400  0.56900  Biso   1.000  O
  O35      1.0000 0.73800  0.44300  0.29390  Biso   1.000  O
  O36      1.0000 0.26200  0.55700  0.70610  Biso   1.000  O
  O37      1.0000 0.80200  0.36500  0.44520  Biso   1.000  O
  O38      1.0000 0.19800  0.63500  0.55480  Biso   1.000  O
  O39      1.0000 0.69600  0.47300  0.45180  Biso   1.000  O
  O40      1.0000 0.30400  0.52700  0.54820  Biso   1.000  O
  O41      1.0000 0.66700  0.68200  0.02370  Biso   1.000  O
  O42      1.0000 0.33300  0.31800  0.97630  Biso   1.000  O
  O43      1.0000 0.79700  0.56200  0.94600  Biso   1.000  O
  O44      1.0000 0.20300  0.43800  0.05400  Biso   1.000  O
  O45      1.0000 0.94500  0.63700  0.94000  Biso   1.000  O
  O46      1.0000 0.05500  0.36300  0.06000  Biso   1.000  O
  H211     1.0000 0.94020  0.67480  0.94950  Biso   1.000  H
  H212     1.0000 0.05980  0.32520  0.05050  Biso   1.000  H
  O47      1.0000 0.81700  0.67600  0.96300  Biso   1.000  O
  O48      1.0000 0.18300  0.32400  0.03700  Biso   1.000  O
  O49      1.0000 0.84100  0.34400  0.87200  Biso   1.000  O
  O50      1.0000 0.15900  0.65600  0.12800  Biso   1.000  O
  O51      1.0000 0.73400  0.24200  0.83390  Biso   1.000  O
  O52      1.0000 0.26600  0.75800  0.16610  Biso   1.000  O
  O53      1.0000 0.82800  0.22100  0.67730  Biso   1.000  O
  O54      1.0000 0.17200  0.77900  0.32270  Biso   1.000  O
  O55      1.0000 0.71700  0.32700  0.68160  Biso   1.000  O
  O56      1.0000 0.28300  0.67300  0.31840  Biso   1.000  O
  O57      1.0000 0.80500  0.00100  0.10330  Biso   1.000  O
  O58      1.0000 0.19500  0.99900  0.89670  Biso   1.000  O
  O59      1.0000 0.91300  0.11000  0.13720  Biso   1.000  O
  O60      1.0000 0.08700  0.89000  0.86280  Biso   1.000  O
  O61      1.0000 0.98900  0.00700  0.08000  Biso   1.000  O
  O62      1.0000 0.01100  0.99300  0.92000  Biso   1.000  O
  H213     1.0000 0.00520  0.97990  0.05650  Biso   1.000  H
  H214     1.0000 0.99480  0.02010  0.94350  Biso   1.000  H
  O63      1.0000 0.96800  0.11800  0.95800  Biso   1.000  O
  O64      1.0000 0.03200  0.88200  0.04200  Biso   1.000  O
  O65      1.0000 0.92800  0.17400  0.56300  Biso   1.000  O
  O66      1.0000 0.07200  0.82600  0.43700  Biso   1.000  O
  O67      1.0000 0.58200  0.51800  0.57100  Biso   1.000  O
  O68      1.0000 0.41800  0.48200  0.42900  Biso   1.000  O
  H215     1.0000 0.55000  0.49000  0.59000  Biso   1.000  H
  H216     1.0000 0.45000  0.51000  0.41000  Biso   1.000  H
  H217     1.0000 0.59000  0.54000  0.52100  Biso   1.000  H
  H218     1.0000 0.41000  0.46000  0.47900  Biso   1.000  H
  O69      1.0000 0.90000  0.82200  0.89200  Biso   1.000  O
  O70      1.0000 0.10000  0.17800  0.10800  Biso   1.000  O
  O71      1.0000 0.95500  0.05200  0.75400  Biso   1.000  O
  O72      1.0000 0.04500  0.94800  0.24600  Biso   1.000  O
  O73      1.0000 0.50000  0.50000  0.50000  Biso   1.000  O
  H219     1.0000 0.46000  0.52200  0.53100  Biso   1.000  H
  H220     1.0000 0.54000  0.47800  0.46900  Biso   1.000  H
  O74      1.0000 0.47700  0.43400  0.61200  Biso   1.000  O
  O75      1.0000 0.52300  0.56600  0.38800  Biso   1.000  O
  H221     1.0000 0.49000  0.38000  0.63000  Biso   1.000  H
  H222     1.0000 0.51000  0.62000  0.37000  Biso   1.000  H
  H223     1.0000 0.43000  0.46000  0.62000  Biso   1.000  H
  H224     1.0000 0.57000  0.54000  0.38000  Biso   1.000  H
  C225     1.0000 0.65000  0.79000  0.20000  Biso   1.000  C
  C226     1.0000 0.35000  0.21000  0.80000  Biso   1.000  C
