data_image0
_cell_length_a       7.362
_cell_length_b       8.89
_cell_length_c       11.842
_cell_angle_alpha    101.44
_cell_angle_beta     98.08
_cell_angle_gamma    92.53

_symmetry_space_group_name_H-M    "P 1"
_symmetry_int_tables_number       1

loop_
  _symmetry_equiv_pos_as_xyz
  'x, y, z'

loop_
  _atom_site_label
  _atom_site_occupancy
  _atom_site_fract_x
  _atom_site_fract_y
  _atom_site_fract_z
  _atom_site_thermal_displace_type
  _atom_site_B_iso_or_equiv
  _atom_site_type_symbol
  Cu1      1.0000 0.14150  0.29267  0.13413  Biso   1.000  Cu
  Cu2      1.0000 0.85850  0.70733  0.86587  Biso   1.000  Cu
  C1       1.0000 0.04790  0.45120  0.95120  Biso   1.000  C
  C2       1.0000 0.95210  0.54880  0.04880  Biso   1.000  C
  C3       1.0000 0.09440  0.96610  0.99240  Biso   1.000  C
  C4       1.0000 0.90560  0.03390  0.00760  Biso   1.000  C
  C5       1.0000 0.40170  0.57020  0.20020  Biso   1.000  C
  C6       1.0000 0.59830  0.42980  0.79980  Biso   1.000  C
  H1       1.0000 0.31920  0.61670  0.25050  Biso   1.000  H
  H2       1.0000 0.68080  0.38330  0.74950  Biso   1.000  H
  H3       1.0000 0.36430  0.58640  0.12280  Biso   1.000  H
  H4       1.0000 0.63570  0.41360  0.87720  Biso   1.000  H
  H5       1.0000 0.52440  0.61580  0.22880  Biso   1.000  H
  H6       1.0000 0.47560  0.38420  0.77120  Biso   1.000  H
  C7       1.0000 0.53390  0.33720  0.12560  Biso   1.000  C
  C8       1.0000 0.46610  0.66280  0.87440  Biso   1.000  C
  H7       1.0000 0.49190  0.34000  0.04560  Biso   1.000  H
  H8       1.0000 0.50810  0.66000  0.95440  Biso   1.000  H
  H9       1.0000 0.54960  0.23270  0.13270  Biso   1.000  H
  H10      1.0000 0.45040  0.76730  0.86730  Biso   1.000  H
  H11      1.0000 0.64940  0.39710  0.15140  Biso   1.000  H
  H12      1.0000 0.35060  0.60290  0.84860  Biso   1.000  H
  C9       1.0000 0.44530  0.37260  0.31630  Biso   1.000  C
  C10      1.0000 0.55470  0.62740  0.68370  Biso   1.000  C
  H13      1.0000 0.50240  0.27580  0.31190  Biso   1.000  H
  H14      1.0000 0.49760  0.72420  0.68810  Biso   1.000  H
  H15      1.0000 0.53420  0.45360  0.36170  Biso   1.000  H
  H16      1.0000 0.46580  0.54640  0.63830  Biso   1.000  H
  C11      1.0000 0.28520  0.36700  0.37480  Biso   1.000  C
  C12      1.0000 0.71480  0.63300  0.62520  Biso   1.000  C
  H17      1.0000 0.24180  0.46920  0.39270  Biso   1.000  H
  H18      1.0000 0.75820  0.53080  0.60730  Biso   1.000  H
  H19      1.0000 0.31940  0.33380  0.44760  Biso   1.000  H
  H20      1.0000 0.68060  0.66620  0.55240  Biso   1.000  H
  C13      1.0000 0.14970  0.09680  0.31060  Biso   1.000  C
  C14      1.0000 0.85030  0.90320  0.68940  Biso   1.000  C
  H21      1.0000 0.16310  0.09070  0.39130  Biso   1.000  H
  H22      1.0000 0.83690  0.90930  0.60870  Biso   1.000  H
  H23      1.0000 0.25510  0.05850  0.27820  Biso   1.000  H
  H24      1.0000 0.74490  0.94150  0.72180  Biso   1.000  H
  H25      1.0000 0.04080  0.03610  0.26910  Biso   1.000  H
  H26      1.0000 0.95920  0.96390  0.73090  Biso   1.000  H
  C15      1.0000 0.96300  0.30650  0.34130  Biso   1.000  C
  C16      1.0000 0.03700  0.69350  0.65870  Biso   1.000  C
  H27      1.0000 0.86120  0.24100  0.29500  Biso   1.000  H
  H28      1.0000 0.13880  0.75900  0.70500  Biso   1.000  H
  H29      1.0000 0.94710  0.41110  0.33460  Biso   1.000  H
  H30      1.0000 0.05290  0.58890  0.66540  Biso   1.000  H
  H31      1.0000 0.96860  0.29870  0.42140  Biso   1.000  H
  H32      1.0000 0.03140  0.70130  0.57860  Biso   1.000  H
  O1       1.0000 0.14400  0.34670  0.97820  Biso   1.000  O
  O2       1.0000 0.85600  0.65330  0.02180  Biso   1.000  O
  O3       1.0000 0.97780  0.51450  0.14610  Biso   1.000  O
  O4       1.0000 0.02220  0.48550  0.85390  Biso   1.000  O
  O5       1.0000 0.09430  0.83560  0.92890  Biso   1.000  O
  O6       1.0000 0.90570  0.16440  0.07110  Biso   1.000  O
  O7       1.0000 0.23420  0.04870  0.04690  Biso   1.000  O
  O8       1.0000 0.76580  0.95130  0.95310  Biso   1.000  O
  O9       1.0000 0.54470  0.92100  0.14460  Biso   1.000  O
  O10      1.0000 0.45530  0.07900  0.85540  Biso   1.000  O
  O11      1.0000 0.64300  0.90450  0.37170  Biso   1.000  O
  O12      1.0000 0.35700  0.09550  0.62830  Biso   1.000  O
  O13      1.0000 0.96460  0.73660  0.35040  Biso   1.000  O
  O14      1.0000 0.03540  0.26340  0.64960  Biso   1.000  O
  O15      1.0000 0.67320  0.18760  0.53000  Biso   1.000  O
  O16      1.0000 0.32680  0.81240  0.47000  Biso   1.000  O
  N1       1.0000 0.39740  0.40130  0.19790  Biso   1.000  N
  N2       1.0000 0.60260  0.59870  0.80210  Biso   1.000  N
  N3       1.0000 0.13450  0.25870  0.30010  Biso   1.000  N
  N4       1.0000 0.86550  0.74130  0.69990  Biso   1.000  N
  H33      1.0000 0.62400  0.91000  0.09600  Biso   1.000  H
  H34      1.0000 0.37600  0.09000  0.90400  Biso   1.000  H
  H35      1.0000 0.46000  0.96100  0.10100  Biso   1.000  H
  H36      1.0000 0.54000  0.03900  0.89900  Biso   1.000  H
  H37      1.0000 0.62900  0.91600  0.29800  Biso   1.000  H
  H38      1.0000 0.37100  0.08400  0.70200  Biso   1.000  H
  H39      1.0000 0.61000  0.80400  0.35200  Biso   1.000  H
  H40      1.0000 0.39000  0.19600  0.64800  Biso   1.000  H
  H41      1.0000 0.95900  0.69400  0.27600  Biso   1.000  H
  H42      1.0000 0.04100  0.30600  0.72400  Biso   1.000  H
  H43      1.0000 0.85600  0.77500  0.34200  Biso   1.000  H
  H44      1.0000 0.14400  0.22500  0.65800  Biso   1.000  H
  H45      1.0000 0.77100  0.19000  0.58200  Biso   1.000  H
  H46      1.0000 0.22900  0.81000  0.41800  Biso   1.000  H
  H47      1.0000 0.59100  0.16300  0.57100  Biso   1.000  H
  H48      1.0000 0.40900  0.83700  0.42900  Biso   1.000  H
