data_image0
_cell_length_a       7.411
_cell_length_b       8.861
_cell_length_c       11.864
_cell_angle_alpha    101.489
_cell_angle_beta     98.077
_cell_angle_gamma    92.537

_symmetry_space_group_name_H-M    "P 1"
_symmetry_int_tables_number       1

loop_
  _symmetry_equiv_pos_as_xyz
  'x, y, z'

loop_
  _atom_site_label
  _atom_site_occupancy
  _atom_site_fract_x
  _atom_site_fract_y
  _atom_site_fract_z
  _atom_site_thermal_displace_type
  _atom_site_B_iso_or_equiv
  _atom_site_type_symbol
  C1       1.0000 0.78750  0.86170  0.87280  Biso   1.000  C
  C2       1.0000 0.21250  0.13830  0.12720  Biso   1.000  C
  H1       1.0000 0.74550  0.96390  0.89550  Biso   1.000  H
  H2       1.0000 0.25450  0.03610  0.10450  Biso   1.000  H
  H3       1.0000 0.82360  0.82350  0.94320  Biso   1.000  H
  H4       1.0000 0.17640  0.17650  0.05680  Biso   1.000  H
  C3       1.0000 0.94310  0.87360  0.81580  Biso   1.000  C
  C4       1.0000 0.05690  0.12640  0.18420  Biso   1.000  C
  H5       1.0000 0.00450  0.77860  0.81170  Biso   1.000  H
  H6       1.0000 0.99550  0.22140  0.18830  Biso   1.000  H
  H7       1.0000 0.02780  0.95700  0.86200  Biso   1.000  H
  H8       1.0000 0.97220  0.04300  0.13800  Biso   1.000  H
  C5       1.0000 0.64720  0.59710  0.80910  Biso   1.000  C
  C6       1.0000 0.35280  0.40290  0.19090  Biso   1.000  C
  H9       1.0000 0.65240  0.58920  0.88900  Biso   1.000  H
  H10      1.0000 0.34760  0.41080  0.11100  Biso   1.000  H
  H11      1.0000 0.75570  0.55990  0.78100  Biso   1.000  H
  H12      1.0000 0.24430  0.44010  0.21900  Biso   1.000  H
  H13      1.0000 0.54190  0.53610  0.76340  Biso   1.000  H
  H14      1.0000 0.45810  0.46390  0.23660  Biso   1.000  H
  C7       1.0000 0.46500  0.80950  0.84300  Biso   1.000  C
  C8       1.0000 0.53500  0.19050  0.15700  Biso   1.000  C
  H15      1.0000 0.36320  0.74040  0.80150  Biso   1.000  H
  H16      1.0000 0.63680  0.25960  0.19850  Biso   1.000  H
  H17      1.0000 0.44600  0.91200  0.83110  Biso   1.000  H
  H18      1.0000 0.55400  0.08800  0.16890  Biso   1.000  H
  H19      1.0000 0.47550  0.80930  0.92460  Biso   1.000  H
  H20      1.0000 0.52450  0.19070  0.07540  Biso   1.000  H
  C9       1.0000 0.03370  0.83760  0.62570  Biso   1.000  C
  C10      1.0000 0.96630  0.16240  0.37430  Biso   1.000  C
  H21      1.0000 0.15030  0.89360  0.65480  Biso   1.000  H
  H22      1.0000 0.84970  0.10640  0.34520  Biso   1.000  H
  H23      1.0000 0.99630  0.84650  0.54660  Biso   1.000  H
  H24      1.0000 0.00370  0.15350  0.45340  Biso   1.000  H
  H25      1.0000 0.04340  0.73070  0.62870  Biso   1.000  H
  H26      1.0000 0.95660  0.26930  0.37130  Biso   1.000  H
  C11      1.0000 0.90300  0.06950  0.70040  Biso   1.000  C
  C12      1.0000 0.09700  0.93050  0.29960  Biso   1.000  C
  H27      1.0000 0.81900  0.11640  0.74910  Biso   1.000  H
  H28      1.0000 0.18100  0.88360  0.25090  Biso   1.000  H
  H29      1.0000 0.86940  0.08600  0.62290  Biso   1.000  H
  H30      1.0000 0.13060  0.91400  0.37710  Biso   1.000  H
  H31      1.0000 0.02450  0.11480  0.73080  Biso   1.000  H
  H32      1.0000 0.97550  0.88520  0.26920  Biso   1.000  H
  Cu1      1.0000 0.64114  0.79281  0.63421  Biso   1.000  Cu
  Cu2      1.0000 0.35886  0.20719  0.36579  Biso   1.000  Cu
  N1       1.0000 0.63430  0.75860  0.79990  Biso   1.000  N
  N2       1.0000 0.36570  0.24140  0.20010  Biso   1.000  N
  N3       1.0000 0.89690  0.90210  0.69780  Biso   1.000  N
  N4       1.0000 0.10310  0.09790  0.30220  Biso   1.000  N
  O1       1.0000 0.52230  0.98550  0.35372  Biso   1.000  O
  O2       1.0000 0.47770  0.01450  0.64628  Biso   1.000  O
  O3       1.0000 0.26620  0.45140  0.45330  Biso   1.000  O
  O4       1.0000 0.73380  0.54860  0.54670  Biso   1.000  O
  O5       1.0000 0.64370  0.84710  0.47864  Biso   1.000  O
  O6       1.0000 0.35630  0.15290  0.52136  Biso   1.000  O
  O7       1.0000 0.40640  0.66350  0.57140  Biso   1.000  O
  O8       1.0000 0.59360  0.33650  0.42860  Biso   1.000  O
  C13      1.0000 0.54740  0.95220  0.45160  Biso   1.000  C
  C14      1.0000 0.45260  0.04780  0.54840  Biso   1.000  C
  C15      1.0000 0.40540  0.53320  0.50670  Biso   1.000  C
  C16      1.0000 0.59460  0.46680  0.49330  Biso   1.000  C
  O9       1.0000 0.95370  0.57900  0.35590  Biso   1.000  O
  O10      1.0000 0.04630  0.42100  0.64410  Biso   1.000  O
  O11      1.0000 0.46360  0.23650  0.85030  Biso   1.000  O
  O12      1.0000 0.53640  0.76350  0.14970  Biso   1.000  O
  O13      1.0000 0.85840  0.59680  0.12850  Biso   1.000  O
  O14      1.0000 0.14160  0.40320  0.87150  Biso   1.000  O
  O15      1.0000 0.82630  0.31360  0.97020  Biso   1.000  O
  O16      1.0000 0.17370  0.68640  0.02980  Biso   1.000  O
  H33      1.0000 0.86060  0.58410  0.40720  Biso   1.000  H
  H34      1.0000 0.13940  0.41590  0.59280  Biso   1.000  H
  H35      1.0000 0.05960  0.54710  0.39740  Biso   1.000  H
  H36      1.0000 0.94040  0.45290  0.60260  Biso   1.000  H
  H37      1.0000 0.43380  0.16370  0.78090  Biso   1.000  H
  H38      1.0000 0.56620  0.83630  0.21910  Biso   1.000  H
  H39      1.0000 0.35250  0.28710  0.86250  Biso   1.000  H
  H40      1.0000 0.64750  0.71290  0.13750  Biso   1.000  H
  H41      1.0000 0.89460  0.57890  0.20040  Biso   1.000  H
  H42      1.0000 0.10540  0.42110  0.79960  Biso   1.000  H
  H43      1.0000 0.81380  0.51330  0.08940  Biso   1.000  H
  H44      1.0000 0.18620  0.48670  0.91060  Biso   1.000  H
  H45      1.0000 0.71960  0.28550  0.93050  Biso   1.000  H
  H46      1.0000 0.28040  0.71450  0.06950  Biso   1.000  H
  H47      1.0000 0.89760  0.32210  0.92010  Biso   1.000  H
  H48      1.0000 0.10240  0.67790  0.07990  Biso   1.000  H
