data_image0
_cell_length_a       7.405
_cell_length_b       8.89
_cell_length_c       11.883
_cell_angle_alpha    101.39
_cell_angle_beta     98.05
_cell_angle_gamma    92.7

_symmetry_space_group_name_H-M    "P 1"
_symmetry_int_tables_number       1

loop_
  _symmetry_equiv_pos_as_xyz
  'x, y, z'

loop_
  _atom_site_label
  _atom_site_occupancy
  _atom_site_fract_x
  _atom_site_fract_y
  _atom_site_fract_z
  _atom_site_thermal_displace_type
  _atom_site_B_iso_or_equiv
  _atom_site_type_symbol
  Cu1      1.0000 0.14160  0.29274  0.13416  Biso   1.000  Cu
  Cu2      1.0000 0.85840  0.70726  0.86584  Biso   1.000  Cu
  C1       1.0000 0.95260  0.54820  0.04893  Biso   1.000  C
  C2       1.0000 0.04740  0.45180  0.95107  Biso   1.000  C
  C3       1.0000 0.90540  0.03350  0.00710  Biso   1.000  C
  C4       1.0000 0.09460  0.96650  0.99290  Biso   1.000  C
  O1       1.0000 0.97780  0.51464  0.14656  Biso   1.000  O
  O2       1.0000 0.02220  0.48536  0.85344  Biso   1.000  O
  O3       1.0000 0.85640  0.65298  0.02179  Biso   1.000  O
  O4       1.0000 0.14360  0.34702  0.97821  Biso   1.000  O
  O5       1.0000 0.90570  0.16393  0.07127  Biso   1.000  O
  O6       1.0000 0.09430  0.83607  0.92873  Biso   1.000  O
  O7       1.0000 0.76590  0.95093  0.95319  Biso   1.000  O
  O8       1.0000 0.23410  0.04907  0.04681  Biso   1.000  O
  O9       1.0000 0.54470  0.92160  0.14492  Biso   1.000  O
  O10      1.0000 0.45530  0.07840  0.85508  Biso   1.000  O
  H1       1.0000 0.44600  0.95500  0.11400  Biso   1.000  H
  H2       1.0000 0.55400  0.04500  0.88600  Biso   1.000  H
  H3       1.0000 0.61800  0.90700  0.10300  Biso   1.000  H
  H4       1.0000 0.38200  0.09300  0.89700  Biso   1.000  H
  O11      1.0000 0.35690  0.09690  0.62837  Biso   1.000  O
  O12      1.0000 0.64310  0.90310  0.37163  Biso   1.000  O
  H5       1.0000 0.38000  0.09800  0.69870  Biso   1.000  H
  H6       1.0000 0.62000  0.90200  0.30130  Biso   1.000  H
  H7       1.0000 0.34800  0.01200  0.58700  Biso   1.000  H
  H8       1.0000 0.65200  0.98800  0.41300  Biso   1.000  H
  O13      1.0000 0.32720  0.81310  0.47040  Biso   1.000  O
  O14      1.0000 0.67280  0.18690  0.52960  Biso   1.000  O
  H9       1.0000 0.22100  0.80400  0.43800  Biso   1.000  H
  H10      1.0000 0.77900  0.19600  0.56200  Biso   1.000  H
  H11      1.0000 0.40300  0.83900  0.43200  Biso   1.000  H
  H12      1.0000 0.59700  0.16100  0.56800  Biso   1.000  H
  O15      1.0000 0.96440  0.73580  0.35038  Biso   1.000  O
  O16      1.0000 0.03560  0.26420  0.64962  Biso   1.000  O
  H13      1.0000 0.95800  0.68100  0.28310  Biso   1.000  H
  H14      1.0000 0.04200  0.31900  0.71690  Biso   1.000  H
  H15      1.0000 0.87700  0.79000  0.35600  Biso   1.000  H
  H16      1.0000 0.12300  0.21000  0.64400  Biso   1.000  H
  N1       1.0000 0.13390  0.25800  0.30008  Biso   1.000  N
  N2       1.0000 0.86610  0.74200  0.69992  Biso   1.000  N
  C5       1.0000 0.28220  0.37110  0.37480  Biso   1.000  C
  C6       1.0000 0.71780  0.62890  0.62520  Biso   1.000  C
  H17      1.0000 0.31080  0.34590  0.45070  Biso   1.000  H
  H18      1.0000 0.68920  0.65410  0.54930  Biso   1.000  H
  H19      1.0000 0.24220  0.47460  0.38480  Biso   1.000  H
  H20      1.0000 0.75780  0.52540  0.61520  Biso   1.000  H
  C7       1.0000 0.95690  0.29940  0.33860  Biso   1.000  C
  C8       1.0000 0.04310  0.70060  0.66140  Biso   1.000  C
  H21      1.0000 0.85970  0.22990  0.29160  Biso   1.000  H
  H22      1.0000 0.14030  0.77010  0.70840  Biso   1.000  H
  H23      1.0000 0.93580  0.40280  0.33050  Biso   1.000  H
  H24      1.0000 0.06420  0.59720  0.66950  Biso   1.000  H
  H25      1.0000 0.96110  0.29240  0.41850  Biso   1.000  H
  H26      1.0000 0.03890  0.70760  0.58150  Biso   1.000  H
  C9       1.0000 0.16320  0.09980  0.31370  Biso   1.000  C
  C10      1.0000 0.83680  0.90020  0.68630  Biso   1.000  C
  H27      1.0000 0.28240  0.07470  0.29670  Biso   1.000  H
  H28      1.0000 0.71760  0.92530  0.70330  Biso   1.000  H
  H29      1.0000 0.07190  0.02980  0.26130  Biso   1.000  H
  H30      1.0000 0.92810  0.97020  0.73870  Biso   1.000  H
  H31      1.0000 0.15430  0.09160  0.39220  Biso   1.000  H
  H32      1.0000 0.84570  0.90840  0.60780  Biso   1.000  H
  C11      1.0000 0.44910  0.36120  0.31420  Biso   1.000  C
  C12      1.0000 0.55090  0.63880  0.68580  Biso   1.000  C
  H33      1.0000 0.54830  0.43210  0.36000  Biso   1.000  H
  H34      1.0000 0.45170  0.56790  0.64000  Biso   1.000  H
  H35      1.0000 0.48950  0.25780  0.30450  Biso   1.000  H
  H36      1.0000 0.51050  0.74220  0.69550  Biso   1.000  H
  N3       1.0000 0.39750  0.40200  0.19789  Biso   1.000  N
  N4       1.0000 0.60250  0.59800  0.80211  Biso   1.000  N
  C13      1.0000 0.32930  0.28040  0.35510  Biso   1.000  C
  C14      1.0000 0.67070  0.71960  0.64490  Biso   1.000  C
  H37      1.0000 0.33600  0.29510  0.43870  Biso   1.000  H
  H38      1.0000 0.66400  0.70490  0.56130  Biso   1.000  H
  H39      1.0000 0.39020  0.18860  0.32860  Biso   1.000  H
  H40      1.0000 0.60980  0.81140  0.67140  Biso   1.000  H
  C15      1.0000 0.00800  0.34900  0.35950  Biso   1.000  C
  C16      1.0000 0.99200  0.65100  0.64050  Biso   1.000  C
  H41      1.0000 0.88550  0.31920  0.32010  Biso   1.000  H
  H42      1.0000 0.11450  0.68080  0.67990  Biso   1.000  H
  H43      1.0000 0.03670  0.45620  0.36050  Biso   1.000  H
  H44      1.0000 0.96330  0.54380  0.63950  Biso   1.000  H
  H45      1.0000 0.01710  0.33430  0.43780  Biso   1.000  H
  H46      1.0000 0.98290  0.66570  0.56220  Biso   1.000  H
  C17      1.0000 0.08400  0.08840  0.29510  Biso   1.000  C
  C18      1.0000 0.91600  0.91160  0.70490  Biso   1.000  C
  H47      1.0000 0.16960  0.02730  0.25630  Biso   1.000  H
  H48      1.0000 0.83040  0.97270  0.74370  Biso   1.000  H
  H49      1.0000 0.96300  0.06010  0.25330  Biso   1.000  H
  H50      1.0000 0.03700  0.93990  0.74670  Biso   1.000  H
  H51      1.0000 0.08900  0.07090  0.37260  Biso   1.000  H
  H52      1.0000 0.91100  0.92910  0.62740  Biso   1.000  H
  C19      1.0000 0.42500  0.41430  0.32670  Biso   1.000  C
  C20      1.0000 0.57500  0.58570  0.67330  Biso   1.000  C
  H53      1.0000 0.55480  0.41810  0.35570  Biso   1.000  H
  H54      1.0000 0.44520  0.58190  0.64430  Biso   1.000  H
  H55      1.0000 0.37820  0.50840  0.36390  Biso   1.000  H
  H56      1.0000 0.62180  0.49160  0.63610  Biso   1.000  H
  C21      1.0000 0.40280  0.57030  0.20000  Biso   1.000  C
  C22      1.0000 0.59720  0.42970  0.80000  Biso   1.000  C
  H57      1.0000 0.31940  0.61680  0.24910  Biso   1.000  H
  H58      1.0000 0.68060  0.38320  0.75090  Biso   1.000  H
  H59      1.0000 0.36800  0.58660  0.12270  Biso   1.000  H
  H60      1.0000 0.63200  0.41340  0.87730  Biso   1.000  H
  H61      1.0000 0.52450  0.61610  0.22980  Biso   1.000  H
  H62      1.0000 0.47550  0.38390  0.77020  Biso   1.000  H
  C23      1.0000 0.53450  0.33720  0.12510  Biso   1.000  C
  C24      1.0000 0.46550  0.66280  0.87490  Biso   1.000  C
  H63      1.0000 0.65130  0.39320  0.15370  Biso   1.000  H
  H64      1.0000 0.34870  0.60680  0.84630  Biso   1.000  H
  H65      1.0000 0.49650  0.34560  0.04620  Biso   1.000  H
  H66      1.0000 0.50350  0.65440  0.95380  Biso   1.000  H
  H67      1.0000 0.54430  0.23080  0.12860  Biso   1.000  H
  H68      1.0000 0.45570  0.76920  0.87140  Biso   1.000  H
