data_image0
_cell_length_a       7.3891
_cell_length_b       8.86
_cell_length_c       11.849
_cell_angle_alpha    101.3
_cell_angle_beta     98.024
_cell_angle_gamma    92.745

_symmetry_space_group_name_H-M    "P 1"
_symmetry_int_tables_number       1

loop_
  _symmetry_equiv_pos_as_xyz
  'x, y, z'

loop_
  _atom_site_label
  _atom_site_occupancy
  _atom_site_fract_x
  _atom_site_fract_y
  _atom_site_fract_z
  _atom_site_thermal_displace_type
  _atom_site_B_iso_or_equiv
  _atom_site_type_symbol
  Cu1      1.0000 0.85845  0.20726  0.86589  Biso   1.000  Cu
  Cu2      1.0000 0.14155  0.79274  0.13411  Biso   1.000  Cu
  C1       1.0000 0.09470  0.46670  0.99310  Biso   1.000  C
  C2       1.0000 0.90530  0.53330  0.00690  Biso   1.000  C
  C3       1.0000 0.95310  0.04770  0.04860  Biso   1.000  C
  C4       1.0000 0.04690  0.95230  0.95140  Biso   1.000  C
  O1       1.0000 0.09400  0.33580  0.92890  Biso   1.000  O
  O2       1.0000 0.90600  0.66420  0.07110  Biso   1.000  O
  O3       1.0000 0.85630  0.15320  0.02160  Biso   1.000  O
  O4       1.0000 0.14370  0.84680  0.97840  Biso   1.000  O
  O5       1.0000 0.23360  0.54930  0.04700  Biso   1.000  O
  O6       1.0000 0.76640  0.45070  0.95300  Biso   1.000  O
  O7       1.0000 0.97790  0.01470  0.14610  Biso   1.000  O
  O8       1.0000 0.02210  0.98530  0.85390  Biso   1.000  O
  N1       1.0000 0.60320  0.09770  0.80190  Biso   1.000  N
  N2       1.0000 0.39680  0.90230  0.19810  Biso   1.000  N
  C5       1.0000 0.46570  0.16290  0.87500  Biso   1.000  C
  C6       1.0000 0.53430  0.83710  0.12500  Biso   1.000  C
  H1       1.0000 0.49630  0.14370  0.95210  Biso   1.000  H
  H2       1.0000 0.50370  0.85630  0.04790  Biso   1.000  H
  H3       1.0000 0.34610  0.11470  0.84120  Biso   1.000  H
  H4       1.0000 0.65390  0.88530  0.15880  Biso   1.000  H
  H5       1.0000 0.46620  0.27210  0.87870  Biso   1.000  H
  H6       1.0000 0.53380  0.72790  0.12130  Biso   1.000  H
  C7       1.0000 0.59750  0.93030  0.79970  Biso   1.000  C
  C8       1.0000 0.40250  0.06970  0.20030  Biso   1.000  C
  H7       1.0000 0.62900  0.91380  0.87760  Biso   1.000  H
  H8       1.0000 0.37100  0.08620  0.12240  Biso   1.000  H
  H9       1.0000 0.68360  0.88410  0.75230  Biso   1.000  H
  H10      1.0000 0.31640  0.11590  0.24770  Biso   1.000  H
  H11      1.0000 0.47640  0.88410  0.76790  Biso   1.000  H
  H12      1.0000 0.52360  0.11590  0.23210  Biso   1.000  H
  C9       1.0000 0.55580  0.12670  0.68310  Biso   1.000  C
  C10      1.0000 0.44420  0.87330  0.31690  Biso   1.000  C
  H13      1.0000 0.46950  0.04400  0.63730  Biso   1.000  H
  H14      1.0000 0.53050  0.95600  0.36270  Biso   1.000  H
  H15      1.0000 0.49620  0.22240  0.68730  Biso   1.000  H
  H16      1.0000 0.50380  0.77760  0.31270  Biso   1.000  H
  N3       1.0000 0.86550  0.24240  0.70060  Biso   1.000  N
  N4       1.0000 0.13450  0.75760  0.29940  Biso   1.000  N
  C11      1.0000 0.71290  0.13660  0.62620  Biso   1.000  C
  C12      1.0000 0.28710  0.86340  0.37380  Biso   1.000  C
  H17      1.0000 0.67810  0.17300  0.55480  Biso   1.000  H
  H18      1.0000 0.32190  0.82700  0.44520  Biso   1.000  H
  H19      1.0000 0.75550  0.03440  0.60560  Biso   1.000  H
  H20      1.0000 0.24450  0.96560  0.39440  Biso   1.000  H
  C13      1.0000 0.03620  0.19190  0.65820  Biso   1.000  C
  C14      1.0000 0.96380  0.80810  0.34180  Biso   1.000  C
  H21      1.0000 0.04920  0.08620  0.66410  Biso   1.000  H
  H22      1.0000 0.95080  0.91380  0.33590  Biso   1.000  H
  H23      1.0000 0.13920  0.25560  0.70470  Biso   1.000  H
  H24      1.0000 0.86080  0.74440  0.29530  Biso   1.000  H
  H25      1.0000 0.03100  0.20090  0.57840  Biso   1.000  H
  H26      1.0000 0.96900  0.79910  0.42160  Biso   1.000  H
  C15      1.0000 0.85220  0.40300  0.69080  Biso   1.000  C
  C16      1.0000 0.14780  0.59700  0.30920  Biso   1.000  C
  H27      1.0000 0.74190  0.43900  0.71720  Biso   1.000  H
  H28      1.0000 0.25810  0.56100  0.28280  Biso   1.000  H
  H29      1.0000 0.84970  0.41100  0.61100  Biso   1.000  H
  H30      1.0000 0.15030  0.58900  0.38900  Biso   1.000  H
  H31      1.0000 0.95630  0.46480  0.73780  Biso   1.000  H
  H32      1.0000 0.04370  0.53520  0.26220  Biso   1.000  H
  O9       1.0000 0.32650  0.31370  0.46900  Biso   1.000  O
  O10      1.0000 0.67350  0.68630  0.53100  Biso   1.000  O
  O11      1.0000 0.35790  0.59540  0.62880  Biso   1.000  O
  O12      1.0000 0.64210  0.40460  0.37120  Biso   1.000  O
  O13      1.0000 0.03740  0.76400  0.65080  Biso   1.000  O
  O14      1.0000 0.96260  0.23600  0.34920  Biso   1.000  O
  O15      1.0000 0.45520  0.57850  0.85660  Biso   1.000  O
  O16      1.0000 0.54480  0.42150  0.14340  Biso   1.000  O
