data_image0
_cell_length_a       5.8036
_cell_length_b       11.8366
_cell_length_c       13.7848
_cell_angle_alpha    105.496
_cell_angle_beta     101.739
_cell_angle_gamma    99.426

_symmetry_space_group_name_H-M    "P 1"
_symmetry_int_tables_number       1

loop_
  _symmetry_equiv_pos_as_xyz
  'x, y, z'

loop_
  _atom_site_label
  _atom_site_occupancy
  _atom_site_fract_x
  _atom_site_fract_y
  _atom_site_fract_z
  _atom_site_thermal_displace_type
  _atom_site_B_iso_or_equiv
  _atom_site_type_symbol
  Cu1      1.0000 0.50000  0.00000  0.00000  Biso   1.000  Cu
  Cu2      1.0000 0.50000  0.50000  0.50000  Biso   1.000  Cu
  Cd1      1.0000 0.68943  0.74549  0.80191  Biso   1.000  Cd
  Cd2      1.0000 0.31057  0.25451  0.19809  Biso   1.000  Cd
  O1       1.0000 0.87310  0.74622  0.98364  Biso   1.000  O
  O2       1.0000 0.12690  0.25378  0.01636  Biso   1.000  O
  O3       1.0000 0.61310  0.85556  0.95551  Biso   1.000  O
  O4       1.0000 0.38690  0.14444  0.04449  Biso   1.000  O
  O5       1.0000 0.80480  0.07841  0.10027  Biso   1.000  O
  O6       1.0000 0.19520  0.92159  0.89973  Biso   1.000  O
  O7       1.0000 0.13620  0.07220  0.20847  Biso   1.000  O
  O8       1.0000 0.86380  0.92780  0.79153  Biso   1.000  O
  O9       1.0000 0.35900  0.77807  0.69489  Biso   1.000  O
  O10      1.0000 0.64100  0.22193  0.30511  Biso   1.000  O
  O11      1.0000 0.52740  0.64996  0.60406  Biso   1.000  O
  O12      1.0000 0.47260  0.35004  0.39594  Biso   1.000  O
  O13      1.0000 0.19550  0.50943  0.41735  Biso   1.000  O
  O14      1.0000 0.80450  0.49057  0.58265  Biso   1.000  O
  O15      1.0000 0.85680  0.57120  0.38902  Biso   1.000  O
  O16      1.0000 0.14320  0.42880  0.61098  Biso   1.000  O
  O17      1.0000 0.46620  0.56447  0.79860  Biso   1.000  O
  O18      1.0000 0.53380  0.43553  0.20140  Biso   1.000  O
  O19      1.0000 0.99280  0.66319  0.76626  Biso   1.000  O
  O20      1.0000 0.00720  0.33681  0.23374  Biso   1.000  O
  C1       1.0000 0.77110  0.82490  0.01860  Biso   1.000  C
  C2       1.0000 0.22890  0.17510  0.98140  Biso   1.000  C
  C3       1.0000 0.82300  0.89120  0.13380  Biso   1.000  C
  C4       1.0000 0.17700  0.10880  0.86620  Biso   1.000  C
  C5       1.0000 0.93160  0.02320  0.14950  Biso   1.000  C
  C6       1.0000 0.06840  0.97680  0.85050  Biso   1.000  C
  C7       1.0000 0.59730  0.87490  0.17940  Biso   1.000  C
  C8       1.0000 0.40270  0.12510  0.82060  Biso   1.000  C
  H1       1.0000 0.55620  0.95170  0.21190  Biso   1.000  H
  H2       1.0000 0.44380  0.04830  0.78810  Biso   1.000  H
  H3       1.0000 0.45300  0.81600  0.12930  Biso   1.000  H
  H4       1.0000 0.54700  0.18400  0.87070  Biso   1.000  H
  C9       1.0000 0.95370  0.83250  0.20980  Biso   1.000  C
  C10      1.0000 0.04630  0.16750  0.79020  Biso   1.000  C
  H5       1.0000 0.98090  0.75310  0.17470  Biso   1.000  H
  H6       1.0000 0.01910  0.24690  0.82530  Biso   1.000  H
  H7       1.0000 0.10510  0.88610  0.25910  Biso   1.000  H
  H8       1.0000 0.89490  0.11390  0.74090  Biso   1.000  H
  C11      1.0000 0.73750  0.82460  0.25740  Biso   1.000  C
  C12      1.0000 0.26250  0.17540  0.74260  Biso   1.000  C
  H9       1.0000 0.65960  0.74110  0.25100  Biso   1.000  H
  H10      1.0000 0.34040  0.25890  0.74900  Biso   1.000  H
  H11      1.0000 0.77550  0.87720  0.33040  Biso   1.000  H
  H12      1.0000 0.22450  0.12280  0.66960  Biso   1.000  H
  C13      1.0000 0.36700  0.71280  0.60840  Biso   1.000  C
  C14      1.0000 0.63300  0.28720  0.39160  Biso   1.000  C
  C15      1.0000 0.20090  0.71450  0.50932  Biso   1.000  C
  C16      1.0000 0.79910  0.28550  0.49068  Biso   1.000  C
  C17      1.0000 0.07190  0.58970  0.43470  Biso   1.000  C
  C18      1.0000 0.92810  0.41030  0.56530  Biso   1.000  C
  C19      1.0000 0.05250  0.81140  0.52660  Biso   1.000  C
  C20      1.0000 0.94750  0.18860  0.47340  Biso   1.000  C
  H13      1.0000 0.89650  0.79060  0.47330  Biso   1.000  H
  H14      1.0000 0.10350  0.20940  0.52670  Biso   1.000  H
  H15      1.0000 0.02910  0.83620  0.59780  Biso   1.000  H
  H16      1.0000 0.97090  0.16380  0.40220  Biso   1.000  H
  C21      1.0000 0.25280  0.90030  0.50930  Biso   1.000  C
  C22      1.0000 0.74720  0.09970  0.49070  Biso   1.000  C
  H17      1.0000 0.19190  0.94510  0.46230  Biso   1.000  H
  H18      1.0000 0.80810  0.05490  0.53770  Biso   1.000  H
  H19      1.0000 0.36700  0.95570  0.57470  Biso   1.000  H
  H20      1.0000 0.63300  0.04430  0.42530  Biso   1.000  H
  C23      1.0000 0.34870  0.79290  0.45630  Biso   1.000  C
  C24      1.0000 0.65130  0.20710  0.54370  Biso   1.000  C
  H21      1.0000 0.52620  0.80430  0.48010  Biso   1.000  H
  H22      1.0000 0.47380  0.19570  0.51990  Biso   1.000  H
  H23      1.0000 0.29300  0.76570  0.37920  Biso   1.000  H
  H24      1.0000 0.70700  0.23430  0.62080  Biso   1.000  H
  H25      1.0000 0.09600  0.71200  0.75600  Biso   1.000  H
  H26      1.0000 0.90400  0.28800  0.24400  Biso   1.000  H
  H27      1.0000 0.94200  0.60700  0.71140  Biso   1.000  H
  H28      1.0000 0.05800  0.39300  0.28860  Biso   1.000  H
  H29      1.0000 0.36800  0.53300  0.74140  Biso   1.000  H
  H30      1.0000 0.63200  0.46700  0.25860  Biso   1.000  H
  H31      1.0000 0.55800  0.52000  0.80600  Biso   1.000  H
  H32      1.0000 0.44200  0.48000  0.19400  Biso   1.000  H
  O21      1.0000 0.23700  0.60860  0.96040  Biso   1.000  O
  O22      1.0000 0.76300  0.39140  0.03960  Biso   1.000  O
  H33      1.0000 0.16900  0.66400  0.96200  Biso   1.000  H
  H34      1.0000 0.83100  0.33600  0.03800  Biso   1.000  H
  H35      1.0000 0.30200  0.59700  0.91200  Biso   1.000  H
  H36      1.0000 0.69800  0.40300  0.08800  Biso   1.000  H
  O23      1.0000 0.77960  0.43240  0.85290  Biso   1.000  O
  O24      1.0000 0.22040  0.56760  0.14710  Biso   1.000  O
  H37      1.0000 0.91400  0.47600  0.86700  Biso   1.000  H
  H38      1.0000 0.08600  0.52400  0.13300  Biso   1.000  H
  H39      1.0000 0.75100  0.42400  0.90600  Biso   1.000  H
  H40      1.0000 0.24900  0.57600  0.09400  Biso   1.000  H
