data_image0
_cell_length_a       11.65
_cell_length_b       7.994
_cell_length_c       10.158
_cell_angle_alpha    90
_cell_angle_beta     98.2
_cell_angle_gamma    90

_symmetry_space_group_name_H-M    "P 1"
_symmetry_int_tables_number       1

loop_
  _symmetry_equiv_pos_as_xyz
  'x, y, z'

loop_
  _atom_site_label
  _atom_site_occupancy
  _atom_site_fract_x
  _atom_site_fract_y
  _atom_site_fract_z
  _atom_site_thermal_displace_type
  _atom_site_B_iso_or_equiv
  _atom_site_type_symbol
  Cu1      1.0000 0.22351  0.06780  0.44460  Biso   1.000  Cu
  Cu2      1.0000 0.77649  0.56780  0.05540  Biso   1.000  Cu
  Cu3      1.0000 0.77649  0.93220  0.55540  Biso   1.000  Cu
  Cu4      1.0000 0.22351  0.43220  0.94460  Biso   1.000  Cu
  O1       1.0000 0.31770  0.18520  0.58930  Biso   1.000  O
  O2       1.0000 0.68230  0.68520  0.91070  Biso   1.000  O
  O3       1.0000 0.68230  0.81480  0.41070  Biso   1.000  O
  O4       1.0000 0.31770  0.31480  0.08930  Biso   1.000  O
  O5       1.0000 0.29770  0.36720  0.74850  Biso   1.000  O
  O6       1.0000 0.70230  0.86720  0.75150  Biso   1.000  O
  O7       1.0000 0.70230  0.63280  0.25150  Biso   1.000  O
  O8       1.0000 0.29770  0.13280  0.24850  Biso   1.000  O
  O9       1.0000 0.08430  0.96160  0.34900  Biso   1.000  O
  O10      1.0000 0.91570  0.46160  0.15100  Biso   1.000  O
  O11      1.0000 0.91570  0.03840  0.65100  Biso   1.000  O
  O12      1.0000 0.08430  0.53840  0.84900  Biso   1.000  O
  O13      1.0000 0.89440  0.99460  0.29830  Biso   1.000  O
  O14      1.0000 0.10560  0.49460  0.20170  Biso   1.000  O
  O15      1.0000 0.10560  0.00540  0.70170  Biso   1.000  O
  O16      1.0000 0.89440  0.50540  0.79830  Biso   1.000  O
  N1       1.0000 0.12400  0.27140  0.43620  Biso   1.000  N
  N2       1.0000 0.87600  0.77140  0.06380  Biso   1.000  N
  N3       1.0000 0.87600  0.72860  0.56380  Biso   1.000  N
  N4       1.0000 0.12400  0.22860  0.93620  Biso   1.000  N
  N5       1.0000 0.31960  0.86060  0.46590  Biso   1.000  N
  N6       1.0000 0.68040  0.36060  0.03410  Biso   1.000  N
  N7       1.0000 0.68040  0.13940  0.53410  Biso   1.000  N
  N8       1.0000 0.31960  0.63940  0.96590  Biso   1.000  N
  C1       1.0000 0.15210  0.36200  0.56150  Biso   1.000  C
  C2       1.0000 0.84790  0.86200  0.93850  Biso   1.000  C
  C3       1.0000 0.84790  0.63800  0.43850  Biso   1.000  C
  C4       1.0000 0.15210  0.13800  0.06150  Biso   1.000  C
  C5       1.0000 0.00180  0.22200  0.40050  Biso   1.000  C
  C6       1.0000 0.99820  0.72200  0.09950  Biso   1.000  C
  C7       1.0000 0.99820  0.77800  0.59950  Biso   1.000  C
  C8       1.0000 0.00180  0.27800  0.90050  Biso   1.000  C
  C9       1.0000 0.26610  0.30100  0.64070  Biso   1.000  C
  C10      1.0000 0.73390  0.80100  0.85930  Biso   1.000  C
  C11      1.0000 0.73390  0.69900  0.35930  Biso   1.000  C
  C12      1.0000 0.26610  0.19900  0.14070  Biso   1.000  C
  C13      1.0000 0.99110  0.04700  0.34360  Biso   1.000  C
  C14      1.0000 0.00890  0.54700  0.15640  Biso   1.000  C
  C15      1.0000 0.00890  0.95300  0.65640  Biso   1.000  C
  C16      1.0000 0.99110  0.45300  0.84360  Biso   1.000  C
  C17      1.0000 0.41100  0.84600  0.56180  Biso   1.000  C
  C18      1.0000 0.58900  0.34600  0.93820  Biso   1.000  C
  C19      1.0000 0.58900  0.15400  0.43820  Biso   1.000  C
  C20      1.0000 0.41100  0.65400  0.06180  Biso   1.000  C
  C21      1.0000 0.48150  0.70800  0.58050  Biso   1.000  C
  C22      1.0000 0.51850  0.20800  0.91950  Biso   1.000  C
  C23      1.0000 0.51850  0.29200  0.41950  Biso   1.000  C
  C24      1.0000 0.48150  0.79200  0.08050  Biso   1.000  C
  C25      1.0000 0.46190  0.57500  0.49440  Biso   1.000  C
  C26      1.0000 0.53810  0.07500  0.00560  Biso   1.000  C
  C27      1.0000 0.53810  0.42500  0.50560  Biso   1.000  C
  C28      1.0000 0.46190  0.92500  0.99440  Biso   1.000  C
  C29      1.0000 0.36560  0.58800  0.39360  Biso   1.000  C
  C30      1.0000 0.63440  0.08800  0.10640  Biso   1.000  C
  C31      1.0000 0.63440  0.41200  0.60640  Biso   1.000  C
  C32      1.0000 0.36560  0.91200  0.89360  Biso   1.000  C
  C33      1.0000 0.29900  0.73000  0.38390  Biso   1.000  C
  C34      1.0000 0.70100  0.23000  0.11610  Biso   1.000  C
  C35      1.0000 0.70100  0.27000  0.61610  Biso   1.000  C
  C36      1.0000 0.29900  0.77000  0.88390  Biso   1.000  C
