data_image0
_cell_length_a       10.1887
_cell_length_b       8.0008
_cell_length_c       11.6684
_cell_angle_alpha    90
_cell_angle_beta     98.31
_cell_angle_gamma    90

_symmetry_space_group_name_H-M    "P 1"
_symmetry_int_tables_number       1

loop_
  _symmetry_equiv_pos_as_xyz
  'x, y, z'

loop_
  _atom_site_label
  _atom_site_occupancy
  _atom_site_fract_x
  _atom_site_fract_y
  _atom_site_fract_z
  _atom_site_thermal_displace_type
  _atom_site_B_iso_or_equiv
  _atom_site_type_symbol
  Cu1      1.0000 0.55602  0.56799  0.77665  Biso   1.000  Cu
  Cu2      1.0000 0.05602  0.93201  0.77665  Biso   1.000  Cu
  Cu3      1.0000 0.44398  0.43201  0.22335  Biso   1.000  Cu
  Cu4      1.0000 0.94398  0.06799  0.22335  Biso   1.000  Cu
  O1       1.0000 0.41080  0.68520  0.68270  Biso   1.000  O
  O2       1.0000 0.91080  0.81480  0.68270  Biso   1.000  O
  O3       1.0000 0.58920  0.31480  0.31730  Biso   1.000  O
  O4       1.0000 0.08920  0.18520  0.31730  Biso   1.000  O
  O5       1.0000 0.25120  0.86680  0.70200  Biso   1.000  O
  O6       1.0000 0.75120  0.63320  0.70200  Biso   1.000  O
  O7       1.0000 0.74880  0.13320  0.29800  Biso   1.000  O
  O8       1.0000 0.24880  0.36680  0.29800  Biso   1.000  O
  O9       1.0000 0.65120  0.46110  0.91530  Biso   1.000  O
  O10      1.0000 0.15120  0.03890  0.91530  Biso   1.000  O
  O11      1.0000 0.34880  0.53890  0.08470  Biso   1.000  O
  O12      1.0000 0.84880  0.96110  0.08470  Biso   1.000  O
  O13      1.0000 0.70290  0.49420  0.10590  Biso   1.000  O
  O14      1.0000 0.20290  0.00580  0.10590  Biso   1.000  O
  O15      1.0000 0.29710  0.50580  0.89410  Biso   1.000  O
  O16      1.0000 0.79710  0.99420  0.89410  Biso   1.000  O
  N1       1.0000 0.56410  0.77170  0.87660  Biso   1.000  N
  N2       1.0000 0.06410  0.72830  0.87660  Biso   1.000  N
  N3       1.0000 0.43590  0.22830  0.12340  Biso   1.000  N
  N4       1.0000 0.93590  0.27170  0.12340  Biso   1.000  N
  N5       1.0000 0.03400  0.13990  0.68060  Biso   1.000  N
  N6       1.0000 0.53400  0.36010  0.68060  Biso   1.000  N
  N7       1.0000 0.96600  0.86010  0.31940  Biso   1.000  N
  N8       1.0000 0.46600  0.63990  0.31940  Biso   1.000  N
  C1       1.0000 0.43830  0.86380  0.84800  Biso   1.000  C
  C2       1.0000 0.93830  0.63620  0.84800  Biso   1.000  C
  C3       1.0000 0.56170  0.13620  0.15200  Biso   1.000  C
  C4       1.0000 0.06170  0.36380  0.15200  Biso   1.000  C
  C5       1.0000 0.35940  0.80190  0.73570  Biso   1.000  C
  C6       1.0000 0.85940  0.69810  0.73570  Biso   1.000  C
  C7       1.0000 0.64060  0.19810  0.26430  Biso   1.000  C
  C8       1.0000 0.14060  0.30190  0.26430  Biso   1.000  C
  C9       1.0000 0.59960  0.72130  0.99870  Biso   1.000  C
  C10      1.0000 0.09960  0.77870  0.99870  Biso   1.000  C
  C11      1.0000 0.40040  0.27870  0.00130  Biso   1.000  C
  C12      1.0000 0.90040  0.22130  0.00130  Biso   1.000  C
  C13      1.0000 0.65670  0.54590  0.00900  Biso   1.000  C
  C14      1.0000 0.15670  0.95410  0.00900  Biso   1.000  C
  C15      1.0000 0.34330  0.45410  0.99100  Biso   1.000  C
  C16      1.0000 0.84330  0.04590  0.99100  Biso   1.000  C
  C17      1.0000 0.93840  0.15250  0.58920  Biso   1.000  C
  C18      1.0000 0.43840  0.34750  0.58920  Biso   1.000  C
  C19      1.0000 0.06160  0.84750  0.41080  Biso   1.000  C
  C20      1.0000 0.56160  0.65250  0.41080  Biso   1.000  C
  C21      1.0000 0.92150  0.29110  0.51960  Biso   1.000  C
  C22      1.0000 0.42150  0.20890  0.51960  Biso   1.000  C
  C23      1.0000 0.07850  0.70890  0.48040  Biso   1.000  C
  C24      1.0000 0.57850  0.79110  0.48040  Biso   1.000  C
  C25      1.0000 0.00660  0.42540  0.53860  Biso   1.000  C
  C26      1.0000 0.50660  0.07460  0.53860  Biso   1.000  C
  C27      1.0000 0.99340  0.57460  0.46140  Biso   1.000  C
  C28      1.0000 0.49340  0.92540  0.46140  Biso   1.000  C
  C29      1.0000 0.10490  0.41290  0.63420  Biso   1.000  C
  C30      1.0000 0.60490  0.08710  0.63420  Biso   1.000  C
  C31      1.0000 0.89510  0.58710  0.36580  Biso   1.000  C
  C32      1.0000 0.39510  0.91290  0.36580  Biso   1.000  C
  C33      1.0000 0.11540  0.27060  0.70150  Biso   1.000  C
  C34      1.0000 0.61540  0.22940  0.70150  Biso   1.000  C
  C35      1.0000 0.88460  0.72940  0.29850  Biso   1.000  C
  C36      1.0000 0.38460  0.77060  0.29850  Biso   1.000  C
  H1       1.0000 0.62400  0.82300  0.86400  Biso   1.000  H
  H2       1.0000 0.12400  0.67700  0.86400  Biso   1.000  H
  H3       1.0000 0.37600  0.17700  0.13600  Biso   1.000  H
  H4       1.0000 0.87600  0.32300  0.13600  Biso   1.000  H
  H5       1.0000 0.38200  0.84900  0.91000  Biso   1.000  H
  H6       1.0000 0.88200  0.65100  0.91000  Biso   1.000  H
  H7       1.0000 0.61800  0.15100  0.09000  Biso   1.000  H
  H8       1.0000 0.11800  0.34900  0.09000  Biso   1.000  H
  H9       1.0000 0.45300  0.97700  0.84200  Biso   1.000  H
  H10      1.0000 0.95300  0.52300  0.84200  Biso   1.000  H
  H11      1.0000 0.54700  0.02300  0.15800  Biso   1.000  H
  H12      1.0000 0.04700  0.47700  0.15800  Biso   1.000  H
  H13      1.0000 0.51900  0.72000  0.03600  Biso   1.000  H
  H14      1.0000 0.01900  0.78000  0.03600  Biso   1.000  H
  H15      1.0000 0.48100  0.28000  0.96400  Biso   1.000  H
  H16      1.0000 0.98100  0.22000  0.96400  Biso   1.000  H
  H17      1.0000 0.66000  0.79600  0.03600  Biso   1.000  H
  H18      1.0000 0.16000  0.70400  0.03600  Biso   1.000  H
  H19      1.0000 0.34000  0.20400  0.96400  Biso   1.000  H
  H20      1.0000 0.84000  0.29600  0.96400  Biso   1.000  H
  H21      1.0000 0.88000  0.06100  0.57600  Biso   1.000  H
  H22      1.0000 0.38000  0.43900  0.57600  Biso   1.000  H
  H23      1.0000 0.12000  0.93900  0.42400  Biso   1.000  H
  H24      1.0000 0.62000  0.56100  0.42400  Biso   1.000  H
  H25      1.0000 0.86000  0.28800  0.46600  Biso   1.000  H
  H26      1.0000 0.36000  0.21200  0.46600  Biso   1.000  H
  H27      1.0000 0.14000  0.71200  0.53400  Biso   1.000  H
  H28      1.0000 0.64000  0.78800  0.53400  Biso   1.000  H
  H29      1.0000 0.16100  0.49600  0.65200  Biso   1.000  H
  H30      1.0000 0.66100  0.00400  0.65200  Biso   1.000  H
  H31      1.0000 0.83900  0.50400  0.34800  Biso   1.000  H
  H32      1.0000 0.33900  0.99600  0.34800  Biso   1.000  H
  H33      1.0000 0.17800  0.25700  0.75500  Biso   1.000  H
  H34      1.0000 0.67800  0.24300  0.75500  Biso   1.000  H
  H35      1.0000 0.82200  0.74300  0.24500  Biso   1.000  H
  H36      1.0000 0.32200  0.75700  0.24500  Biso   1.000  H
