data_image0
_cell_length_a       4.955
_cell_length_b       12.948
_cell_length_c       7.241
_cell_angle_alpha    90
_cell_angle_beta     92.15
_cell_angle_gamma    90

_symmetry_space_group_name_H-M    "P 1"
_symmetry_int_tables_number       1

loop_
  _symmetry_equiv_pos_as_xyz
  'x, y, z'

loop_
  _atom_site_label
  _atom_site_occupancy
  _atom_site_fract_x
  _atom_site_fract_y
  _atom_site_fract_z
  _atom_site_thermal_displace_type
  _atom_site_B_iso_or_equiv
  _atom_site_type_symbol
  Cu1      1.0000 0.33380  0.02600  0.80474  Biso   1.000  Cu
  Cu2      1.0000 0.66620  0.52600  0.19526  Biso   1.000  Cu
  S1       1.0000 0.77240  0.87536  0.85710  Biso   1.000  S
  S2       1.0000 0.22760  0.37536  0.14290  Biso   1.000  S
  O1       1.0000 0.47640  0.89210  0.86070  Biso   1.000  O
  O2       1.0000 0.52360  0.39210  0.13930  Biso   1.000  O
  O3       1.0000 0.82980  0.80420  0.70850  Biso   1.000  O
  O4       1.0000 0.17020  0.30420  0.29150  Biso   1.000  O
  O5       1.0000 0.86700  0.83190  0.03520  Biso   1.000  O
  O6       1.0000 0.13300  0.33190  0.96480  Biso   1.000  O
  O7       1.0000 0.90380  0.97640  0.83270  Biso   1.000  O
  O8       1.0000 0.09620  0.47640  0.16730  Biso   1.000  O
  N1       1.0000 0.73520  0.17630  0.25380  Biso   1.000  N
  N2       1.0000 0.26480  0.67630  0.74620  Biso   1.000  N
  C1       1.0000 0.63360  0.14520  0.08810  Biso   1.000  C
  C2       1.0000 0.36640  0.64520  0.91190  Biso   1.000  C
  N3       1.0000 0.44580  0.07430  0.06490  Biso   1.000  N
  N4       1.0000 0.55420  0.57430  0.93510  Biso   1.000  N
  C3       1.0000 0.36450  0.03450  0.22700  Biso   1.000  C
  C4       1.0000 0.63550  0.53450  0.77300  Biso   1.000  C
  C5       1.0000 0.45020  0.06350  0.40070  Biso   1.000  C
  C6       1.0000 0.54980  0.56350  0.59930  Biso   1.000  C
  C7       1.0000 0.64830  0.14210  0.42460  Biso   1.000  C
  C8       1.0000 0.35170  0.64210  0.57540  Biso   1.000  C
  O9       1.0000 0.74410  0.17740  0.57000  Biso   1.000  O
  O10      1.0000 0.25590  0.67740  0.43000  Biso   1.000  O
  N5       1.0000 0.32020  0.00690  0.53110  Biso   1.000  N
  N6       1.0000 0.67980  0.50690  0.46890  Biso   1.000  N
  C9       1.0000 0.16360  0.94290  0.43510  Biso   1.000  C
  C10      1.0000 0.83640  0.44290  0.56490  Biso   1.000  C
  N7       1.0000 0.18470  0.95580  0.25140  Biso   1.000  N
  N8       1.0000 0.81530  0.45580  0.74860  Biso   1.000  N
  O11      1.0000 0.21340  0.16980  0.75520  Biso   1.000  O
  O12      1.0000 0.78660  0.66980  0.24480  Biso   1.000  O
  H1       1.0000 0.85300  0.20800  0.26600  Biso   1.000  H
  H2       1.0000 0.14700  0.70800  0.73400  Biso   1.000  H
  H3       1.0000 0.69900  0.17500  0.99400  Biso   1.000  H
  H4       1.0000 0.30100  0.67500  0.00600  Biso   1.000  H
  H5       1.0000 0.05000  0.88600  0.47600  Biso   1.000  H
  H6       1.0000 0.95000  0.38600  0.52400  Biso   1.000  H
  H7       1.0000 0.12000  0.93200  0.18900  Biso   1.000  H
  H8       1.0000 0.88000  0.43200  0.81100  Biso   1.000  H
  H9       1.0000 0.18000  0.21200  0.85200  Biso   1.000  H
  H10      1.0000 0.82000  0.71200  0.14800  Biso   1.000  H
  H11      1.0000 0.09000  0.16300  0.71400  Biso   1.000  H
  H12      1.0000 0.91000  0.66300  0.28600  Biso   1.000  H
