data_image0
_cell_length_a       10.426
_cell_length_b       16.57
_cell_length_c       17.638
_cell_angle_alpha    110.476
_cell_angle_beta     92.635
_cell_angle_gamma    100.853

_symmetry_space_group_name_H-M    "P 1"
_symmetry_int_tables_number       1

loop_
  _symmetry_equiv_pos_as_xyz
  'x, y, z'

loop_
  _atom_site_label
  _atom_site_occupancy
  _atom_site_fract_x
  _atom_site_fract_y
  _atom_site_fract_z
  _atom_site_thermal_displace_type
  _atom_site_B_iso_or_equiv
  _atom_site_type_symbol
  C1       1.0000 0.62270  0.82770  0.77490  Biso   1.000  C
  C2       1.0000 0.37730  0.17230  0.22510  Biso   1.000  C
  H1       1.0000 0.69910  0.87580  0.80250  Biso   1.000  H
  H2       1.0000 0.30090  0.12420  0.19750  Biso   1.000  H
  H3       1.0000 0.63930  0.77240  0.77770  Biso   1.000  H
  H4       1.0000 0.36070  0.22760  0.22230  Biso   1.000  H
  H5       1.0000 0.54490  0.84100  0.80180  Biso   1.000  H
  H6       1.0000 0.45510  0.15900  0.19820  Biso   1.000  H
  C3       1.0000 0.58550  0.90820  0.68310  Biso   1.000  C
  C4       1.0000 0.41450  0.09180  0.31690  Biso   1.000  C
  H7       1.0000 0.52460  0.93260  0.72100  Biso   1.000  H
  H8       1.0000 0.47540  0.06740  0.27900  Biso   1.000  H
  H9       1.0000 0.55140  0.90010  0.62760  Biso   1.000  H
  H10      1.0000 0.44860  0.09990  0.37240  Biso   1.000  H
  H11      1.0000 0.67180  0.94890  0.69850  Biso   1.000  H
  H12      1.0000 0.32820  0.05110  0.30150  Biso   1.000  H
  C5       1.0000 0.71690  0.78970  0.64350  Biso   1.000  C
  C6       1.0000 0.28310  0.21030  0.35650  Biso   1.000  C
  H13      1.0000 0.79850  0.83060  0.67440  Biso   1.000  H
  H14      1.0000 0.20150  0.16940  0.32560  Biso   1.000  H
  H15      1.0000 0.70810  0.79050  0.58830  Biso   1.000  H
  H16      1.0000 0.29190  0.20950  0.41170  Biso   1.000  H
  H17      1.0000 0.71950  0.72990  0.64070  Biso   1.000  H
  H18      1.0000 0.28050  0.27010  0.35930  Biso   1.000  H
  C7       1.0000 0.59910  0.81800  0.68640  Biso   1.000  C
  C8       1.0000 0.40090  0.18200  0.31360  Biso   1.000  C
  C9       1.0000 0.46210  0.75480  0.64970  Biso   1.000  C
  C10      1.0000 0.53790  0.24520  0.35030  Biso   1.000  C
  C11      1.0000 0.44930  0.68430  0.57460  Biso   1.000  C
  C12      1.0000 0.55070  0.31570  0.42540  Biso   1.000  C
  H19      1.0000 0.52710  0.67280  0.55080  Biso   1.000  H
  H20      1.0000 0.47290  0.32720  0.44920  Biso   1.000  H
  C13      1.0000 0.32990  0.63060  0.53320  Biso   1.000  C
  C14      1.0000 0.67010  0.36940  0.46680  Biso   1.000  C
  C15      1.0000 0.32320  0.56160  0.45010  Biso   1.000  C
  C16      1.0000 0.67680  0.43840  0.54990  Biso   1.000  C
  C17      1.0000 0.42740  0.56290  0.40070  Biso   1.000  C
  C18      1.0000 0.57260  0.43710  0.59930  Biso   1.000  C
  H21      1.0000 0.50680  0.60650  0.42080  Biso   1.000  H
  H22      1.0000 0.49320  0.39350  0.57920  Biso   1.000  H
  C19      1.0000 0.41110  0.49900  0.32230  Biso   1.000  C
  C20      1.0000 0.58890  0.50100  0.67770  Biso   1.000  C
  H23      1.0000 0.48070  0.50060  0.28960  Biso   1.000  H
  H24      1.0000 0.51930  0.49940  0.71040  Biso   1.000  H
  C21      1.0000 0.30100  0.43540  0.29090  Biso   1.000  C
  C22      1.0000 0.69900  0.56460  0.70910  Biso   1.000  C
  H25      1.0000 0.29430  0.39370  0.23700  Biso   1.000  H
  H26      1.0000 0.70570  0.60630  0.76300  Biso   1.000  H
  C23      1.0000 0.19520  0.43040  0.33790  Biso   1.000  C
  C24      1.0000 0.80480  0.56960  0.66210  Biso   1.000  C
  C25      1.0000 0.21080  0.49740  0.41730  Biso   1.000  C
  C26      1.0000 0.78920  0.50260  0.58270  Biso   1.000  C
  H27      1.0000 0.13950  0.49740  0.44900  Biso   1.000  H
  H28      1.0000 0.86050  0.50260  0.55100  Biso   1.000  H
  C27      1.0000 0.07320  0.36260  0.30650  Biso   1.000  C
  C28      1.0000 0.92680  0.63740  0.69350  Biso   1.000  C
  C29      1.0000 0.05580  0.29970  0.22700  Biso   1.000  C
  C30      1.0000 0.94420  0.70030  0.77300  Biso   1.000  C
  H29      1.0000 0.12350  0.30200  0.19310  Biso   1.000  H
  H30      1.0000 0.87650  0.69800  0.80690  Biso   1.000  H
  C31      1.0000 0.93830  0.23190  0.19600  Biso   1.000  C
  C32      1.0000 0.06170  0.76810  0.80400  Biso   1.000  C
  C33      1.0000 0.93420  0.16230  0.10670  Biso   1.000  C
  C34      1.0000 0.06580  0.83770  0.89330  Biso   1.000  C
  C35      1.0000 0.05500  0.18010  0.06580  Biso   1.000  C
  C36      1.0000 0.94500  0.81990  0.93420  Biso   1.000  C
  H31      1.0000 0.04650  0.13380  0.01170  Biso   1.000  H
  H32      1.0000 0.95350  0.86620  0.98830  Biso   1.000  H
  H33      1.0000 0.13330  0.18050  0.09900  Biso   1.000  H
  H34      1.0000 0.86670  0.81950  0.90100  Biso   1.000  H
  H35      1.0000 0.06350  0.23760  0.06010  Biso   1.000  H
  H36      1.0000 0.93650  0.76240  0.93990  Biso   1.000  H
  C37      1.0000 0.81180  0.15910  0.05660  Biso   1.000  C
  C38      1.0000 0.18820  0.84090  0.94340  Biso   1.000  C
  H37      1.0000 0.81100  0.21830  0.05700  Biso   1.000  H
  H38      1.0000 0.18900  0.78170  0.94300  Biso   1.000  H
  H39      1.0000 0.73430  0.13800  0.07950  Biso   1.000  H
  H40      1.0000 0.26570  0.86200  0.92050  Biso   1.000  H
  H41      1.0000 0.81020  0.11870  0.00040  Biso   1.000  H
  H42      1.0000 0.18980  0.88130  0.99960  Biso   1.000  H
  C39      1.0000 0.93240  0.07430  0.11880  Biso   1.000  C
  C40      1.0000 0.06760  0.92570  0.88120  Biso   1.000  C
  H43      1.0000 0.93900  0.02880  0.06660  Biso   1.000  H
  H44      1.0000 0.06100  0.97120  0.93340  Biso   1.000  H
  H45      1.0000 0.85010  0.05620  0.13900  Biso   1.000  H
  H46      1.0000 0.14990  0.94380  0.86100  Biso   1.000  H
  H47      1.0000 0.00710  0.08190  0.15840  Biso   1.000  H
  H48      1.0000 0.99290  0.91810  0.84160  Biso   1.000  H
  C41      1.0000 0.91820  0.14520  0.69920  Biso   1.000  C
  C42      1.0000 0.08180  0.85480  0.30080  Biso   1.000  C
  H49      1.0000 0.90360  0.19960  0.69350  Biso   1.000  H
  H50      1.0000 0.09640  0.80040  0.30650  Biso   1.000  H
  H51      1.0000 0.84120  0.09720  0.67250  Biso   1.000  H
  H52      1.0000 0.15880  0.90280  0.32750  Biso   1.000  H
  H53      1.0000 0.99610  0.12970  0.67360  Biso   1.000  H
  H54      1.0000 0.00390  0.87030  0.32640  Biso   1.000  H
  C43      1.0000 0.96540  0.07400  0.79880  Biso   1.000  C
  C44      1.0000 0.03460  0.92600  0.20120  Biso   1.000  C
  H55      1.0000 0.03780  0.05550  0.76840  Biso   1.000  H
  H56      1.0000 0.96220  0.94450  0.23160  Biso   1.000  H
  H57      1.0000 0.88590  0.02680  0.77820  Biso   1.000  H
  H58      1.0000 0.11410  0.97320  0.22180  Biso   1.000  H
  H59      1.0000 0.98920  0.08630  0.85680  Biso   1.000  H
  H60      1.0000 0.01080  0.91370  0.14320  Biso   1.000  H
  C45      1.0000 0.81170  0.17810  0.82530  Biso   1.000  C
  C46      1.0000 0.18830  0.82190  0.17470  Biso   1.000  C
  H61      1.0000 0.82410  0.18880  0.88370  Biso   1.000  H
  H62      1.0000 0.17590  0.81120  0.11630  Biso   1.000  H
  H63      1.0000 0.73860  0.12720  0.79840  Biso   1.000  H
  H64      1.0000 0.26140  0.87280  0.20160  Biso   1.000  H
  H65      1.0000 0.79160  0.23030  0.81760  Biso   1.000  H
  H66      1.0000 0.20840  0.76970  0.18240  Biso   1.000  H
  C47      1.0000 0.93900  0.15880  0.78780  Biso   1.000  C
  C48      1.0000 0.06100  0.84120  0.21220  Biso   1.000  C
  C49      1.0000 0.06370  0.23110  0.82830  Biso   1.000  C
  C50      1.0000 0.93630  0.76890  0.17170  Biso   1.000  C
  C51      1.0000 0.06180  0.29990  0.90090  Biso   1.000  C
  C52      1.0000 0.93820  0.70010  0.09910  Biso   1.000  C
  H67      1.0000 0.97980  0.30440  0.92160  Biso   1.000  H
  H68      1.0000 0.02020  0.69560  0.07840  Biso   1.000  H
  C53      1.0000 0.17350  0.36260  0.94510  Biso   1.000  C
  C54      1.0000 0.82650  0.63740  0.05490  Biso   1.000  C
  C55      1.0000 0.16330  0.43380  0.02600  Biso   1.000  C
  C56      1.0000 0.83670  0.56620  0.97400  Biso   1.000  C
  C57      1.0000 0.04470  0.43270  0.06180  Biso   1.000  C
  C58      1.0000 0.95530  0.56730  0.93820  Biso   1.000  C
  H69      1.0000 0.96800  0.38850  0.03470  Biso   1.000  H
  H70      1.0000 0.03200  0.61150  0.96530  Biso   1.000  H
  C59      1.0000 0.04200  0.49760  0.13790  Biso   1.000  C
  C60      1.0000 0.95800  0.50240  0.86210  Biso   1.000  C
  H71      1.0000 0.96280  0.49710  0.16240  Biso   1.000  H
  H72      1.0000 0.03720  0.50290  0.83760  Biso   1.000  H
  C61      1.0000 0.15030  0.56100  0.17680  Biso   1.000  C
  C62      1.0000 0.84970  0.43900  0.82320  Biso   1.000  C
  H73      1.0000 0.14600  0.60380  0.22860  Biso   1.000  H
  H74      1.0000 0.85400  0.39620  0.77140  Biso   1.000  H
  C63      1.0000 0.27010  0.56510  0.14230  Biso   1.000  C
  C64      1.0000 0.72990  0.43490  0.85770  Biso   1.000  C
  C65      1.0000 0.27220  0.49800  0.06640  Biso   1.000  C
  C66      1.0000 0.72780  0.50200  0.93360  Biso   1.000  C
  H75      1.0000 0.35210  0.49760  0.04260  Biso   1.000  H
  H76      1.0000 0.64790  0.50240  0.95740  Biso   1.000  H
  C67      1.0000 0.38940  0.63290  0.18300  Biso   1.000  C
  C68      1.0000 0.61060  0.36710  0.81700  Biso   1.000  C
  C69      1.0000 0.39630  0.69320  0.26300  Biso   1.000  C
  C70      1.0000 0.60370  0.30680  0.73700  Biso   1.000  C
  H77      1.0000 0.32360  0.68510  0.29210  Biso   1.000  H
  H78      1.0000 0.67640  0.31490  0.70790  Biso   1.000  H
  C71      1.0000 0.50390  0.76550  0.30390  Biso   1.000  C
  C72      1.0000 0.49610  0.23450  0.69610  Biso   1.000  C
  C73      1.0000 0.49340  0.83110  0.38830  Biso   1.000  C
  C74      1.0000 0.50660  0.16890  0.61170  Biso   1.000  C
  C75      1.0000 0.37820  0.80670  0.42900  Biso   1.000  C
  C76      1.0000 0.62180  0.19330  0.57100  Biso   1.000  C
  H79      1.0000 0.29690  0.80390  0.39710  Biso   1.000  H
  H80      1.0000 0.70310  0.19610  0.60290  Biso   1.000  H
  H81      1.0000 0.38490  0.85130  0.48380  Biso   1.000  H
  H82      1.0000 0.61510  0.14870  0.51620  Biso   1.000  H
  H83      1.0000 0.37700  0.74900  0.43290  Biso   1.000  H
  H84      1.0000 0.62300  0.25100  0.56710  Biso   1.000  H
  C77      1.0000 0.62580  0.84820  0.44280  Biso   1.000  C
  C78      1.0000 0.37420  0.15180  0.55720  Biso   1.000  C
  H85      1.0000 0.62460  0.89290  0.49660  Biso   1.000  H
  H86      1.0000 0.37540  0.10710  0.50340  Biso   1.000  H
  H87      1.0000 0.69940  0.86930  0.41700  Biso   1.000  H
  H88      1.0000 0.30060  0.13070  0.58300  Biso   1.000  H
  H89      1.0000 0.63620  0.79320  0.44900  Biso   1.000  H
  H90      1.0000 0.36380  0.20680  0.55100  Biso   1.000  H
  C79      1.0000 0.48750  0.91920  0.37610  Biso   1.000  C
  C80      1.0000 0.51250  0.08080  0.62390  Biso   1.000  C
  H91      1.0000 0.41020  0.90980  0.33770  Biso   1.000  H
  H92      1.0000 0.58980  0.09020  0.66230  Biso   1.000  H
  H93      1.0000 0.56730  0.93880  0.35420  Biso   1.000  H
  H94      1.0000 0.43270  0.06120  0.64580  Biso   1.000  H
  H95      1.0000 0.48150  0.96440  0.42860  Biso   1.000  H
  H96      1.0000 0.51850  0.03560  0.57140  Biso   1.000  H
  C81      1.0000 0.04060  0.79270  0.54840  Biso   1.000  C
  C82      1.0000 0.95940  0.20730  0.45160  Biso   1.000  C
  H97      1.0000 0.00130  0.73190  0.52090  Biso   1.000  H
  H98      1.0000 0.99870  0.26810  0.47910  Biso   1.000  H
  C83      1.0000 0.01030  0.85300  0.51670  Biso   1.000  C
  C84      1.0000 0.98970  0.14700  0.48330  Biso   1.000  C
  H99      1.0000 0.95500  0.83250  0.46640  Biso   1.000  H
  H100     1.0000 0.04500  0.16750  0.53360  Biso   1.000  H
  C85      1.0000 0.05690  0.93910  0.55520  Biso   1.000  C
  C86      1.0000 0.94310  0.06090  0.44480  Biso   1.000  C
  C87      1.0000 0.15020  0.96710  0.62620  Biso   1.000  C
  C88      1.0000 0.84980  0.03290  0.37380  Biso   1.000  C
  H101     1.0000 0.19120  0.02770  0.65340  Biso   1.000  H
  H102     1.0000 0.80880  0.97230  0.34660  Biso   1.000  H
  C89      1.0000 0.17960  0.90370  0.65460  Biso   1.000  C
  C90      1.0000 0.82040  0.09630  0.34540  Biso   1.000  C
  H103     1.0000 0.24080  0.92130  0.70200  Biso   1.000  H
  H104     1.0000 0.75920  0.07870  0.29800  Biso   1.000  H
  N1       1.0000 0.12250  0.81690  0.61590  Biso   1.000  N
  N2       1.0000 0.87750  0.18310  0.38410  Biso   1.000  N
  N3       1.0000 0.03950  0.01370  0.52880  Biso   1.000  N
  N4       1.0000 0.96050  0.98630  0.47120  Biso   1.000  N
  C91      1.0000 0.96400  0.86100  0.54400  Biso   1.000  C
  C92      1.0000 0.03600  0.13900  0.45600  Biso   1.000  C
  H105     1.0000 0.88040  0.84830  0.51350  Biso   1.000  H
  H106     1.0000 0.11960  0.15170  0.48650  Biso   1.000  H
  C93      1.0000 0.21300  0.88900  0.62100  Biso   1.000  C
  C94      1.0000 0.78700  0.11100  0.37900  Biso   1.000  C
  H107     1.0000 0.29870  0.90010  0.64840  Biso   1.000  H
  H108     1.0000 0.70130  0.09990  0.35160  Biso   1.000  H
  C95      1.0000 0.99800  0.80200  0.57700  Biso   1.000  C
  C96      1.0000 0.00200  0.19800  0.42300  Biso   1.000  C
  H109     1.0000 0.93460  0.75040  0.57310  Biso   1.000  H
  H110     1.0000 0.06540  0.24960  0.42690  Biso   1.000  H
  C97      1.0000 0.18200  0.94800  0.58700  Biso   1.000  C
  C98      1.0000 0.81800  0.05200  0.41300  Biso   1.000  C
  H111     1.0000 0.24900  0.99480  0.58600  Biso   1.000  H
  H112     1.0000 0.75100  0.00520  0.41400  Biso   1.000  H
  N5       1.0000 0.47340  0.02280  0.01920  Biso   1.000  N
  N6       1.0000 0.52660  0.97720  0.98080  Biso   1.000  N
  C99      1.0000 0.44810  0.08030  0.96820  Biso   1.000  C
  C100     1.0000 0.55190  0.91970  0.03180  Biso   1.000  C
  C101     1.0000 0.47710  0.06760  0.89390  Biso   1.000  C
  C102     1.0000 0.52290  0.93240  0.10610  Biso   1.000  C
  H113     1.0000 0.51670  0.02000  0.86620  Biso   1.000  H
  H114     1.0000 0.48330  0.98000  0.13380  Biso   1.000  H
  C103     1.0000 0.44900  0.12510  0.85530  Biso   1.000  C
  C104     1.0000 0.55100  0.87490  0.14470  Biso   1.000  C
  H115     1.0000 0.47180  0.11630  0.80190  Biso   1.000  H
  H116     1.0000 0.52820  0.88370  0.19810  Biso   1.000  H
  C105     1.0000 0.35380  0.19980  0.96600  Biso   1.000  C
  C106     1.0000 0.64620  0.80020  0.03400  Biso   1.000  C
  H117     1.0000 0.30710  0.24420  0.99110  Biso   1.000  H
  H118     1.0000 0.69290  0.75580  0.00890  Biso   1.000  H
  C107     1.0000 0.38170  0.14570  0.00600  Biso   1.000  C
  C108     1.0000 0.61830  0.85430  0.99400  Biso   1.000  C
  H119     1.0000 0.35570  0.15310  0.05860  Biso   1.000  H
  H120     1.0000 0.64430  0.84690  0.94140  Biso   1.000  H
  N7       1.0000 0.39160  0.19090  0.89200  Biso   1.000  N
  N8       1.0000 0.60840  0.80910  0.10800  Biso   1.000  N
  O1       1.0000 0.75200  0.66590  0.41670  Biso   1.000  O
  O2       1.0000 0.24800  0.33410  0.58330  Biso   1.000  O
  C109     1.0000 0.78000  0.58490  0.42320  Biso   1.000  C
  C110     1.0000 0.22000  0.41510  0.57680  Biso   1.000  C
  H121     1.0000 0.70540  0.53440  0.39580  Biso   1.000  H
  H122     1.0000 0.29460  0.46560  0.60420  Biso   1.000  H
  H123     1.0000 0.79510  0.59180  0.48120  Biso   1.000  H
  H124     1.0000 0.20490  0.40820  0.51880  Biso   1.000  H
  C111     1.0000 0.89900  0.56960  0.38370  Biso   1.000  C
  C112     1.0000 0.10100  0.43040  0.61630  Biso   1.000  C
  H125     1.0000 0.88390  0.50870  0.34290  Biso   1.000  H
  H126     1.0000 0.11610  0.49130  0.65710  Biso   1.000  H
  H127     1.0000 0.97380  0.57800  0.42470  Biso   1.000  H
  H128     1.0000 0.02620  0.42200  0.57530  Biso   1.000  H
  C113     1.0000 0.92950  0.63630  0.34280  Biso   1.000  C
  C114     1.0000 0.07050  0.36370  0.65720  Biso   1.000  C
  H129     1.0000 0.00200  0.68660  0.37490  Biso   1.000  H
  H130     1.0000 0.99800  0.31340  0.62510  Biso   1.000  H
  H131     1.0000 0.95210  0.60900  0.28690  Biso   1.000  H
  H132     1.0000 0.04790  0.39100  0.71310  Biso   1.000  H
  C115     1.0000 0.80100  0.66400  0.34180  Biso   1.000  C
  C116     1.0000 0.19900  0.33600  0.65820  Biso   1.000  C
  H133     1.0000 0.81360  0.72310  0.33790  Biso   1.000  H
  H134     1.0000 0.18640  0.27690  0.66210  Biso   1.000  H
  H135     1.0000 0.73820  0.62130  0.29470  Biso   1.000  H
  H136     1.0000 0.26180  0.37870  0.70530  Biso   1.000  H
  O3       1.0000 0.77850  0.63810  0.42560  Biso   1.000  O
  O4       1.0000 0.22150  0.36190  0.57440  Biso   1.000  O
  C117     1.0000 0.86700  0.57640  0.41020  Biso   1.000  C
  C118     1.0000 0.13300  0.42360  0.58980  Biso   1.000  C
  H137     1.0000 0.91980  0.58550  0.46180  Biso   1.000  H
  H138     1.0000 0.08020  0.41450  0.53820  Biso   1.000  H
  H139     1.0000 0.81530  0.51490  0.38800  Biso   1.000  H
  H140     1.0000 0.18470  0.48510  0.61200  Biso   1.000  H
  C119     1.0000 0.95500  0.59140  0.35170  Biso   1.000  C
  C120     1.0000 0.04500  0.40860  0.64830  Biso   1.000  C
  H141     1.0000 0.97310  0.53520  0.31450  Biso   1.000  H
  H142     1.0000 0.02690  0.46480  0.68550  Biso   1.000  H
  H143     1.0000 0.04000  0.63200  0.38000  Biso   1.000  H
  H144     1.0000 0.96000  0.36800  0.62000  Biso   1.000  H
  C121     1.0000 0.87900  0.63200  0.30640  Biso   1.000  C
  C122     1.0000 0.12100  0.36800  0.69360  Biso   1.000  C
  H145     1.0000 0.93450  0.68700  0.30520  Biso   1.000  H
  H146     1.0000 0.06550  0.31300  0.69480  Biso   1.000  H
  H147     1.0000 0.84930  0.59060  0.24970  Biso   1.000  H
  H148     1.0000 0.15070  0.40940  0.75030  Biso   1.000  H
  C123     1.0000 0.77000  0.65000  0.34970  Biso   1.000  C
  C124     1.0000 0.23000  0.35000  0.65030  Biso   1.000  C
  H149     1.0000 0.68870  0.61100  0.31550  Biso   1.000  H
  H150     1.0000 0.31130  0.38900  0.68450  Biso   1.000  H
  H151     1.0000 0.76420  0.71190  0.35970  Biso   1.000  H
  H152     1.0000 0.23580  0.28810  0.64030  Biso   1.000  H
  O5       1.0000 0.49390  0.36460  0.14170  Biso   1.000  O
  O6       1.0000 0.50610  0.63540  0.85830  Biso   1.000  O
  C125     1.0000 0.60380  0.34310  0.18170  Biso   1.000  C
  C126     1.0000 0.39620  0.65690  0.81830  Biso   1.000  C
  H153     1.0000 0.59880  0.36100  0.24100  Biso   1.000  H
  H154     1.0000 0.40120  0.63900  0.75900  Biso   1.000  H
  H155     1.0000 0.59980  0.27880  0.15880  Biso   1.000  H
  H156     1.0000 0.40020  0.72120  0.84120  Biso   1.000  H
  C127     1.0000 0.71800  0.38840  0.16740  Biso   1.000  C
  C128     1.0000 0.28200  0.61160  0.83260  Biso   1.000  C
  H157     1.0000 0.79060  0.35780  0.16850  Biso   1.000  H
  H158     1.0000 0.20940  0.64220  0.83150  Biso   1.000  H
  H159     1.0000 0.74330  0.44900  0.20890  Biso   1.000  H
  H160     1.0000 0.25670  0.55100  0.79110  Biso   1.000  H
  C129     1.0000 0.68740  0.39060  0.08270  Biso   1.000  C
  C130     1.0000 0.31260  0.60940  0.91730  Biso   1.000  C
  H161     1.0000 0.75410  0.43480  0.07160  Biso   1.000  H
  H162     1.0000 0.24590  0.56520  0.92840  Biso   1.000  H
  H163     1.0000 0.67860  0.33200  0.03920  Biso   1.000  H
  H164     1.0000 0.32140  0.66800  0.96080  Biso   1.000  H
  C131     1.0000 0.56270  0.41660  0.09310  Biso   1.000  C
  C132     1.0000 0.43730  0.58340  0.90690  Biso   1.000  C
  H165     1.0000 0.51070  0.40110  0.03960  Biso   1.000  H
  H166     1.0000 0.48930  0.59890  0.96040  Biso   1.000  H
  H167     1.0000 0.57590  0.48090  0.12340  Biso   1.000  H
  H168     1.0000 0.42410  0.51910  0.87660  Biso   1.000  H
  O7       1.0000 0.36950  0.77470  0.68990  Biso   1.000  O
  O8       1.0000 0.63050  0.22530  0.31010  Biso   1.000  O
  O9       1.0000 0.21640  0.63340  0.56050  Biso   1.000  O
  O10      1.0000 0.78360  0.36660  0.43950  Biso   1.000  O
  O11      1.0000 0.98990  0.36450  0.35740  Biso   1.000  O
  O12      1.0000 0.01010  0.63550  0.64260  Biso   1.000  O
  O13      1.0000 0.84080  0.22000  0.22830  Biso   1.000  O
  O14      1.0000 0.15920  0.78000  0.77170  Biso   1.000  O
  O15      1.0000 0.16380  0.21830  0.79250  Biso   1.000  O
  O16      1.0000 0.83620  0.78170  0.20750  Biso   1.000  O
  O17      1.0000 0.29030  0.36740  0.92450  Biso   1.000  O
  O18      1.0000 0.70970  0.63260  0.07550  Biso   1.000  O
  O19      1.0000 0.48420  0.63380  0.13970  Biso   1.000  O
  O20      1.0000 0.51580  0.36620  0.86030  Biso   1.000  O
  O21      1.0000 0.60950  0.78300  0.27330  Biso   1.000  O
  O22      1.0000 0.39050  0.21700  0.72670  Biso   1.000  O
  Cu1      1.0000 0.18247  0.71271  0.66323  Biso   1.000  Cu
  Cu2      1.0000 0.81753  0.28729  0.33677  Biso   1.000  Cu
  Cu3      1.0000 0.34354  0.28623  0.82992  Biso   1.000  Cu
  Cu4      1.0000 0.65646  0.71377  0.17008  Biso   1.000  Cu
