data_image0
_cell_length_a       8.524
_cell_length_b       8.855
_cell_length_c       9.593
_cell_angle_alpha    90
_cell_angle_beta     105.51
_cell_angle_gamma    90

_symmetry_space_group_name_H-M    "P 1"
_symmetry_int_tables_number       1

loop_
  _symmetry_equiv_pos_as_xyz
  'x, y, z'

loop_
  _atom_site_label
  _atom_site_occupancy
  _atom_site_fract_x
  _atom_site_fract_y
  _atom_site_fract_z
  _atom_site_thermal_displace_type
  _atom_site_B_iso_or_equiv
  _atom_site_type_symbol
  Cu1      1.0000 0.00000  0.50000  0.50000  Biso   1.000  Cu
  Cu2      1.0000 0.00000  0.00000  0.00000  Biso   1.000  Cu
  Cl1      1.0000 0.75801  0.38044  0.46359  Biso   1.000  Cl
  Cl2      1.0000 0.24199  0.88044  0.03641  Biso   1.000  Cl
  Cl3      1.0000 0.24199  0.61956  0.53641  Biso   1.000  Cl
  Cl4      1.0000 0.75801  0.11956  0.96359  Biso   1.000  Cl
  N1       1.0000 0.90060  0.72570  0.62720  Biso   1.000  N
  N2       1.0000 0.09940  0.22570  0.87280  Biso   1.000  N
  N3       1.0000 0.09940  0.27430  0.37280  Biso   1.000  N
  N4       1.0000 0.90060  0.77430  0.12720  Biso   1.000  N
  N5       1.0000 0.76220  0.79875  0.61737  Biso   1.000  N
  N6       1.0000 0.23780  0.29875  0.88263  Biso   1.000  N
  N7       1.0000 0.23780  0.20125  0.38263  Biso   1.000  N
  N8       1.0000 0.76220  0.70125  0.11737  Biso   1.000  N
  N9       1.0000 0.76820  0.89540  0.72137  Biso   1.000  N
  N10      1.0000 0.23180  0.39540  0.77863  Biso   1.000  N
  N11      1.0000 0.23180  0.10460  0.27863  Biso   1.000  N
  N12      1.0000 0.76820  0.60460  0.22137  Biso   1.000  N
  N13      1.0000 0.91820  0.88685  0.80631  Biso   1.000  N
  N14      1.0000 0.08180  0.38685  0.69369  Biso   1.000  N
  N15      1.0000 0.08180  0.11315  0.19369  Biso   1.000  N
  N16      1.0000 0.91820  0.61315  0.30631  Biso   1.000  N
  C1       1.0000 0.99580  0.78330  0.74670  Biso   1.000  C
  C2       1.0000 0.00420  0.28330  0.75330  Biso   1.000  C
  C3       1.0000 0.00420  0.21670  0.25330  Biso   1.000  C
  C4       1.0000 0.99580  0.71670  0.24670  Biso   1.000  C
  H1       1.0000 0.10400  0.75570  0.78530  Biso   1.000  H
  H2       1.0000 0.89600  0.25570  0.71470  Biso   1.000  H
  H3       1.0000 0.89600  0.24430  0.21470  Biso   1.000  H
  H4       1.0000 0.10400  0.74430  0.28530  Biso   1.000  H
  C5       1.0000 0.61330  0.77400  0.50050  Biso   1.000  C
  C6       1.0000 0.38670  0.27400  0.99950  Biso   1.000  C
  C7       1.0000 0.38670  0.22600  0.49950  Biso   1.000  C
  C8       1.0000 0.61330  0.72600  0.00050  Biso   1.000  C
  H5       1.0000 0.61160  0.67030  0.46770  Biso   1.000  H
  H6       1.0000 0.38840  0.17030  0.03230  Biso   1.000  H
  H7       1.0000 0.38840  0.32970  0.53230  Biso   1.000  H
  H8       1.0000 0.61160  0.82970  0.96770  Biso   1.000  H
  H9       1.0000 0.51960  0.78860  0.53830  Biso   1.000  H
  H10      1.0000 0.48040  0.28860  0.96170  Biso   1.000  H
  H11      1.0000 0.48040  0.21140  0.46170  Biso   1.000  H
  H12      1.0000 0.51960  0.71140  0.03830  Biso   1.000  H
  C9       1.0000 0.59920  0.87690  0.37470  Biso   1.000  C
  C10      1.0000 0.40080  0.37690  0.12530  Biso   1.000  C
  C11      1.0000 0.40080  0.12310  0.62530  Biso   1.000  C
  C12      1.0000 0.59920  0.62310  0.87470  Biso   1.000  C
  H13      1.0000 0.50450  0.86860  0.29950  Biso   1.000  H
  H14      1.0000 0.49550  0.36860  0.20050  Biso   1.000  H
  H15      1.0000 0.49550  0.13140  0.70050  Biso   1.000  H
  H16      1.0000 0.50450  0.63140  0.79950  Biso   1.000  H
  C13      1.0000 0.70470  0.97700  0.35840  Biso   1.000  C
  C14      1.0000 0.29530  0.47700  0.14160  Biso   1.000  C
  C15      1.0000 0.29530  0.02300  0.64160  Biso   1.000  C
  C16      1.0000 0.70470  0.52300  0.85840  Biso   1.000  C
  H17      1.0000 0.80150  0.98990  0.43030  Biso   1.000  H
  H18      1.0000 0.19850  0.48990  0.06970  Biso   1.000  H
  H19      1.0000 0.19850  0.01010  0.56970  Biso   1.000  H
  H20      1.0000 0.80150  0.51010  0.93030  Biso   1.000  H
  H21      1.0000 0.68340  0.03550  0.27500  Biso   1.000  H
  H22      1.0000 0.31660  0.53550  0.22500  Biso   1.000  H
  H23      1.0000 0.31660  0.96450  0.72500  Biso   1.000  H
  H24      1.0000 0.68340  0.46450  0.77500  Biso   1.000  H
