data_image0
_cell_length_a       9.885
_cell_length_b       8.867
_cell_length_c       17.092
_cell_angle_alpha    90
_cell_angle_beta     90
_cell_angle_gamma    90

_symmetry_space_group_name_H-M    "P 1"
_symmetry_int_tables_number       1

loop_
  _symmetry_equiv_pos_as_xyz
  'x, y, z'

loop_
  _atom_site_label
  _atom_site_occupancy
  _atom_site_fract_x
  _atom_site_fract_y
  _atom_site_fract_z
  _atom_site_thermal_displace_type
  _atom_site_B_iso_or_equiv
  _atom_site_type_symbol
  Cu1      1.0000 0.50000  0.50000  0.50000  Biso   1.000  Cu
  Cu2      1.0000 0.00000  0.50000  0.00000  Biso   1.000  Cu
  Cu3      1.0000 0.50000  0.00000  0.00000  Biso   1.000  Cu
  Cu4      1.0000 0.00000  0.00000  0.50000  Biso   1.000  Cu
  Cl1      1.0000 0.60885  0.47837  0.61608  Biso   1.000  Cl
  Cl2      1.0000 0.89115  0.52163  0.11608  Biso   1.000  Cl
  Cl3      1.0000 0.39115  0.97837  0.88392  Biso   1.000  Cl
  Cl4      1.0000 0.10885  0.02163  0.38392  Biso   1.000  Cl
  Cl5      1.0000 0.39115  0.52163  0.38392  Biso   1.000  Cl
  Cl6      1.0000 0.10885  0.47837  0.88392  Biso   1.000  Cl
  Cl7      1.0000 0.60885  0.02163  0.11608  Biso   1.000  Cl
  Cl8      1.0000 0.89115  0.97837  0.61608  Biso   1.000  Cl
  N1       1.0000 0.34388  0.74200  0.54928  Biso   1.000  N
  N2       1.0000 0.15612  0.25800  0.04928  Biso   1.000  N
  N3       1.0000 0.65612  0.24200  0.95072  Biso   1.000  N
  N4       1.0000 0.84388  0.75800  0.45072  Biso   1.000  N
  N5       1.0000 0.65612  0.25800  0.45072  Biso   1.000  N
  N6       1.0000 0.84388  0.74200  0.95072  Biso   1.000  N
  N7       1.0000 0.34388  0.75800  0.04928  Biso   1.000  N
  N8       1.0000 0.15612  0.24200  0.54928  Biso   1.000  N
  N9       1.0000 0.30988  0.80519  0.61691  Biso   1.000  N
  N10      1.0000 0.19012  0.19481  0.11691  Biso   1.000  N
  N11      1.0000 0.69012  0.30519  0.88309  Biso   1.000  N
  N12      1.0000 0.80988  0.69481  0.38309  Biso   1.000  N
  N13      1.0000 0.69012  0.19481  0.38309  Biso   1.000  N
  N14      1.0000 0.80988  0.80519  0.88309  Biso   1.000  N
  N15      1.0000 0.30988  0.69481  0.11691  Biso   1.000  N
  N16      1.0000 0.19012  0.30519  0.61691  Biso   1.000  N
  N17      1.0000 0.20047  0.88800  0.61424  Biso   1.000  N
  N18      1.0000 0.29953  0.11200  0.11424  Biso   1.000  N
  N19      1.0000 0.79953  0.38800  0.88576  Biso   1.000  N
  N20      1.0000 0.70047  0.61200  0.38576  Biso   1.000  N
  N21      1.0000 0.79953  0.11200  0.38576  Biso   1.000  N
  N22      1.0000 0.70047  0.88800  0.88576  Biso   1.000  N
  N23      1.0000 0.20047  0.61200  0.11424  Biso   1.000  N
  N24      1.0000 0.29953  0.38800  0.61424  Biso   1.000  N
  N25      1.0000 0.15870  0.87998  0.54076  Biso   1.000  N
  N26      1.0000 0.34130  0.12002  0.04076  Biso   1.000  N
  N27      1.0000 0.84130  0.37998  0.95924  Biso   1.000  N
  N28      1.0000 0.65870  0.62002  0.45924  Biso   1.000  N
  N29      1.0000 0.84130  0.12002  0.45924  Biso   1.000  N
  N30      1.0000 0.65870  0.87998  0.95924  Biso   1.000  N
  N31      1.0000 0.15870  0.62002  0.04076  Biso   1.000  N
  N32      1.0000 0.34130  0.37998  0.54076  Biso   1.000  N
  C1       1.0000 0.24660  0.79180  0.50275  Biso   1.000  C
  C2       1.0000 0.25340  0.20820  0.00275  Biso   1.000  C
  C3       1.0000 0.75340  0.29180  0.99725  Biso   1.000  C
  C4       1.0000 0.74660  0.70820  0.49725  Biso   1.000  C
  C5       1.0000 0.75340  0.20820  0.49725  Biso   1.000  C
  C6       1.0000 0.74660  0.79180  0.99725  Biso   1.000  C
  C7       1.0000 0.24660  0.70820  0.00275  Biso   1.000  C
  C8       1.0000 0.25340  0.29180  0.50275  Biso   1.000  C
  H1       1.0000 0.24010  0.76830  0.44990  Biso   1.000  H
  H2       1.0000 0.25990  0.23170  0.94990  Biso   1.000  H
  H3       1.0000 0.75990  0.26830  0.05010  Biso   1.000  H
  H4       1.0000 0.74010  0.73170  0.55010  Biso   1.000  H
  H5       1.0000 0.75990  0.23170  0.55010  Biso   1.000  H
  H6       1.0000 0.74010  0.76830  0.05010  Biso   1.000  H
  H7       1.0000 0.24010  0.73170  0.94990  Biso   1.000  H
  H8       1.0000 0.25990  0.26830  0.44990  Biso   1.000  H
  C9       1.0000 0.39330  0.79400  0.68746  Biso   1.000  C
  C10      1.0000 0.10670  0.20600  0.18746  Biso   1.000  C
  C11      1.0000 0.60670  0.29400  0.81254  Biso   1.000  C
  C12      1.0000 0.89330  0.70600  0.31254  Biso   1.000  C
  C13      1.0000 0.60670  0.20600  0.31254  Biso   1.000  C
  C14      1.0000 0.89330  0.79400  0.81254  Biso   1.000  C
  C15      1.0000 0.39330  0.70600  0.18746  Biso   1.000  C
  C16      1.0000 0.10670  0.29400  0.68746  Biso   1.000  C
  H9       1.0000 0.34120  0.82750  0.73230  Biso   1.000  H
  H10      1.0000 0.15880  0.17250  0.23230  Biso   1.000  H
  H11      1.0000 0.65880  0.32750  0.76770  Biso   1.000  H
  H12      1.0000 0.84120  0.67250  0.26770  Biso   1.000  H
  H13      1.0000 0.65880  0.17250  0.26770  Biso   1.000  H
  H14      1.0000 0.84120  0.82750  0.76770  Biso   1.000  H
  H15      1.0000 0.34120  0.67250  0.23230  Biso   1.000  H
  H16      1.0000 0.15880  0.32750  0.73230  Biso   1.000  H
  H17      1.0000 0.41830  0.68950  0.69600  Biso   1.000  H
  H18      1.0000 0.08170  0.31050  0.19600  Biso   1.000  H
  H19      1.0000 0.58170  0.18950  0.80400  Biso   1.000  H
  H20      1.0000 0.91830  0.81050  0.30400  Biso   1.000  H
  H21      1.0000 0.58170  0.31050  0.30400  Biso   1.000  H
  H22      1.0000 0.91830  0.68950  0.80400  Biso   1.000  H
  H23      1.0000 0.41830  0.81050  0.19600  Biso   1.000  H
  H24      1.0000 0.08170  0.18950  0.69600  Biso   1.000  H
  C17      1.0000 0.51950  0.88840  0.68043  Biso   1.000  C
  C18      1.0000 0.98050  0.11160  0.18043  Biso   1.000  C
  C19      1.0000 0.48050  0.38840  0.81957  Biso   1.000  C
  C20      1.0000 0.01950  0.61160  0.31957  Biso   1.000  C
  C21      1.0000 0.48050  0.11160  0.31957  Biso   1.000  C
  C22      1.0000 0.01950  0.88840  0.81957  Biso   1.000  C
  C23      1.0000 0.51950  0.61160  0.18043  Biso   1.000  C
  C24      1.0000 0.98050  0.38840  0.68043  Biso   1.000  C
  H25      1.0000 0.57900  0.84250  0.64210  Biso   1.000  H
  H26      1.0000 0.92100  0.15750  0.14210  Biso   1.000  H
  H27      1.0000 0.42100  0.34250  0.85790  Biso   1.000  H
  H28      1.0000 0.07900  0.65750  0.35790  Biso   1.000  H
  H29      1.0000 0.42100  0.15750  0.35790  Biso   1.000  H
  H30      1.0000 0.07900  0.84250  0.85790  Biso   1.000  H
  H31      1.0000 0.57900  0.65750  0.14210  Biso   1.000  H
  H32      1.0000 0.92100  0.34250  0.64210  Biso   1.000  H
  H33      1.0000 0.56620  0.88800  0.73030  Biso   1.000  H
  H34      1.0000 0.93380  0.11200  0.23030  Biso   1.000  H
  H35      1.0000 0.43380  0.38800  0.76970  Biso   1.000  H
  H36      1.0000 0.06620  0.61200  0.26970  Biso   1.000  H
  H37      1.0000 0.43380  0.11200  0.26970  Biso   1.000  H
  H38      1.0000 0.06620  0.88800  0.76970  Biso   1.000  H
  H39      1.0000 0.56620  0.61200  0.23030  Biso   1.000  H
  H40      1.0000 0.93380  0.38800  0.73030  Biso   1.000  H
  C25      1.0000 0.49320  0.04860  0.65690  Biso   1.000  C
  C26      1.0000 0.00680  0.95140  0.15690  Biso   1.000  C
  C27      1.0000 0.50680  0.54860  0.84310  Biso   1.000  C
  C28      1.0000 0.99320  0.45140  0.34310  Biso   1.000  C
  C29      1.0000 0.50680  0.95140  0.34310  Biso   1.000  C
  C30      1.0000 0.99320  0.04860  0.84310  Biso   1.000  C
  C31      1.0000 0.49320  0.45140  0.15690  Biso   1.000  C
  C32      1.0000 0.00680  0.54860  0.65690  Biso   1.000  C
  H41      1.0000 0.42550  0.09130  0.69050  Biso   1.000  H
  H42      1.0000 0.07450  0.90870  0.19050  Biso   1.000  H
  H43      1.0000 0.57450  0.59130  0.80950  Biso   1.000  H
  H44      1.0000 0.92550  0.40870  0.30950  Biso   1.000  H
  H45      1.0000 0.57450  0.90870  0.30950  Biso   1.000  H
  H46      1.0000 0.92550  0.09130  0.80950  Biso   1.000  H
  H47      1.0000 0.42550  0.40870  0.19050  Biso   1.000  H
  H48      1.0000 0.07450  0.59130  0.69050  Biso   1.000  H
  H49      1.0000 0.57530  0.10590  0.66140  Biso   1.000  H
  H50      1.0000 0.92470  0.89410  0.16140  Biso   1.000  H
  H51      1.0000 0.42470  0.60590  0.83860  Biso   1.000  H
  H52      1.0000 0.07530  0.39410  0.33860  Biso   1.000  H
  H53      1.0000 0.42470  0.89410  0.33860  Biso   1.000  H
  H54      1.0000 0.07530  0.10590  0.83860  Biso   1.000  H
  H55      1.0000 0.57530  0.39410  0.16140  Biso   1.000  H
  H56      1.0000 0.92470  0.60590  0.66140  Biso   1.000  H
  H57      1.0000 0.46200  0.05130  0.60370  Biso   1.000  H
  H58      1.0000 0.03800  0.94870  0.10370  Biso   1.000  H
  H59      1.0000 0.53800  0.55130  0.89630  Biso   1.000  H
  H60      1.0000 0.96200  0.44870  0.39630  Biso   1.000  H
  H61      1.0000 0.53800  0.94870  0.39630  Biso   1.000  H
  H62      1.0000 0.96200  0.05130  0.89630  Biso   1.000  H
  H63      1.0000 0.46200  0.44870  0.10370  Biso   1.000  H
  H64      1.0000 0.03800  0.55130  0.60370  Biso   1.000  H
