data_image0
_cell_length_a       21.603
_cell_length_b       14.8505
_cell_length_c       16.604
_cell_angle_alpha    90
_cell_angle_beta     125.682
_cell_angle_gamma    90

_symmetry_space_group_name_H-M    "P 1"
_symmetry_int_tables_number       1

loop_
  _symmetry_equiv_pos_as_xyz
  'x, y, z'

loop_
  _atom_site_label
  _atom_site_occupancy
  _atom_site_fract_x
  _atom_site_fract_y
  _atom_site_fract_z
  _atom_site_thermal_displace_type
  _atom_site_B_iso_or_equiv
  _atom_site_type_symbol
  Cu1      1.0000 0.13520  0.25117  0.62109  Biso   1.000  Cu
  Cu2      1.0000 0.63520  0.75117  0.62109  Biso   1.000  Cu
  Cu3      1.0000 0.86480  0.25117  0.87891  Biso   1.000  Cu
  Cu4      1.0000 0.36480  0.75117  0.87891  Biso   1.000  Cu
  Cu5      1.0000 0.86480  0.74883  0.37891  Biso   1.000  Cu
  Cu6      1.0000 0.36480  0.24883  0.37891  Biso   1.000  Cu
  Cu7      1.0000 0.13520  0.74883  0.12109  Biso   1.000  Cu
  Cu8      1.0000 0.63520  0.24883  0.12109  Biso   1.000  Cu
  Cr1      1.0000 0.33544  0.20572  0.77490  Biso   1.000  Cr
  Cr2      1.0000 0.83544  0.70572  0.77490  Biso   1.000  Cr
  Cr3      1.0000 0.66456  0.20572  0.72510  Biso   1.000  Cr
  Cr4      1.0000 0.16456  0.70572  0.72510  Biso   1.000  Cr
  Cr5      1.0000 0.66456  0.79428  0.22510  Biso   1.000  Cr
  Cr6      1.0000 0.16456  0.29428  0.22510  Biso   1.000  Cr
  Cr7      1.0000 0.33544  0.79428  0.27490  Biso   1.000  Cr
  Cr8      1.0000 0.83544  0.29428  0.27490  Biso   1.000  Cr
  Cr9      1.0000 0.41981  0.26282  0.00090  Biso   1.000  Cr
  Cr10     1.0000 0.91981  0.76282  0.00090  Biso   1.000  Cr
  Cr11     1.0000 0.58019  0.26282  0.49910  Biso   1.000  Cr
  Cr12     1.0000 0.08019  0.76282  0.49910  Biso   1.000  Cr
  Cr13     1.0000 0.58019  0.73718  0.99910  Biso   1.000  Cr
  Cr14     1.0000 0.08019  0.23718  0.99910  Biso   1.000  Cr
  Cr15     1.0000 0.41981  0.73718  0.50090  Biso   1.000  Cr
  Cr16     1.0000 0.91981  0.23718  0.50090  Biso   1.000  Cr
  O1       1.0000 0.26508  0.27596  0.70369  Biso   1.000  O
  O2       1.0000 0.76508  0.77596  0.70369  Biso   1.000  O
  O3       1.0000 0.73492  0.27596  0.79631  Biso   1.000  O
  O4       1.0000 0.23492  0.77596  0.79631  Biso   1.000  O
  O5       1.0000 0.73492  0.72404  0.29631  Biso   1.000  O
  O6       1.0000 0.23492  0.22404  0.29631  Biso   1.000  O
  O7       1.0000 0.26508  0.72404  0.20369  Biso   1.000  O
  O8       1.0000 0.76508  0.22404  0.20369  Biso   1.000  O
  O9       1.0000 0.31226  0.10670  0.72644  Biso   1.000  O
  O10      1.0000 0.81226  0.60670  0.72644  Biso   1.000  O
  O11      1.0000 0.68774  0.10670  0.77356  Biso   1.000  O
  O12      1.0000 0.18774  0.60670  0.77356  Biso   1.000  O
  O13      1.0000 0.68774  0.89330  0.27356  Biso   1.000  O
  O14      1.0000 0.18774  0.39330  0.27356  Biso   1.000  O
  O15      1.0000 0.31226  0.89330  0.22644  Biso   1.000  O
  O16      1.0000 0.81226  0.39330  0.22644  Biso   1.000  O
  O17      1.0000 0.41134  0.23950  0.78674  Biso   1.000  O
  O18      1.0000 0.91134  0.73950  0.78674  Biso   1.000  O
  O19      1.0000 0.58866  0.23950  0.71326  Biso   1.000  O
  O20      1.0000 0.08866  0.73950  0.71326  Biso   1.000  O
  O21      1.0000 0.58866  0.76050  0.21326  Biso   1.000  O
  O22      1.0000 0.08866  0.26050  0.21326  Biso   1.000  O
  O23      1.0000 0.41134  0.76050  0.28674  Biso   1.000  O
  O24      1.0000 0.91134  0.26050  0.28674  Biso   1.000  O
  O25      1.0000 0.35066  0.19990  0.89264  Biso   1.000  O
  O26      1.0000 0.85066  0.69990  0.89264  Biso   1.000  O
  O27      1.0000 0.64934  0.19990  0.60736  Biso   1.000  O
  O28      1.0000 0.14934  0.69990  0.60736  Biso   1.000  O
  O29      1.0000 0.64934  0.80010  0.10736  Biso   1.000  O
  O30      1.0000 0.14934  0.30010  0.10736  Biso   1.000  O
  O31      1.0000 0.35066  0.80010  0.39264  Biso   1.000  O
  O32      1.0000 0.85066  0.30010  0.39264  Biso   1.000  O
  O33      1.0000 0.39622  0.36783  0.98379  Biso   1.000  O
  O34      1.0000 0.89622  0.86783  0.98379  Biso   1.000  O
  O35      1.0000 0.60378  0.36783  0.51621  Biso   1.000  O
  O36      1.0000 0.10378  0.86783  0.51621  Biso   1.000  O
  O37      1.0000 0.60378  0.63217  0.01621  Biso   1.000  O
  O38      1.0000 0.10378  0.13217  0.01621  Biso   1.000  O
  O39      1.0000 0.39622  0.63217  0.48379  Biso   1.000  O
  O40      1.0000 0.89622  0.13217  0.48379  Biso   1.000  O
  O41      1.0000 0.42047  0.22367  0.09203  Biso   1.000  O
  O42      1.0000 0.92047  0.72367  0.09203  Biso   1.000  O
  O43      1.0000 0.57953  0.22367  0.40797  Biso   1.000  O
  O44      1.0000 0.07953  0.72367  0.40797  Biso   1.000  O
  O45      1.0000 0.57953  0.77633  0.90797  Biso   1.000  O
  O46      1.0000 0.07953  0.27633  0.90797  Biso   1.000  O
  O47      1.0000 0.42047  0.77633  0.59203  Biso   1.000  O
  O48      1.0000 0.92047  0.27633  0.59203  Biso   1.000  O
  O49      1.0000 0.50347  0.25031  0.02384  Biso   1.000  O
  O50      1.0000 0.00347  0.75031  0.02384  Biso   1.000  O
  O51      1.0000 0.49653  0.25031  0.47616  Biso   1.000  O
  O52      1.0000 0.99653  0.75031  0.47616  Biso   1.000  O
  O53      1.0000 0.49653  0.74969  0.97616  Biso   1.000  O
  O54      1.0000 0.99653  0.24969  0.97616  Biso   1.000  O
  O55      1.0000 0.50347  0.74969  0.52384  Biso   1.000  O
  O56      1.0000 0.00347  0.24969  0.52384  Biso   1.000  O
  N1       1.0000 0.12198  0.35858  0.52904  Biso   1.000  N
  N2       1.0000 0.62198  0.85858  0.52904  Biso   1.000  N
  N3       1.0000 0.87802  0.35858  0.97096  Biso   1.000  N
  N4       1.0000 0.37802  0.85858  0.97096  Biso   1.000  N
  N5       1.0000 0.87802  0.64142  0.47096  Biso   1.000  N
  N6       1.0000 0.37802  0.14142  0.47096  Biso   1.000  N
  N7       1.0000 0.12198  0.64142  0.02904  Biso   1.000  N
  N8       1.0000 0.62198  0.14142  0.02904  Biso   1.000  N
  N9       1.0000 0.13276  0.16381  0.52695  Biso   1.000  N
  N10      1.0000 0.63276  0.66381  0.52695  Biso   1.000  N
  N11      1.0000 0.86724  0.16381  0.97305  Biso   1.000  N
  N12      1.0000 0.36724  0.66381  0.97305  Biso   1.000  N
  N13      1.0000 0.86724  0.83619  0.47305  Biso   1.000  N
  N14      1.0000 0.36724  0.33619  0.47305  Biso   1.000  N
  N15      1.0000 0.13276  0.83619  0.02695  Biso   1.000  N
  N16      1.0000 0.63276  0.33619  0.02695  Biso   1.000  N
  N17      1.0000 0.13121  0.85455  0.20216  Biso   1.000  N
  N18      1.0000 0.63121  0.35455  0.20216  Biso   1.000  N
  N19      1.0000 0.86879  0.85455  0.29784  Biso   1.000  N
  N20      1.0000 0.36879  0.35455  0.29784  Biso   1.000  N
  N21      1.0000 0.86879  0.14545  0.79784  Biso   1.000  N
  N22      1.0000 0.36879  0.64545  0.79784  Biso   1.000  N
  N23      1.0000 0.13121  0.14545  0.70216  Biso   1.000  N
  N24      1.0000 0.63121  0.64545  0.70216  Biso   1.000  N
  N25      1.0000 0.14071  0.66020  0.21516  Biso   1.000  N
  N26      1.0000 0.64071  0.16020  0.21516  Biso   1.000  N
  N27      1.0000 0.85929  0.66020  0.28484  Biso   1.000  N
  N28      1.0000 0.35929  0.16020  0.28484  Biso   1.000  N
  N29      1.0000 0.85929  0.33980  0.78484  Biso   1.000  N
  N30      1.0000 0.35929  0.83980  0.78484  Biso   1.000  N
  N31      1.0000 0.14071  0.33980  0.71516  Biso   1.000  N
  N32      1.0000 0.64071  0.83980  0.71516  Biso   1.000  N
  C1       1.0000 0.15453  0.43983  0.56358  Biso   1.000  C
  C2       1.0000 0.65453  0.93983  0.56358  Biso   1.000  C
  C3       1.0000 0.84547  0.43983  0.93642  Biso   1.000  C
  C4       1.0000 0.34547  0.93983  0.93642  Biso   1.000  C
  C5       1.0000 0.84547  0.56017  0.43642  Biso   1.000  C
  C6       1.0000 0.34547  0.06017  0.43642  Biso   1.000  C
  C7       1.0000 0.15453  0.56017  0.06358  Biso   1.000  C
  C8       1.0000 0.65453  0.06017  0.06358  Biso   1.000  C
  H1       1.0000 0.17630  0.45360  0.63100  Biso   1.000  H
  H2       1.0000 0.67630  0.95360  0.63100  Biso   1.000  H
  H3       1.0000 0.82370  0.45360  0.86900  Biso   1.000  H
  H4       1.0000 0.32370  0.95360  0.86900  Biso   1.000  H
  H5       1.0000 0.82370  0.54640  0.36900  Biso   1.000  H
  H6       1.0000 0.32370  0.04640  0.36900  Biso   1.000  H
  H7       1.0000 0.17630  0.54640  0.13100  Biso   1.000  H
  H8       1.0000 0.67630  0.04640  0.13100  Biso   1.000  H
  C9       1.0000 0.15807  0.50457  0.50618  Biso   1.000  C
  C10      1.0000 0.65807  0.00457  0.50618  Biso   1.000  C
  C11      1.0000 0.84193  0.50457  0.99382  Biso   1.000  C
  C12      1.0000 0.34193  0.00457  0.99382  Biso   1.000  C
  C13      1.0000 0.84193  0.49543  0.49382  Biso   1.000  C
  C14      1.0000 0.34193  0.99543  0.49382  Biso   1.000  C
  C15      1.0000 0.15807  0.49543  0.00618  Biso   1.000  C
  C16      1.0000 0.65807  0.99543  0.00618  Biso   1.000  C
  H9       1.0000 0.17960  0.56210  0.53290  Biso   1.000  H
  H10      1.0000 0.67960  0.06210  0.53290  Biso   1.000  H
  H11      1.0000 0.82040  0.56210  0.96710  Biso   1.000  H
  H12      1.0000 0.32040  0.06210  0.96710  Biso   1.000  H
  H13      1.0000 0.82040  0.43790  0.46710  Biso   1.000  H
  H14      1.0000 0.32040  0.93790  0.46710  Biso   1.000  H
  H15      1.0000 0.17960  0.43790  0.03290  Biso   1.000  H
  H16      1.0000 0.67960  0.93790  0.03290  Biso   1.000  H
  C17      1.0000 0.12939  0.48343  0.40829  Biso   1.000  C
  C18      1.0000 0.62939  0.98343  0.40829  Biso   1.000  C
  C19      1.0000 0.87061  0.48343  0.09171  Biso   1.000  C
  C20      1.0000 0.37061  0.98343  0.09171  Biso   1.000  C
  C21      1.0000 0.87061  0.51657  0.59171  Biso   1.000  C
  C22      1.0000 0.37061  0.01657  0.59171  Biso   1.000  C
  C23      1.0000 0.12939  0.51657  0.90829  Biso   1.000  C
  C24      1.0000 0.62939  0.01657  0.90829  Biso   1.000  C
  C25      1.0000 0.09333  0.40042  0.37136  Biso   1.000  C
  C26      1.0000 0.59333  0.90042  0.37136  Biso   1.000  C
  C27      1.0000 0.90667  0.40042  0.12864  Biso   1.000  C
  C28      1.0000 0.40667  0.90042  0.12864  Biso   1.000  C
  C29      1.0000 0.90667  0.59958  0.62864  Biso   1.000  C
  C30      1.0000 0.40667  0.09958  0.62864  Biso   1.000  C
  C31      1.0000 0.09333  0.59958  0.87136  Biso   1.000  C
  C32      1.0000 0.59333  0.09958  0.87136  Biso   1.000  C
  H17      1.0000 0.07210  0.38430  0.30460  Biso   1.000  H
  H18      1.0000 0.57210  0.88430  0.30460  Biso   1.000  H
  H19      1.0000 0.92790  0.38430  0.19540  Biso   1.000  H
  H20      1.0000 0.42790  0.88430  0.19540  Biso   1.000  H
  H21      1.0000 0.92790  0.61570  0.69540  Biso   1.000  H
  H22      1.0000 0.42790  0.11570  0.69540  Biso   1.000  H
  H23      1.0000 0.07210  0.61570  0.80460  Biso   1.000  H
  H24      1.0000 0.57210  0.11570  0.80460  Biso   1.000  H
  C33      1.0000 0.08864  0.34191  0.43209  Biso   1.000  C
  C34      1.0000 0.58864  0.84191  0.43209  Biso   1.000  C
  C35      1.0000 0.91136  0.34191  0.06791  Biso   1.000  C
  C36      1.0000 0.41136  0.84191  0.06791  Biso   1.000  C
  C37      1.0000 0.91136  0.65809  0.56791  Biso   1.000  C
  C38      1.0000 0.41136  0.15809  0.56791  Biso   1.000  C
  C39      1.0000 0.08864  0.65809  0.93209  Biso   1.000  C
  C40      1.0000 0.58864  0.15809  0.93209  Biso   1.000  C
  H25      1.0000 0.06080  0.28760  0.40450  Biso   1.000  H
  H26      1.0000 0.56080  0.78760  0.40450  Biso   1.000  H
  H27      1.0000 0.93920  0.28760  0.09550  Biso   1.000  H
  H28      1.0000 0.43920  0.78760  0.09550  Biso   1.000  H
  H29      1.0000 0.93920  0.71240  0.59550  Biso   1.000  H
  H30      1.0000 0.43920  0.21240  0.59550  Biso   1.000  H
  H31      1.0000 0.06080  0.71240  0.90450  Biso   1.000  H
  H32      1.0000 0.56080  0.21240  0.90450  Biso   1.000  H
  C41      1.0000 0.08085  0.60554  0.18120  Biso   1.000  C
  C42      1.0000 0.58085  0.10554  0.18120  Biso   1.000  C
  C43      1.0000 0.91915  0.60554  0.31880  Biso   1.000  C
  C44      1.0000 0.41915  0.10554  0.31880  Biso   1.000  C
  C45      1.0000 0.91915  0.39446  0.81880  Biso   1.000  C
  C46      1.0000 0.41915  0.89446  0.81880  Biso   1.000  C
  C47      1.0000 0.08085  0.39446  0.68120  Biso   1.000  C
  C48      1.0000 0.58085  0.89446  0.68120  Biso   1.000  C
  H33      1.0000 0.04010  0.60700  0.11260  Biso   1.000  H
  H34      1.0000 0.54010  0.10700  0.11260  Biso   1.000  H
  H35      1.0000 0.95990  0.60700  0.38740  Biso   1.000  H
  H36      1.0000 0.45990  0.10700  0.38740  Biso   1.000  H
  H37      1.0000 0.95990  0.39300  0.88740  Biso   1.000  H
  H38      1.0000 0.45990  0.89300  0.88740  Biso   1.000  H
  H39      1.0000 0.04010  0.39300  0.61260  Biso   1.000  H
  H40      1.0000 0.54010  0.89300  0.61260  Biso   1.000  H
  C49      1.0000 0.07645  0.54754  0.24207  Biso   1.000  C
  C50      1.0000 0.57645  0.04754  0.24207  Biso   1.000  C
  C51      1.0000 0.92355  0.54754  0.25793  Biso   1.000  C
  C52      1.0000 0.42355  0.04754  0.25793  Biso   1.000  C
  C53      1.0000 0.92355  0.45246  0.75793  Biso   1.000  C
  C54      1.0000 0.42355  0.95246  0.75793  Biso   1.000  C
  C55      1.0000 0.07645  0.45246  0.74207  Biso   1.000  C
  C56      1.0000 0.57645  0.95246  0.74207  Biso   1.000  C
  H41      1.0000 0.03370  0.50890  0.21530  Biso   1.000  H
  H42      1.0000 0.53370  0.00890  0.21530  Biso   1.000  H
  H43      1.0000 0.96630  0.50890  0.28470  Biso   1.000  H
  H44      1.0000 0.46630  0.00890  0.28470  Biso   1.000  H
  H45      1.0000 0.96630  0.49110  0.78470  Biso   1.000  H
  H46      1.0000 0.46630  0.99110  0.78470  Biso   1.000  H
  H47      1.0000 0.03370  0.49110  0.71530  Biso   1.000  H
  H48      1.0000 0.53370  0.99110  0.71530  Biso   1.000  H
  C57      1.0000 0.13493  0.54549  0.34331  Biso   1.000  C
  C58      1.0000 0.63493  0.04549  0.34331  Biso   1.000  C
  C59      1.0000 0.86507  0.54549  0.15669  Biso   1.000  C
  C60      1.0000 0.36507  0.04549  0.15669  Biso   1.000  C
  C61      1.0000 0.86507  0.45451  0.65669  Biso   1.000  C
  C62      1.0000 0.36507  0.95451  0.65669  Biso   1.000  C
  C63      1.0000 0.13493  0.45451  0.84331  Biso   1.000  C
  C64      1.0000 0.63493  0.95451  0.84331  Biso   1.000  C
  C65      1.0000 0.19715  0.60211  0.37821  Biso   1.000  C
  C66      1.0000 0.69715  0.10211  0.37821  Biso   1.000  C
  C67      1.0000 0.80285  0.60211  0.12179  Biso   1.000  C
  C68      1.0000 0.30285  0.10211  0.12179  Biso   1.000  C
  C69      1.0000 0.80285  0.39789  0.62179  Biso   1.000  C
  C70      1.0000 0.30285  0.89789  0.62179  Biso   1.000  C
  C71      1.0000 0.19715  0.39789  0.87821  Biso   1.000  C
  C72      1.0000 0.69715  0.89789  0.87821  Biso   1.000  C
  H49      1.0000 0.23830  0.60250  0.44660  Biso   1.000  H
  H50      1.0000 0.73830  0.10250  0.44660  Biso   1.000  H
  H51      1.0000 0.76170  0.60250  0.05340  Biso   1.000  H
  H52      1.0000 0.26170  0.10250  0.05340  Biso   1.000  H
  H53      1.0000 0.76170  0.39750  0.55340  Biso   1.000  H
  H54      1.0000 0.26170  0.89750  0.55340  Biso   1.000  H
  H55      1.0000 0.23830  0.39750  0.94660  Biso   1.000  H
  H56      1.0000 0.73830  0.89750  0.94660  Biso   1.000  H
  C73      1.0000 0.19846  0.65783  0.31234  Biso   1.000  C
  C74      1.0000 0.69846  0.15783  0.31234  Biso   1.000  C
  C75      1.0000 0.80154  0.65783  0.18766  Biso   1.000  C
  C76      1.0000 0.30154  0.15783  0.18766  Biso   1.000  C
  C77      1.0000 0.80154  0.34217  0.68766  Biso   1.000  C
  C78      1.0000 0.30154  0.84217  0.68766  Biso   1.000  C
  C79      1.0000 0.19846  0.34217  0.81234  Biso   1.000  C
  C80      1.0000 0.69846  0.84217  0.81234  Biso   1.000  C
  H57      1.0000 0.24150  0.69550  0.33650  Biso   1.000  H
  H58      1.0000 0.74150  0.19550  0.33650  Biso   1.000  H
  H59      1.0000 0.75850  0.69550  0.16350  Biso   1.000  H
  H60      1.0000 0.25850  0.19550  0.16350  Biso   1.000  H
  H61      1.0000 0.75850  0.30450  0.66350  Biso   1.000  H
  H62      1.0000 0.25850  0.80450  0.66350  Biso   1.000  H
  H63      1.0000 0.24150  0.30450  0.83650  Biso   1.000  H
  H64      1.0000 0.74150  0.80450  0.83650  Biso   1.000  H
  C81      1.0000 0.18575  0.16864  0.50864  Biso   1.000  C
  C82      1.0000 0.68575  0.66864  0.50864  Biso   1.000  C
  C83      1.0000 0.81425  0.16864  0.99136  Biso   1.000  C
  C84      1.0000 0.31425  0.66864  0.99136  Biso   1.000  C
  C85      1.0000 0.81425  0.83136  0.49136  Biso   1.000  C
  C86      1.0000 0.31425  0.33136  0.49136  Biso   1.000  C
  C87      1.0000 0.18575  0.83136  0.00864  Biso   1.000  C
  C88      1.0000 0.68575  0.33136  0.00864  Biso   1.000  C
  H65      1.0000 0.22680  0.20980  0.54590  Biso   1.000  H
  H66      1.0000 0.72680  0.70980  0.54590  Biso   1.000  H
  H67      1.0000 0.77320  0.20980  0.95410  Biso   1.000  H
  H68      1.0000 0.27320  0.70980  0.95410  Biso   1.000  H
  H69      1.0000 0.77320  0.79020  0.45410  Biso   1.000  H
  H70      1.0000 0.27320  0.29020  0.45410  Biso   1.000  H
  H71      1.0000 0.22680  0.79020  0.04590  Biso   1.000  H
  H72      1.0000 0.72680  0.29020  0.04590  Biso   1.000  H
  C89      1.0000 0.18271  0.11611  0.43771  Biso   1.000  C
  C90      1.0000 0.68271  0.61611  0.43771  Biso   1.000  C
  C91      1.0000 0.81729  0.11611  0.06229  Biso   1.000  C
  C92      1.0000 0.31729  0.61611  0.06229  Biso   1.000  C
  C93      1.0000 0.81729  0.88389  0.56229  Biso   1.000  C
  C94      1.0000 0.31729  0.38389  0.56229  Biso   1.000  C
  C95      1.0000 0.18271  0.88389  0.93771  Biso   1.000  C
  C96      1.0000 0.68271  0.38389  0.93771  Biso   1.000  C
  H73      1.0000 0.21980  0.12330  0.42470  Biso   1.000  H
  H74      1.0000 0.71980  0.62330  0.42470  Biso   1.000  H
  H75      1.0000 0.78020  0.12330  0.07530  Biso   1.000  H
  H76      1.0000 0.28020  0.62330  0.07530  Biso   1.000  H
  H77      1.0000 0.78020  0.87670  0.57530  Biso   1.000  H
  H78      1.0000 0.28020  0.37670  0.57530  Biso   1.000  H
  H79      1.0000 0.21980  0.87670  0.92470  Biso   1.000  H
  H80      1.0000 0.71980  0.37670  0.92470  Biso   1.000  H
  C97      1.0000 0.12503  0.05265  0.38557  Biso   1.000  C
  C98      1.0000 0.62503  0.55265  0.38557  Biso   1.000  C
  C99      1.0000 0.87497  0.05265  0.11443  Biso   1.000  C
  C100     1.0000 0.37497  0.55265  0.11443  Biso   1.000  C
  C101     1.0000 0.87497  0.94735  0.61443  Biso   1.000  C
  C102     1.0000 0.37497  0.44735  0.61443  Biso   1.000  C
  C103     1.0000 0.12503  0.94735  0.88557  Biso   1.000  C
  C104     1.0000 0.62503  0.44735  0.88557  Biso   1.000  C
  C105     1.0000 0.06949  0.04895  0.40375  Biso   1.000  C
  C106     1.0000 0.56949  0.54895  0.40375  Biso   1.000  C
  C107     1.0000 0.93051  0.04895  0.09625  Biso   1.000  C
  C108     1.0000 0.43051  0.54895  0.09625  Biso   1.000  C
  C109     1.0000 0.93051  0.95105  0.59625  Biso   1.000  C
  C110     1.0000 0.43051  0.45105  0.59625  Biso   1.000  C
  C111     1.0000 0.06949  0.95105  0.90375  Biso   1.000  C
  C112     1.0000 0.56949  0.45105  0.90375  Biso   1.000  C
  H81      1.0000 0.02840  0.00760  0.36830  Biso   1.000  H
  H82      1.0000 0.52840  0.50760  0.36830  Biso   1.000  H
  H83      1.0000 0.97160  0.00760  0.13170  Biso   1.000  H
  H84      1.0000 0.47160  0.50760  0.13170  Biso   1.000  H
  H85      1.0000 0.97160  0.99240  0.63170  Biso   1.000  H
  H86      1.0000 0.47160  0.49240  0.63170  Biso   1.000  H
  H87      1.0000 0.02840  0.99240  0.86830  Biso   1.000  H
  H88      1.0000 0.52840  0.49240  0.86830  Biso   1.000  H
  C113     1.0000 0.07463  0.10555  0.47342  Biso   1.000  C
  C114     1.0000 0.57463  0.60555  0.47342  Biso   1.000  C
  C115     1.0000 0.92537  0.10555  0.02658  Biso   1.000  C
  C116     1.0000 0.42537  0.60555  0.02658  Biso   1.000  C
  C117     1.0000 0.92537  0.89445  0.52658  Biso   1.000  C
  C118     1.0000 0.42537  0.39445  0.52658  Biso   1.000  C
  C119     1.0000 0.07463  0.89445  0.97342  Biso   1.000  C
  C120     1.0000 0.57463  0.39445  0.97342  Biso   1.000  C
  H89      1.0000 0.03590  0.10330  0.48390  Biso   1.000  H
  H90      1.0000 0.53590  0.60330  0.48390  Biso   1.000  H
  H91      1.0000 0.96410  0.10330  0.01610  Biso   1.000  H
  H92      1.0000 0.46410  0.60330  0.01610  Biso   1.000  H
  H93      1.0000 0.96410  0.89670  0.51610  Biso   1.000  H
  H94      1.0000 0.46410  0.39670  0.51610  Biso   1.000  H
  H95      1.0000 0.03590  0.89670  0.98390  Biso   1.000  H
  H96      1.0000 0.53590  0.39670  0.98390  Biso   1.000  H
  C121     1.0000 0.09949  0.83777  0.25043  Biso   1.000  C
  C122     1.0000 0.59949  0.33777  0.25043  Biso   1.000  C
  C123     1.0000 0.90051  0.83777  0.24957  Biso   1.000  C
  C124     1.0000 0.40051  0.33777  0.24957  Biso   1.000  C
  C125     1.0000 0.90051  0.16223  0.74957  Biso   1.000  C
  C126     1.0000 0.40051  0.66223  0.74957  Biso   1.000  C
  C127     1.0000 0.09949  0.16223  0.75043  Biso   1.000  C
  C128     1.0000 0.59949  0.66223  0.75043  Biso   1.000  C
  H97      1.0000 0.07790  0.78000  0.24330  Biso   1.000  H
  H98      1.0000 0.57790  0.28000  0.24330  Biso   1.000  H
  H99      1.0000 0.92210  0.78000  0.25670  Biso   1.000  H
  H100     1.0000 0.42210  0.28000  0.25670  Biso   1.000  H
  H101     1.0000 0.92210  0.22000  0.75670  Biso   1.000  H
  H102     1.0000 0.42210  0.72000  0.75670  Biso   1.000  H
  H103     1.0000 0.07790  0.22000  0.74330  Biso   1.000  H
  H104     1.0000 0.57790  0.72000  0.74330  Biso   1.000  H
  C129     1.0000 0.09685  0.90050  0.30989  Biso   1.000  C
  C130     1.0000 0.59685  0.40050  0.30989  Biso   1.000  C
  C131     1.0000 0.90315  0.90050  0.19011  Biso   1.000  C
  C132     1.0000 0.40315  0.40050  0.19011  Biso   1.000  C
  C133     1.0000 0.90315  0.09950  0.69011  Biso   1.000  C
  C134     1.0000 0.40315  0.59950  0.69011  Biso   1.000  C
  C135     1.0000 0.09685  0.09950  0.80989  Biso   1.000  C
  C136     1.0000 0.59685  0.59950  0.80989  Biso   1.000  C
  H105     1.0000 0.07610  0.88460  0.34500  Biso   1.000  H
  H106     1.0000 0.57610  0.38460  0.34500  Biso   1.000  H
  H107     1.0000 0.92390  0.88460  0.15500  Biso   1.000  H
  H108     1.0000 0.42390  0.38460  0.15500  Biso   1.000  H
  H109     1.0000 0.92390  0.11540  0.65500  Biso   1.000  H
  H110     1.0000 0.42390  0.61540  0.65500  Biso   1.000  H
  H111     1.0000 0.07610  0.11540  0.84500  Biso   1.000  H
  H112     1.0000 0.57610  0.61540  0.84500  Biso   1.000  H
  C137     1.0000 0.12486  0.98733  0.31802  Biso   1.000  C
  C138     1.0000 0.62486  0.48733  0.31802  Biso   1.000  C
  C139     1.0000 0.87514  0.98733  0.18198  Biso   1.000  C
  C140     1.0000 0.37514  0.48733  0.18198  Biso   1.000  C
  C141     1.0000 0.87514  0.01267  0.68198  Biso   1.000  C
  C142     1.0000 0.37514  0.51267  0.68198  Biso   1.000  C
  C143     1.0000 0.12486  0.01267  0.81802  Biso   1.000  C
  C144     1.0000 0.62486  0.51267  0.81802  Biso   1.000  C
  C145     1.0000 0.15445  0.00679  0.26421  Biso   1.000  C
  C146     1.0000 0.65445  0.50679  0.26421  Biso   1.000  C
  C147     1.0000 0.84555  0.00679  0.23579  Biso   1.000  C
  C148     1.0000 0.34555  0.50679  0.23579  Biso   1.000  C
  C149     1.0000 0.84555  0.99321  0.73579  Biso   1.000  C
  C150     1.0000 0.34555  0.49321  0.73579  Biso   1.000  C
  C151     1.0000 0.15445  0.99321  0.76421  Biso   1.000  C
  C152     1.0000 0.65445  0.49321  0.76421  Biso   1.000  C
  H113     1.0000 0.17200  0.06570  0.26510  Biso   1.000  H
  H114     1.0000 0.67200  0.56570  0.26510  Biso   1.000  H
  H115     1.0000 0.82800  0.06570  0.23490  Biso   1.000  H
  H116     1.0000 0.32800  0.56570  0.23490  Biso   1.000  H
  H117     1.0000 0.82800  0.93430  0.73490  Biso   1.000  H
  H118     1.0000 0.32800  0.43430  0.73490  Biso   1.000  H
  H119     1.0000 0.17200  0.93430  0.76510  Biso   1.000  H
  H120     1.0000 0.67200  0.43430  0.76510  Biso   1.000  H
  C153     1.0000 0.15771  0.93868  0.20948  Biso   1.000  C
  C154     1.0000 0.65771  0.43868  0.20948  Biso   1.000  C
  C155     1.0000 0.84229  0.93868  0.29052  Biso   1.000  C
  C156     1.0000 0.34229  0.43868  0.29052  Biso   1.000  C
  C157     1.0000 0.84229  0.06132  0.79052  Biso   1.000  C
  C158     1.0000 0.34229  0.56132  0.79052  Biso   1.000  C
  C159     1.0000 0.15771  0.06132  0.70948  Biso   1.000  C
  C160     1.0000 0.65771  0.56132  0.70948  Biso   1.000  C
  H121     1.0000 0.17980  0.95200  0.17540  Biso   1.000  H
  H122     1.0000 0.67980  0.45200  0.17540  Biso   1.000  H
  H123     1.0000 0.82020  0.95200  0.32460  Biso   1.000  H
  H124     1.0000 0.32020  0.45200  0.32460  Biso   1.000  H
  H125     1.0000 0.82020  0.04800  0.82460  Biso   1.000  H
  H126     1.0000 0.32020  0.54800  0.82460  Biso   1.000  H
  H127     1.0000 0.17980  0.04800  0.67540  Biso   1.000  H
  H128     1.0000 0.67980  0.54800  0.67540  Biso   1.000  H
