data_image0
_cell_length_a       8.9105
_cell_length_b       9.0601
_cell_length_c       10.5488
_cell_angle_alpha    66.158
_cell_angle_beta     68.752
_cell_angle_gamma    88.391

_symmetry_space_group_name_H-M    "P 1"
_symmetry_int_tables_number       1

loop_
  _symmetry_equiv_pos_as_xyz
  'x, y, z'

loop_
  _atom_site_label
  _atom_site_occupancy
  _atom_site_fract_x
  _atom_site_fract_y
  _atom_site_fract_z
  _atom_site_thermal_displace_type
  _atom_site_B_iso_or_equiv
  _atom_site_type_symbol
  Cu1      1.0000 0.50000  0.50000  0.50000  Biso   1.000  Cu
  S1       1.0000 0.73750  0.68600  0.05250  Biso   1.000  S
  S2       1.0000 0.26250  0.31400  0.94750  Biso   1.000  S
  O1       1.0000 0.65720  0.63070  0.21030  Biso   1.000  O
  O2       1.0000 0.34280  0.36930  0.78970  Biso   1.000  O
  O3       1.0000 0.65670  0.78630  0.96500  Biso   1.000  O
  O4       1.0000 0.34330  0.21370  0.03500  Biso   1.000  O
  O5       1.0000 0.78610  0.54550  0.02260  Biso   1.000  O
  O6       1.0000 0.21390  0.45450  0.97740  Biso   1.000  O
  S3       1.0000 0.70060  0.72510  0.04990  Biso   1.000  S
  S4       1.0000 0.29940  0.27490  0.95010  Biso   1.000  S
  O7       1.0000 0.55370  0.76700  0.02340  Biso   1.000  O
  O8       1.0000 0.44630  0.23300  0.97660  Biso   1.000  O
  O9       1.0000 0.80520  0.66350  0.95340  Biso   1.000  O
  O10      1.0000 0.19480  0.33650  0.04660  Biso   1.000  O
  N1       1.0000 0.41210  0.71000  0.49020  Biso   1.000  N
  N2       1.0000 0.58790  0.29000  0.50980  Biso   1.000  N
  N3       1.0000 0.30370  0.42590  0.47360  Biso   1.000  N
  N4       1.0000 0.69630  0.57410  0.52640  Biso   1.000  N
  C1       1.0000 0.41240  0.82330  0.36000  Biso   1.000  C
  C2       1.0000 0.58760  0.17670  0.64000  Biso   1.000  C
  C3       1.0000 0.35700  0.97070  0.34590  Biso   1.000  C
  C4       1.0000 0.64300  0.02930  0.65410  Biso   1.000  C
  C5       1.0000 0.29840  0.00270  0.47020  Biso   1.000  C
  C6       1.0000 0.70160  0.99730  0.52980  Biso   1.000  C
  C7       1.0000 0.29530  0.88670  0.60550  Biso   1.000  C
  C8       1.0000 0.70470  0.11330  0.39450  Biso   1.000  C
  C9       1.0000 0.35400  0.74210  0.61130  Biso   1.000  C
  C10      1.0000 0.64600  0.25790  0.38870  Biso   1.000  C
  C11      1.0000 0.30000  0.46070  0.33880  Biso   1.000  C
  C12      1.0000 0.70000  0.53930  0.66120  Biso   1.000  C
  C13      1.0000 0.16720  0.40880  0.32180  Biso   1.000  C
  C14      1.0000 0.83280  0.59120  0.67820  Biso   1.000  C
  C15      1.0000 0.03260  0.31840  0.44790  Biso   1.000  C
  C16      1.0000 0.96740  0.68160  0.55210  Biso   1.000  C
  C17      1.0000 0.03580  0.28220  0.58640  Biso   1.000  C
  C18      1.0000 0.96420  0.71780  0.41360  Biso   1.000  C
  C19      1.0000 0.17240  0.33740  0.59550  Biso   1.000  C
  C20      1.0000 0.82760  0.66260  0.40450  Biso   1.000  C
  C21      1.0000 0.92180  0.80440  0.00980  Biso   1.000  C
  C22      1.0000 0.07820  0.19560  0.99020  Biso   1.000  C
  C23      1.0000 0.05700  0.72410  0.00330  Biso   1.000  C
  C24      1.0000 0.94300  0.27590  0.99670  Biso   1.000  C
  C25      1.0000 0.19980  0.79790  0.98960  Biso   1.000  C
  C26      1.0000 0.80020  0.20210  0.01040  Biso   1.000  C
  C27      1.0000 0.20820  0.95470  0.98150  Biso   1.000  C
  C28      1.0000 0.79180  0.04530  0.01850  Biso   1.000  C
  C29      1.0000 0.92710  0.95990  0.01030  Biso   1.000  C
  C30      1.0000 0.07290  0.04010  0.98970  Biso   1.000  C
  C31      1.0000 0.80600  0.91350  0.01190  Biso   1.000  C
  C32      1.0000 0.19400  0.08650  0.98810  Biso   1.000  C
  C33      1.0000 0.71860  0.04280  0.00460  Biso   1.000  C
  C34      1.0000 0.28140  0.95720  0.99540  Biso   1.000  C
  C35      1.0000 0.78490  0.18750  0.99190  Biso   1.000  C
  C36      1.0000 0.21510  0.81250  0.00810  Biso   1.000  C
  C37      1.0000 0.94210  0.20230  0.98550  Biso   1.000  C
  C38      1.0000 0.05790  0.79770  0.01450  Biso   1.000  C
  C39      1.0000 0.03470  0.07250  0.99420  Biso   1.000  C
  C40      1.0000 0.96530  0.92750  0.00580  Biso   1.000  C
  H1       1.0000 0.45170  0.80160  0.27560  Biso   1.000  H
  H2       1.0000 0.54830  0.19840  0.72440  Biso   1.000  H
  H3       1.0000 0.35940  0.04690  0.25370  Biso   1.000  H
  H4       1.0000 0.64060  0.95310  0.74630  Biso   1.000  H
  H5       1.0000 0.26120  0.10150  0.46340  Biso   1.000  H
  H6       1.0000 0.73880  0.89850  0.53660  Biso   1.000  H
  H7       1.0000 0.25440  0.90540  0.69140  Biso   1.000  H
  H8       1.0000 0.74560  0.09460  0.30860  Biso   1.000  H
  H9       1.0000 0.35300  0.66450  0.70230  Biso   1.000  H
  H10      1.0000 0.64700  0.33550  0.29770  Biso   1.000  H
  H11      1.0000 0.39040  0.52210  0.25330  Biso   1.000  H
  H12      1.0000 0.60960  0.47790  0.74670  Biso   1.000  H
  H13      1.0000 0.16860  0.43460  0.22660  Biso   1.000  H
  H14      1.0000 0.83140  0.56540  0.77340  Biso   1.000  H
  H15      1.0000 0.94130  0.28260  0.43940  Biso   1.000  H
  H16      1.0000 0.05870  0.71740  0.56060  Biso   1.000  H
  H17      1.0000 0.94670  0.22090  0.67330  Biso   1.000  H
  H18      1.0000 0.05330  0.77910  0.32670  Biso   1.000  H
  H19      1.0000 0.17350  0.31230  0.68980  Biso   1.000  H
  H20      1.0000 0.82650  0.68770  0.31020  Biso   1.000  H
  H21      1.0000 0.05200  0.61950  0.00820  Biso   1.000  H
  H22      1.0000 0.94800  0.38050  0.99180  Biso   1.000  H
  H23      1.0000 0.28970  0.74270  0.98590  Biso   1.000  H
  H24      1.0000 0.71030  0.25730  0.01410  Biso   1.000  H
  H25      1.0000 0.30500  0.00420  0.97040  Biso   1.000  H
  H26      1.0000 0.69500  0.99580  0.02960  Biso   1.000  H
  H27      1.0000 0.61340  0.03280  0.00830  Biso   1.000  H
  H28      1.0000 0.38660  0.96720  0.99170  Biso   1.000  H
  H29      1.0000 0.72440  0.27350  0.98770  Biso   1.000  H
  H30      1.0000 0.27560  0.72650  0.01230  Biso   1.000  H
  H31      1.0000 0.98740  0.29970  0.97520  Biso   1.000  H
  H32      1.0000 0.01260  0.70030  0.02480  Biso   1.000  H
