data_image0
_cell_length_a       9.537
_cell_length_b       9.95
_cell_length_c       11.363
_cell_angle_alpha    94.156
_cell_angle_beta     107.839
_cell_angle_gamma    113.535

_symmetry_space_group_name_H-M    "P 1"
_symmetry_int_tables_number       1

loop_
  _symmetry_equiv_pos_as_xyz
  'x, y, z'

loop_
  _atom_site_label
  _atom_site_occupancy
  _atom_site_fract_x
  _atom_site_fract_y
  _atom_site_fract_z
  _atom_site_thermal_displace_type
  _atom_site_B_iso_or_equiv
  _atom_site_type_symbol
  Cu1      1.0000 0.49376  0.33223  0.52464  Biso   1.000  Cu
  Cu2      1.0000 0.50624  0.66777  0.47536  Biso   1.000  Cu
  O1       1.0000 0.55430  0.40710  0.70550  Biso   1.000  O
  O2       1.0000 0.44570  0.59290  0.29450  Biso   1.000  O
  O3       1.0000 0.31510  0.22870  0.69510  Biso   1.000  O
  O4       1.0000 0.68490  0.77130  0.30490  Biso   1.000  O
  O5       1.0000 0.77000  0.36800  0.93250  Biso   1.000  O
  O6       1.0000 0.23000  0.63200  0.06750  Biso   1.000  O
  O7       1.0000 0.89440  0.60840  0.98320  Biso   1.000  O
  O8       1.0000 0.10560  0.39160  0.01680  Biso   1.000  O
  O9       1.0000 0.34080  0.42120  0.48830  Biso   1.000  O
  O10      1.0000 0.65920  0.57880  0.51170  Biso   1.000  O
  O11      1.0000 0.10630  0.21040  0.39700  Biso   1.000  O
  O12      1.0000 0.89370  0.78960  0.60300  Biso   1.000  O
  O13      1.0000 0.01930  0.36110  0.21690  Biso   1.000  O
  O14      1.0000 0.98070  0.63890  0.78310  Biso   1.000  O
  O15      1.0000 0.76470  0.29290  0.18630  Biso   1.000  O
  O16      1.0000 0.23530  0.70710  0.81370  Biso   1.000  O
  O17      1.0000 0.15110  0.01960  0.81890  Biso   1.000  O
  O18      1.0000 0.84890  0.98040  0.18110  Biso   1.000  O
  H1       1.0000 0.21100  0.08800  0.79100  Biso   1.000  H
  H2       1.0000 0.78900  0.91200  0.20900  Biso   1.000  H
  H3       1.0000 0.05800  0.96500  0.76100  Biso   1.000  H
  H4       1.0000 0.94200  0.03500  0.23900  Biso   1.000  H
  N1       1.0000 0.64480  0.23540  0.56050  Biso   1.000  N
  N2       1.0000 0.35520  0.76460  0.43950  Biso   1.000  N
  N3       1.0000 0.43670  0.22770  0.34800  Biso   1.000  N
  N4       1.0000 0.56330  0.77230  0.65200  Biso   1.000  N
  N5       1.0000 0.77320  0.48510  0.96390  Biso   1.000  N
  N6       1.0000 0.22680  0.51490  0.03610  Biso   1.000  N
  N7       1.0000 0.90340  0.35050  0.24920  Biso   1.000  N
  N8       1.0000 0.09660  0.64950  0.75080  Biso   1.000  N
  C1       1.0000 0.75370  0.25020  0.67430  Biso   1.000  C
  C2       1.0000 0.24630  0.74980  0.32570  Biso   1.000  C
  H5       1.0000 0.76180  0.31000  0.74520  Biso   1.000  H
  H6       1.0000 0.23820  0.69000  0.25480  Biso   1.000  H
  C3       1.0000 0.85280  0.17970  0.68870  Biso   1.000  C
  C4       1.0000 0.14720  0.82030  0.31130  Biso   1.000  C
  H7       1.0000 0.92710  0.19150  0.76860  Biso   1.000  H
  H8       1.0000 0.07290  0.80850  0.23140  Biso   1.000  H
  C5       1.0000 0.84260  0.09330  0.58720  Biso   1.000  C
  C6       1.0000 0.15740  0.90670  0.41280  Biso   1.000  C
  H9       1.0000 0.90830  0.04350  0.59680  Biso   1.000  H
  H10      1.0000 0.09170  0.95650  0.40320  Biso   1.000  H
  C7       1.0000 0.73710  0.07900  0.47160  Biso   1.000  C
  C8       1.0000 0.26290  0.92100  0.52840  Biso   1.000  C
  H11      1.0000 0.73240  0.02190  0.40070  Biso   1.000  H
  H12      1.0000 0.26760  0.97810  0.59930  Biso   1.000  H
  C9       1.0000 0.63460  0.14980  0.45770  Biso   1.000  C
  C10      1.0000 0.36540  0.85020  0.54230  Biso   1.000  C
  C11      1.0000 0.51730  0.14410  0.33800  Biso   1.000  C
  C12      1.0000 0.48270  0.85590  0.66200  Biso   1.000  C
  C13      1.0000 0.48620  0.05960  0.22390  Biso   1.000  C
  C14      1.0000 0.51380  0.94040  0.77610  Biso   1.000  C
  H13      1.0000 0.54440  0.00470  0.21910  Biso   1.000  H
  H14      1.0000 0.45560  0.99530  0.78090  Biso   1.000  H
  C15      1.0000 0.36710  0.05740  0.11610  Biso   1.000  C
  C16      1.0000 0.63290  0.94260  0.88390  Biso   1.000  C
  H15      1.0000 0.34050  0.99760  0.03840  Biso   1.000  H
  H16      1.0000 0.65950  0.00240  0.96160  Biso   1.000  H
  C17      1.0000 0.28890  0.14480  0.12580  Biso   1.000  C
  C18      1.0000 0.71110  0.85520  0.87420  Biso   1.000  C
  H17      1.0000 0.21130  0.14760  0.05400  Biso   1.000  H
  H18      1.0000 0.78870  0.85240  0.94600  Biso   1.000  H
  C19      1.0000 0.32620  0.22860  0.24270  Biso   1.000  C
  C20      1.0000 0.67380  0.77140  0.75730  Biso   1.000  C
  H19      1.0000 0.27260  0.28760  0.24830  Biso   1.000  H
  H20      1.0000 0.72740  0.71240  0.75170  Biso   1.000  H
  C21      1.0000 0.44500  0.34250  0.75090  Biso   1.000  C
  C22      1.0000 0.55500  0.65750  0.24910  Biso   1.000  C
  C23      1.0000 0.47560  0.42230  0.88180  Biso   1.000  C
  C24      1.0000 0.52440  0.57770  0.11820  Biso   1.000  C
  C25      1.0000 0.62950  0.50160  0.97430  Biso   1.000  C
  C26      1.0000 0.37050  0.49840  0.02570  Biso   1.000  C
  H21      1.0000 0.71960  0.50350  0.95740  Biso   1.000  H
  H22      1.0000 0.28040  0.49650  0.04260  Biso   1.000  H
  C27      1.0000 0.34450  0.42210  0.90990  Biso   1.000  C
  C28      1.0000 0.65550  0.57790  0.09010  Biso   1.000  C
  H23      1.0000 0.23830  0.36990  0.85000  Biso   1.000  H
  H24      1.0000 0.76170  0.63010  0.15000  Biso   1.000  H
  C29      1.0000 0.18380  0.34290  0.44850  Biso   1.000  C
  C30      1.0000 0.81620  0.65710  0.55150  Biso   1.000  C
  C31      1.0000 0.09130  0.42930  0.47400  Biso   1.000  C
  C32      1.0000 0.90870  0.57070  0.52600  Biso   1.000  C
  C33      1.0000 0.13910  0.51090  0.59370  Biso   1.000  C
  C34      1.0000 0.86090  0.48910  0.40630  Biso   1.000  C
  H25      1.0000 0.23230  0.51920  0.65800  Biso   1.000  H
  H26      1.0000 0.76770  0.48080  0.34200  Biso   1.000  H
  C35      1.0000 0.95110  0.41950  0.38160  Biso   1.000  C
  C36      1.0000 0.04890  0.58050  0.61840  Biso   1.000  C
  H27      1.0000 0.91680  0.36410  0.30020  Biso   1.000  H
  H28      1.0000 0.08320  0.63590  0.69980  Biso   1.000  H
