data_image0
_cell_length_a       12.9112
_cell_length_b       28.1127
_cell_length_c       14.2324
_cell_angle_alpha    90
_cell_angle_beta     110.665
_cell_angle_gamma    90

_symmetry_space_group_name_H-M    "P 1"
_symmetry_int_tables_number       1

loop_
  _symmetry_equiv_pos_as_xyz
  'x, y, z'

loop_
  _atom_site_label
  _atom_site_occupancy
  _atom_site_fract_x
  _atom_site_fract_y
  _atom_site_fract_z
  _atom_site_thermal_displace_type
  _atom_site_B_iso_or_equiv
  _atom_site_type_symbol
  Cu1      1.0000 0.94722  0.27774  0.19889  Biso   1.000  Cu
  Cu2      1.0000 0.55278  0.77774  0.30111  Biso   1.000  Cu
  Cu3      1.0000 0.05278  0.72226  0.80111  Biso   1.000  Cu
  Cu4      1.0000 0.44722  0.22226  0.69889  Biso   1.000  Cu
  Cu5      1.0000 0.83750  0.21729  0.05955  Biso   1.000  Cu
  Cu6      1.0000 0.66250  0.71729  0.44045  Biso   1.000  Cu
  Cu7      1.0000 0.16250  0.78271  0.94045  Biso   1.000  Cu
  Cu8      1.0000 0.33750  0.28271  0.55955  Biso   1.000  Cu
  O1       1.0000 0.96990  0.20854  0.02370  Biso   1.000  O
  O2       1.0000 0.53010  0.70854  0.47630  Biso   1.000  O
  O3       1.0000 0.03010  0.79146  0.97630  Biso   1.000  O
  O4       1.0000 0.46990  0.29146  0.52370  Biso   1.000  O
  C1       1.0000 0.05560  0.23172  0.07290  Biso   1.000  C
  C2       1.0000 0.44440  0.73172  0.42710  Biso   1.000  C
  C3       1.0000 0.94440  0.76828  0.92710  Biso   1.000  C
  C4       1.0000 0.55560  0.26828  0.57290  Biso   1.000  C
  O5       1.0000 0.06510  0.25941  0.14419  Biso   1.000  O
  O6       1.0000 0.43490  0.75941  0.35581  Biso   1.000  O
  O7       1.0000 0.93490  0.74059  0.85581  Biso   1.000  O
  O8       1.0000 0.56510  0.24059  0.64419  Biso   1.000  O
  C5       1.0000 0.15510  0.22618  0.04180  Biso   1.000  C
  C6       1.0000 0.34490  0.72618  0.45820  Biso   1.000  C
  C7       1.0000 0.84490  0.77382  0.95820  Biso   1.000  C
  C8       1.0000 0.65510  0.27382  0.54180  Biso   1.000  C
  C9       1.0000 0.19110  0.18307  0.01860  Biso   1.000  C
  C10      1.0000 0.30890  0.68307  0.48140  Biso   1.000  C
  C11      1.0000 0.80890  0.81693  0.98140  Biso   1.000  C
  C12      1.0000 0.69110  0.31693  0.51860  Biso   1.000  C
  F1       1.0000 0.13260  0.14376  0.02400  Biso   1.000  F
  F2       1.0000 0.36740  0.64376  0.47600  Biso   1.000  F
  F3       1.0000 0.86740  0.85624  0.97600  Biso   1.000  F
  F4       1.0000 0.63260  0.35624  0.52400  Biso   1.000  F
  C13      1.0000 0.28250  0.17730  0.99210  Biso   1.000  C
  C14      1.0000 0.21750  0.67730  0.50790  Biso   1.000  C
  C15      1.0000 0.71750  0.82270  0.00790  Biso   1.000  C
  C16      1.0000 0.78250  0.32270  0.49210  Biso   1.000  C
  H1       1.0000 0.30452  0.14726  0.97925  Biso   1.000  H
  H2       1.0000 0.19548  0.64726  0.52075  Biso   1.000  H
  H3       1.0000 0.69548  0.85274  0.02075  Biso   1.000  H
  H4       1.0000 0.80452  0.35274  0.47925  Biso   1.000  H
  C17      1.0000 0.34090  0.21749  0.98510  Biso   1.000  C
  C18      1.0000 0.15910  0.71749  0.51490  Biso   1.000  C
  C19      1.0000 0.65910  0.78251  0.01490  Biso   1.000  C
  C20      1.0000 0.84090  0.28251  0.48510  Biso   1.000  C
  H5       1.0000 0.40243  0.21466  0.96591  Biso   1.000  H
  H6       1.0000 0.09757  0.71466  0.53409  Biso   1.000  H
  H7       1.0000 0.59757  0.78534  0.03409  Biso   1.000  H
  H8       1.0000 0.90243  0.28534  0.46591  Biso   1.000  H
  C21      1.0000 0.30890  0.26156  0.00620  Biso   1.000  C
  C22      1.0000 0.19110  0.76156  0.49380  Biso   1.000  C
  C23      1.0000 0.69110  0.73844  0.99380  Biso   1.000  C
  C24      1.0000 0.80890  0.23844  0.50620  Biso   1.000  C
  H9       1.0000 0.34773  0.28869  0.00100  Biso   1.000  H
  H10      1.0000 0.15227  0.78869  0.49900  Biso   1.000  H
  H11      1.0000 0.65227  0.71131  0.99900  Biso   1.000  H
  H12      1.0000 0.84773  0.21131  0.50100  Biso   1.000  H
  C25      1.0000 0.21850  0.26473  0.03520  Biso   1.000  C
  C26      1.0000 0.28150  0.76473  0.46480  Biso   1.000  C
  C27      1.0000 0.78150  0.73527  0.96480  Biso   1.000  C
  C28      1.0000 0.71850  0.23527  0.53520  Biso   1.000  C
  F5       1.0000 0.18790  0.30870  0.05410  Biso   1.000  F
  F6       1.0000 0.31210  0.80870  0.44590  Biso   1.000  F
  F7       1.0000 0.81210  0.69130  0.94590  Biso   1.000  F
  F8       1.0000 0.68790  0.19130  0.55410  Biso   1.000  F
  O9       1.0000 0.98790  0.22272  0.28780  Biso   1.000  O
  O10      1.0000 0.51210  0.72272  0.21220  Biso   1.000  O
  O11      1.0000 0.01210  0.77728  0.71220  Biso   1.000  O
  O12      1.0000 0.48790  0.27728  0.78780  Biso   1.000  O
  C29      1.0000 0.95360  0.18162  0.25780  Biso   1.000  C
  C30      1.0000 0.54640  0.68162  0.24220  Biso   1.000  C
  C31      1.0000 0.04640  0.81838  0.74220  Biso   1.000  C
  C32      1.0000 0.45360  0.31838  0.75780  Biso   1.000  C
  O13      1.0000 0.89460  0.17082  0.17000  Biso   1.000  O
  O14      1.0000 0.60540  0.67082  0.33000  Biso   1.000  O
  O15      1.0000 0.10540  0.82918  0.83000  Biso   1.000  O
  O16      1.0000 0.39460  0.32918  0.67000  Biso   1.000  O
  C33      1.0000 0.98540  0.14263  0.33540  Biso   1.000  C
  C34      1.0000 0.51460  0.64263  0.16460  Biso   1.000  C
  C35      1.0000 0.01460  0.85737  0.66460  Biso   1.000  C
  C36      1.0000 0.48540  0.35737  0.83540  Biso   1.000  C
  C37      1.0000 0.02430  0.15065  0.43810  Biso   1.000  C
  C38      1.0000 0.47570  0.65065  0.06190  Biso   1.000  C
  C39      1.0000 0.97570  0.84935  0.56190  Biso   1.000  C
  C40      1.0000 0.52430  0.34935  0.93810  Biso   1.000  C
  F9       1.0000 0.03590  0.19562  0.47232  Biso   1.000  F
  F10      1.0000 0.46410  0.69562  0.02768  Biso   1.000  F
  F11      1.0000 0.96410  0.80438  0.52768  Biso   1.000  F
  F12      1.0000 0.53590  0.30438  0.97232  Biso   1.000  F
  C41      1.0000 0.05110  0.11529  0.50870  Biso   1.000  C
  C42      1.0000 0.44890  0.61529  0.99130  Biso   1.000  C
  C43      1.0000 0.94890  0.88471  0.49130  Biso   1.000  C
  C44      1.0000 0.55110  0.38471  0.00870  Biso   1.000  C
  H13      1.0000 0.07633  0.12271  0.57671  Biso   1.000  H
  H14      1.0000 0.42367  0.62271  0.92329  Biso   1.000  H
  H15      1.0000 0.92367  0.87729  0.42329  Biso   1.000  H
  H16      1.0000 0.57633  0.37729  0.07671  Biso   1.000  H
  C45      1.0000 0.04040  0.06916  0.47810  Biso   1.000  C
  C46      1.0000 0.45960  0.56916  0.02190  Biso   1.000  C
  C47      1.0000 0.95960  0.93084  0.52190  Biso   1.000  C
  C48      1.0000 0.54040  0.43084  0.97810  Biso   1.000  C
  H17      1.0000 0.05994  0.04486  0.52542  Biso   1.000  H
  H18      1.0000 0.44006  0.54486  0.97458  Biso   1.000  H
  H19      1.0000 0.94006  0.95514  0.47458  Biso   1.000  H
  H20      1.0000 0.55994  0.45514  0.02542  Biso   1.000  H
  C49      1.0000 0.00080  0.05827  0.37730  Biso   1.000  C
  C50      1.0000 0.49920  0.55827  0.12270  Biso   1.000  C
  C51      1.0000 0.99920  0.94173  0.62270  Biso   1.000  C
  C52      1.0000 0.50080  0.44173  0.87730  Biso   1.000  C
  H21      1.0000 0.99083  0.02675  0.35619  Biso   1.000  H
  H22      1.0000 0.50917  0.52675  0.14381  Biso   1.000  H
  H23      1.0000 0.00917  0.97325  0.64381  Biso   1.000  H
  H24      1.0000 0.49083  0.47325  0.85619  Biso   1.000  H
  C53      1.0000 0.97600  0.09465  0.30840  Biso   1.000  C
  C54      1.0000 0.52400  0.59465  0.19160  Biso   1.000  C
  C55      1.0000 0.02400  0.90535  0.69160  Biso   1.000  C
  C56      1.0000 0.47600  0.40535  0.80840  Biso   1.000  C
  F13      1.0000 0.94280  0.08212  0.21090  Biso   1.000  F
  F14      1.0000 0.55720  0.58212  0.28910  Biso   1.000  F
  F15      1.0000 0.05720  0.91788  0.78910  Biso   1.000  F
  F16      1.0000 0.44280  0.41788  0.71090  Biso   1.000  F
  O17      1.0000 0.80260  0.27557  0.97420  Biso   1.000  O
  O18      1.0000 0.69740  0.77557  0.52580  Biso   1.000  O
  O19      1.0000 0.19740  0.72443  0.02580  Biso   1.000  O
  O20      1.0000 0.30260  0.22443  0.47420  Biso   1.000  O
  C57      1.0000 0.83390  0.31664  0.00700  Biso   1.000  C
  C58      1.0000 0.66610  0.81664  0.49300  Biso   1.000  C
  C59      1.0000 0.16610  0.68336  0.99300  Biso   1.000  C
  C60      1.0000 0.33390  0.18336  0.50700  Biso   1.000  C
  O21      1.0000 0.89400  0.32632  0.09600  Biso   1.000  O
  O22      1.0000 0.60600  0.82632  0.40400  Biso   1.000  O
  O23      1.0000 0.10600  0.67368  0.90400  Biso   1.000  O
  O24      1.0000 0.39400  0.17368  0.59600  Biso   1.000  O
  C61      1.0000 0.80020  0.35767  0.93590  Biso   1.000  C
  C62      1.0000 0.69980  0.85767  0.56410  Biso   1.000  C
  C63      1.0000 0.19980  0.64233  0.06410  Biso   1.000  C
  C64      1.0000 0.30020  0.14233  0.43590  Biso   1.000  C
  C65      1.0000 0.76020  0.35284  0.83160  Biso   1.000  C
  C66      1.0000 0.73980  0.85284  0.66840  Biso   1.000  C
  C67      1.0000 0.23980  0.64716  0.16840  Biso   1.000  C
  C68      1.0000 0.26020  0.14716  0.33160  Biso   1.000  C
  F17      1.0000 0.75020  0.30925  0.79161  Biso   1.000  F
  F18      1.0000 0.74980  0.80925  0.70839  Biso   1.000  F
  F19      1.0000 0.24980  0.69075  0.20839  Biso   1.000  F
  F20      1.0000 0.25020  0.19075  0.29161  Biso   1.000  F
  C69      1.0000 0.73070  0.39014  0.76590  Biso   1.000  C
  C70      1.0000 0.76930  0.89014  0.73410  Biso   1.000  C
  C71      1.0000 0.26930  0.60986  0.23410  Biso   1.000  C
  C72      1.0000 0.23070  0.10986  0.26590  Biso   1.000  C
  H25      1.0000 0.70576  0.38481  0.69702  Biso   1.000  H
  H26      1.0000 0.79424  0.88481  0.80298  Biso   1.000  H
  H27      1.0000 0.29424  0.61519  0.30298  Biso   1.000  H
  H28      1.0000 0.20576  0.11519  0.19702  Biso   1.000  H
  C73      1.0000 0.73840  0.43510  0.80260  Biso   1.000  C
  C74      1.0000 0.76160  0.93510  0.69740  Biso   1.000  C
  C75      1.0000 0.26160  0.56490  0.19740  Biso   1.000  C
  C76      1.0000 0.23840  0.06490  0.30260  Biso   1.000  C
  H29      1.0000 0.73361  0.46087  0.76038  Biso   1.000  H
  H30      1.0000 0.76639  0.96087  0.73962  Biso   1.000  H
  H31      1.0000 0.26639  0.53913  0.23962  Biso   1.000  H
  H32      1.0000 0.23361  0.03913  0.26038  Biso   1.000  H
  C77      1.0000 0.75420  0.44310  0.90930  Biso   1.000  C
  C78      1.0000 0.74580  0.94310  0.59070  Biso   1.000  C
  C79      1.0000 0.24580  0.55690  0.09070  Biso   1.000  C
  C80      1.0000 0.25420  0.05690  0.40930  Biso   1.000  C
  H33      1.0000 0.73169  0.47027  0.93414  Biso   1.000  H
  H34      1.0000 0.76831  0.97027  0.56586  Biso   1.000  H
  H35      1.0000 0.26831  0.52973  0.06586  Biso   1.000  H
  H36      1.0000 0.23169  0.02973  0.43414  Biso   1.000  H
  C81      1.0000 0.80730  0.40451  0.96780  Biso   1.000  C
  C82      1.0000 0.69270  0.90451  0.53220  Biso   1.000  C
  C83      1.0000 0.19270  0.59549  0.03220  Biso   1.000  C
  C84      1.0000 0.30730  0.09549  0.46780  Biso   1.000  C
  F21      1.0000 0.81480  0.41333  0.07130  Biso   1.000  F
  F22      1.0000 0.68520  0.91333  0.42870  Biso   1.000  F
  F23      1.0000 0.18520  0.58667  0.92870  Biso   1.000  F
  F24      1.0000 0.31480  0.08667  0.57130  Biso   1.000  F
  O25      1.0000 0.71630  0.23194  0.10723  Biso   1.000  O
  O26      1.0000 0.78370  0.73194  0.39277  Biso   1.000  O
  O27      1.0000 0.28370  0.76806  0.89277  Biso   1.000  O
  O28      1.0000 0.21630  0.26806  0.60723  Biso   1.000  O
  C85      1.0000 0.72630  0.25756  0.18190  Biso   1.000  C
  C86      1.0000 0.77370  0.75756  0.31810  Biso   1.000  C
  C87      1.0000 0.27370  0.74244  0.81810  Biso   1.000  C
  C88      1.0000 0.22630  0.24244  0.68190  Biso   1.000  C
  O29      1.0000 0.80990  0.28187  0.23010  Biso   1.000  O
  O30      1.0000 0.69010  0.78187  0.26990  Biso   1.000  O
  O31      1.0000 0.19010  0.71813  0.76990  Biso   1.000  O
  O32      1.0000 0.30990  0.21813  0.73010  Biso   1.000  O
  C89      1.0000 0.62970  0.25879  0.21700  Biso   1.000  C
  C90      1.0000 0.87030  0.75879  0.28300  Biso   1.000  C
  C91      1.0000 0.37030  0.74121  0.78300  Biso   1.000  C
  C92      1.0000 0.12970  0.24121  0.71700  Biso   1.000  C
  C93      1.0000 0.59470  0.29936  0.25140  Biso   1.000  C
  C94      1.0000 0.90530  0.79936  0.24860  Biso   1.000  C
  C95      1.0000 0.40530  0.70064  0.74860  Biso   1.000  C
  C96      1.0000 0.09470  0.20064  0.75140  Biso   1.000  C
  F25      1.0000 0.64800  0.34066  0.24940  Biso   1.000  F
  F26      1.0000 0.85200  0.84066  0.25060  Biso   1.000  F
  F27      1.0000 0.35200  0.65934  0.75060  Biso   1.000  F
  F28      1.0000 0.14800  0.15934  0.74940  Biso   1.000  F
  C97      1.0000 0.50760  0.30069  0.28560  Biso   1.000  C
  C98      1.0000 0.99240  0.80069  0.21440  Biso   1.000  C
  C99      1.0000 0.49240  0.69931  0.71440  Biso   1.000  C
  C100     1.0000 0.00760  0.19931  0.78560  Biso   1.000  C
  H37      1.0000 0.48619  0.32913  0.30676  Biso   1.000  H
  H38      1.0000 0.01381  0.82913  0.19324  Biso   1.000  H
  H39      1.0000 0.51381  0.67087  0.69324  Biso   1.000  H
  H40      1.0000 0.98619  0.17087  0.80676  Biso   1.000  H
  C101     1.0000 0.45270  0.25878  0.28790  Biso   1.000  C
  C102     1.0000 0.04730  0.75878  0.21210  Biso   1.000  C
  C103     1.0000 0.54730  0.74122  0.71210  Biso   1.000  C
  C104     1.0000 0.95270  0.24122  0.78790  Biso   1.000  C
  H41      1.0000 0.39431  0.25877  0.31184  Biso   1.000  H
  H42      1.0000 0.10569  0.75877  0.18816  Biso   1.000  H
  H43      1.0000 0.60569  0.74123  0.68816  Biso   1.000  H
  H44      1.0000 0.89431  0.24123  0.81184  Biso   1.000  H
  C105     1.0000 0.48380  0.21722  0.25500  Biso   1.000  C
  C106     1.0000 0.01620  0.71722  0.24500  Biso   1.000  C
  C107     1.0000 0.51620  0.78278  0.74500  Biso   1.000  C
  C108     1.0000 0.98380  0.28278  0.75500  Biso   1.000  C
  H45      1.0000 0.44686  0.18894  0.25613  Biso   1.000  H
  H46      1.0000 0.05314  0.68894  0.24387  Biso   1.000  H
  H47      1.0000 0.55314  0.81106  0.74387  Biso   1.000  H
  H48      1.0000 0.94686  0.31106  0.75613  Biso   1.000  H
  C109     1.0000 0.57060  0.21815  0.22030  Biso   1.000  C
  C110     1.0000 0.92940  0.71815  0.27970  Biso   1.000  C
  C111     1.0000 0.42940  0.78185  0.77970  Biso   1.000  C
  C112     1.0000 0.07060  0.28185  0.72030  Biso   1.000  C
  F29      1.0000 0.60020  0.17640  0.19020  Biso   1.000  F
  F30      1.0000 0.89980  0.67640  0.30980  Biso   1.000  F
  F31      1.0000 0.39980  0.82360  0.80980  Biso   1.000  F
  F32      1.0000 0.10020  0.32360  0.69020  Biso   1.000  F
  N1       1.0000 0.72810  0.16800  0.94890  Biso   1.000  N
  N2       1.0000 0.77190  0.66800  0.55110  Biso   1.000  N
  N3       1.0000 0.27190  0.83200  0.05110  Biso   1.000  N
  N4       1.0000 0.22810  0.33200  0.44890  Biso   1.000  N
  C113     1.0000 0.78700  0.14397  0.88890  Biso   1.000  C
  C114     1.0000 0.71300  0.64397  0.61110  Biso   1.000  C
  C115     1.0000 0.21300  0.85603  0.11110  Biso   1.000  C
  C116     1.0000 0.28700  0.35603  0.38890  Biso   1.000  C
  H49      1.0000 0.82096  0.16784  0.85989  Biso   1.000  H
  H50      1.0000 0.67904  0.66784  0.64011  Biso   1.000  H
  H51      1.0000 0.17904  0.83216  0.14011  Biso   1.000  H
  H52      1.0000 0.32096  0.33216  0.35989  Biso   1.000  H
  H53      1.0000 0.84542  0.12409  0.93287  Biso   1.000  H
  H54      1.0000 0.65458  0.62409  0.56713  Biso   1.000  H
  H55      1.0000 0.15458  0.87591  0.06713  Biso   1.000  H
  H56      1.0000 0.34542  0.37591  0.43287  Biso   1.000  H
  N5       1.0000 0.71240  0.11478  0.80870  Biso   1.000  N
  N6       1.0000 0.78760  0.61478  0.69130  Biso   1.000  N
  N7       1.0000 0.28760  0.88522  0.19130  Biso   1.000  N
  N8       1.0000 0.21240  0.38522  0.30870  Biso   1.000  N
  C117     1.0000 0.62500  0.14523  0.74280  Biso   1.000  C
  C118     1.0000 0.87500  0.64523  0.75720  Biso   1.000  C
  C119     1.0000 0.37500  0.85477  0.25720  Biso   1.000  C
  C120     1.0000 0.12500  0.35477  0.24280  Biso   1.000  C
  H57      1.0000 0.57504  0.12612  0.68915  Biso   1.000  H
  H58      1.0000 0.92496  0.62612  0.81085  Biso   1.000  H
  H59      1.0000 0.42496  0.87388  0.31085  Biso   1.000  H
  H60      1.0000 0.07504  0.37388  0.18915  Biso   1.000  H
  H61      1.0000 0.65786  0.16907  0.71268  Biso   1.000  H
  H62      1.0000 0.84214  0.66907  0.78732  Biso   1.000  H
  H63      1.0000 0.34214  0.83093  0.28732  Biso   1.000  H
  H64      1.0000 0.15786  0.33093  0.21268  Biso   1.000  H
  N9       1.0000 0.56070  0.16949  0.79840  Biso   1.000  N
  N10      1.0000 0.93930  0.66949  0.70160  Biso   1.000  N
  N11      1.0000 0.43930  0.83051  0.20160  Biso   1.000  N
  N12      1.0000 0.06070  0.33051  0.29840  Biso   1.000  N
  C121     1.0000 0.51170  0.13256  0.84330  Biso   1.000  C
  C122     1.0000 0.98830  0.63256  0.65670  Biso   1.000  C
  C123     1.0000 0.48830  0.86744  0.15670  Biso   1.000  C
  C124     1.0000 0.01170  0.36744  0.34330  Biso   1.000  C
  H65      1.0000 0.46036  0.11358  0.79029  Biso   1.000  H
  H66      1.0000 0.03964  0.61358  0.70971  Biso   1.000  H
  H67      1.0000 0.53964  0.88642  0.20971  Biso   1.000  H
  H68      1.0000 0.96036  0.38642  0.29029  Biso   1.000  H
  H69      1.0000 0.47052  0.14764  0.88046  Biso   1.000  H
  H70      1.0000 0.02948  0.64764  0.61954  Biso   1.000  H
  H71      1.0000 0.52948  0.85236  0.11954  Biso   1.000  H
  H72      1.0000 0.97052  0.35236  0.38046  Biso   1.000  H
  N13      1.0000 0.59770  0.10110  0.91170  Biso   1.000  N
  N14      1.0000 0.90230  0.60110  0.58830  Biso   1.000  N
  N15      1.0000 0.40230  0.89890  0.08830  Biso   1.000  N
  N16      1.0000 0.09770  0.39890  0.41170  Biso   1.000  N
  C125     1.0000 0.67670  0.13076  0.99210  Biso   1.000  C
  C126     1.0000 0.82330  0.63076  0.50790  Biso   1.000  C
  C127     1.0000 0.32330  0.86924  0.00790  Biso   1.000  C
  C128     1.0000 0.17670  0.36924  0.49210  Biso   1.000  C
  H73      1.0000 0.63780  0.14570  0.03144  Biso   1.000  H
  H74      1.0000 0.86220  0.64570  0.46856  Biso   1.000  H
  H75      1.0000 0.36220  0.85430  0.96856  Biso   1.000  H
  H76      1.0000 0.13780  0.35430  0.53144  Biso   1.000  H
  H77      1.0000 0.73412  0.11058  0.03653  Biso   1.000  H
  H78      1.0000 0.76588  0.61058  0.46347  Biso   1.000  H
  H79      1.0000 0.26588  0.88942  0.96347  Biso   1.000  H
  H80      1.0000 0.23412  0.38942  0.53653  Biso   1.000  H
  C129     1.0000 0.66050  0.07901  0.85270  Biso   1.000  C
  C130     1.0000 0.83950  0.57901  0.64730  Biso   1.000  C
  C131     1.0000 0.33950  0.92099  0.14730  Biso   1.000  C
  C132     1.0000 0.16050  0.42099  0.35270  Biso   1.000  C
  H81      1.0000 0.71728  0.05828  0.89631  Biso   1.000  H
  H82      1.0000 0.78272  0.55828  0.60369  Biso   1.000  H
  H83      1.0000 0.28272  0.94172  0.10369  Biso   1.000  H
  H84      1.0000 0.21728  0.44172  0.39631  Biso   1.000  H
  H85      1.0000 0.61051  0.05968  0.79950  Biso   1.000  H
  H86      1.0000 0.88949  0.55968  0.70050  Biso   1.000  H
  H87      1.0000 0.38949  0.94032  0.20050  Biso   1.000  H
  H88      1.0000 0.11051  0.44032  0.29950  Biso   1.000  H
  C133     1.0000 0.63960  0.19779  0.88000  Biso   1.000  C
  C134     1.0000 0.86040  0.69779  0.62000  Biso   1.000  C
  C135     1.0000 0.36040  0.80221  0.12000  Biso   1.000  C
  C136     1.0000 0.13960  0.30221  0.38000  Biso   1.000  C
  H89      1.0000 0.59993  0.21363  0.91757  Biso   1.000  H
  H90      1.0000 0.90007  0.71363  0.58243  Biso   1.000  H
  H91      1.0000 0.40007  0.78637  0.08243  Biso   1.000  H
  H92      1.0000 0.09993  0.28637  0.41757  Biso   1.000  H
  H93      1.0000 0.67254  0.22207  0.85098  Biso   1.000  H
  H94      1.0000 0.82746  0.72207  0.64902  Biso   1.000  H
  H95      1.0000 0.32746  0.77793  0.14902  Biso   1.000  H
  H96      1.0000 0.17254  0.27793  0.35098  Biso   1.000  H
  Cu9      1.0000 0.52604  0.04192  0.97058  Biso   1.000  Cu
  Cu10     1.0000 0.97396  0.54192  0.52942  Biso   1.000  Cu
  Cu11     1.0000 0.47396  0.95808  0.02942  Biso   1.000  Cu
  Cu12     1.0000 0.02604  0.45808  0.47058  Biso   1.000  Cu
  O33      1.0000 0.36970  0.06138  0.93090  Biso   1.000  O
  O34      1.0000 0.13030  0.56138  0.56910  Biso   1.000  O
  O35      1.0000 0.63030  0.93862  0.06910  Biso   1.000  O
  O36      1.0000 0.86970  0.43862  0.43090  Biso   1.000  O
  C137     1.0000 0.30340  0.03038  0.93870  Biso   1.000  C
  C138     1.0000 0.19660  0.53038  0.56130  Biso   1.000  C
  C139     1.0000 0.69660  0.96962  0.06130  Biso   1.000  C
  C140     1.0000 0.80340  0.46962  0.43870  Biso   1.000  C
  O37      1.0000 0.32710  0.98979  0.97740  Biso   1.000  O
  O38      1.0000 0.17290  0.48979  0.52260  Biso   1.000  O
  O39      1.0000 0.67290  0.01021  0.02260  Biso   1.000  O
  O40      1.0000 0.82710  0.51021  0.47740  Biso   1.000  O
  C141     1.0000 0.18210  0.04197  0.89750  Biso   1.000  C
  C142     1.0000 0.31790  0.54197  0.60250  Biso   1.000  C
  C143     1.0000 0.81790  0.95803  0.10250  Biso   1.000  C
  C144     1.0000 0.68210  0.45803  0.39750  Biso   1.000  C
  C145     1.0000 0.11710  0.04125  0.95740  Biso   1.000  C
  C146     1.0000 0.38290  0.54125  0.54260  Biso   1.000  C
  C147     1.0000 0.88290  0.95875  0.04260  Biso   1.000  C
  C148     1.0000 0.61710  0.45875  0.45740  Biso   1.000  C
  F33      1.0000 0.16850  0.03229  0.05662  Biso   1.000  F
  F34      1.0000 0.33150  0.53229  0.44338  Biso   1.000  F
  F35      1.0000 0.83150  0.96771  0.94338  Biso   1.000  F
  F36      1.0000 0.66850  0.46771  0.55662  Biso   1.000  F
  C149     1.0000 0.00530  0.05003  0.92100  Biso   1.000  C
  C150     1.0000 0.49470  0.55003  0.57900  Biso   1.000  C
  C151     1.0000 0.99470  0.94997  0.07900  Biso   1.000  C
  C152     1.0000 0.50530  0.44997  0.42100  Biso   1.000  C
  H97      1.0000 0.96490  0.04958  0.96366  Biso   1.000  H
  H98      1.0000 0.53510  0.54958  0.53634  Biso   1.000  H
  H99      1.0000 0.03510  0.95042  0.03634  Biso   1.000  H
  H100     1.0000 0.46490  0.45042  0.46366  Biso   1.000  H
  C153     1.0000 0.95410  0.05952  0.82030  Biso   1.000  C
  C154     1.0000 0.54590  0.55952  0.67970  Biso   1.000  C
  C155     1.0000 0.04590  0.94048  0.17970  Biso   1.000  C
  C156     1.0000 0.45410  0.44048  0.32030  Biso   1.000  C
  H101     1.0000 0.87823  0.06511  0.79451  Biso   1.000  H
  H102     1.0000 0.62177  0.56511  0.70549  Biso   1.000  H
  H103     1.0000 0.12177  0.93489  0.20549  Biso   1.000  H
  H104     1.0000 0.37823  0.43489  0.29451  Biso   1.000  H
  C157     1.0000 0.01440  0.06082  0.75710  Biso   1.000  C
  C158     1.0000 0.48560  0.56082  0.74290  Biso   1.000  C
  C159     1.0000 0.98560  0.93918  0.24290  Biso   1.000  C
  C160     1.0000 0.51440  0.43918  0.25710  Biso   1.000  C
  H105     1.0000 0.98006  0.06735  0.68903  Biso   1.000  H
  H106     1.0000 0.51994  0.56735  0.81097  Biso   1.000  H
  H107     1.0000 0.01994  0.93265  0.31097  Biso   1.000  H
  H108     1.0000 0.48006  0.43265  0.18903  Biso   1.000  H
  C161     1.0000 0.12660  0.05222  0.79710  Biso   1.000  C
  C162     1.0000 0.37340  0.55222  0.70290  Biso   1.000  C
  C163     1.0000 0.87340  0.94778  0.20290  Biso   1.000  C
  C164     1.0000 0.62660  0.44778  0.29710  Biso   1.000  C
  F37      1.0000 0.18510  0.05218  0.73506  Biso   1.000  F
  F38      1.0000 0.31490  0.55218  0.76494  Biso   1.000  F
  F39      1.0000 0.81490  0.94782  0.26494  Biso   1.000  F
  F40      1.0000 0.68510  0.44782  0.23506  Biso   1.000  F
  O41      1.0000 0.55200  0.06365  0.10730  Biso   1.000  O
  O42      1.0000 0.94800  0.56365  0.39270  Biso   1.000  O
  O43      1.0000 0.44800  0.93635  0.89270  Biso   1.000  O
  O44      1.0000 0.05200  0.43635  0.60730  Biso   1.000  O
  C165     1.0000 0.54960  0.03463  0.17360  Biso   1.000  C
  C166     1.0000 0.95040  0.53463  0.32640  Biso   1.000  C
  C167     1.0000 0.45040  0.96537  0.82640  Biso   1.000  C
  C168     1.0000 0.04960  0.46537  0.67360  Biso   1.000  C
  O45      1.0000 0.51730  0.99202  0.15890  Biso   1.000  O
  O46      1.0000 0.98270  0.49202  0.34110  Biso   1.000  O
  O47      1.0000 0.48270  0.00798  0.84110  Biso   1.000  O
  O48      1.0000 0.01730  0.50798  0.65890  Biso   1.000  O
  C169     1.0000 0.59010  0.05191  0.28060  Biso   1.000  C
  C170     1.0000 0.90990  0.55191  0.21940  Biso   1.000  C
  C171     1.0000 0.40990  0.94809  0.71940  Biso   1.000  C
  C172     1.0000 0.09010  0.44809  0.78060  Biso   1.000  C
  C173     1.0000 0.54350  0.03883  0.35000  Biso   1.000  C
  C174     1.0000 0.95650  0.53883  0.15000  Biso   1.000  C
  C175     1.0000 0.45650  0.96117  0.65000  Biso   1.000  C
  C176     1.0000 0.04350  0.46117  0.85000  Biso   1.000  C
  F41      1.0000 0.43410  0.01670  0.30720  Biso   1.000  F
  F42      1.0000 0.06590  0.51670  0.19280  Biso   1.000  F
  F43      1.0000 0.56590  0.98330  0.69280  Biso   1.000  F
  F44      1.0000 0.93410  0.48330  0.80720  Biso   1.000  F
  C177     1.0000 0.57850  0.05500  0.44770  Biso   1.000  C
  C178     1.0000 0.92150  0.55500  0.05230  Biso   1.000  C
  C179     1.0000 0.42150  0.94500  0.55230  Biso   1.000  C
  C180     1.0000 0.07850  0.44500  0.94770  Biso   1.000  C
  H109     1.0000 0.54232  0.04581  0.49087  Biso   1.000  H
  H110     1.0000 0.95768  0.54581  0.00913  Biso   1.000  H
  H111     1.0000 0.45768  0.95419  0.50913  Biso   1.000  H
  H112     1.0000 0.04232  0.45419  0.99087  Biso   1.000  H
  C181     1.0000 0.66780  0.08476  0.47950  Biso   1.000  C
  C182     1.0000 0.83220  0.58476  0.02050  Biso   1.000  C
  C183     1.0000 0.33220  0.91524  0.52050  Biso   1.000  C
  C184     1.0000 0.16780  0.41524  0.97950  Biso   1.000  C
  H113     1.0000 0.69357  0.09593  0.54527  Biso   1.000  H
  H114     1.0000 0.80643  0.59593  0.95473  Biso   1.000  H
  H115     1.0000 0.30643  0.90407  0.45473  Biso   1.000  H
  H116     1.0000 0.19357  0.40407  0.04527  Biso   1.000  H
  C185     1.0000 0.71910  0.09810  0.41480  Biso   1.000  C
  C186     1.0000 0.78090  0.59810  0.08520  Biso   1.000  C
  C187     1.0000 0.28090  0.90190  0.58520  Biso   1.000  C
  C188     1.0000 0.21910  0.40190  0.91480  Biso   1.000  C
  H117     1.0000 0.78012  0.11819  0.43603  Biso   1.000  H
  H118     1.0000 0.71988  0.61819  0.06397  Biso   1.000  H
  H119     1.0000 0.21988  0.88181  0.56397  Biso   1.000  H
  H120     1.0000 0.28012  0.38181  0.93603  Biso   1.000  H
  C189     1.0000 0.67960  0.08140  0.31750  Biso   1.000  C
  C190     1.0000 0.82040  0.58140  0.18250  Biso   1.000  C
  C191     1.0000 0.32040  0.91860  0.68250  Biso   1.000  C
  C192     1.0000 0.17960  0.41860  0.81750  Biso   1.000  C
  F45      1.0000 0.73410  0.09399  0.25640  Biso   1.000  F
  F46      1.0000 0.76590  0.59399  0.24360  Biso   1.000  F
  F47      1.0000 0.26590  0.90601  0.74360  Biso   1.000  F
  F48      1.0000 0.23410  0.40601  0.75640  Biso   1.000  F
  C193     1.0000 0.79880  0.44280  0.89920  Biso   1.000  C
  C194     1.0000 0.70120  0.94280  0.60080  Biso   1.000  C
  C195     1.0000 0.20120  0.55720  0.10080  Biso   1.000  C
  C196     1.0000 0.29880  0.05720  0.39920  Biso   1.000  C
  H121     1.0000 0.83365  0.47185  0.92089  Biso   1.000  H
  H122     1.0000 0.66635  0.97185  0.57911  Biso   1.000  H
  H123     1.0000 0.16635  0.52815  0.07911  Biso   1.000  H
  H124     1.0000 0.33365  0.02815  0.42089  Biso   1.000  H
  F49      1.0000 0.86790  0.41503  0.06320  Biso   1.000  F
  F50      1.0000 0.63210  0.91503  0.43680  Biso   1.000  F
  F51      1.0000 0.13210  0.58497  0.93680  Biso   1.000  F
  F52      1.0000 0.36790  0.08497  0.56320  Biso   1.000  F
  F53      1.0000 0.47410  0.00145  0.33190  Biso   1.000  F
  F54      1.0000 0.02590  0.50145  0.16810  Biso   1.000  F
  F55      1.0000 0.52590  0.99855  0.66810  Biso   1.000  F
  F56      1.0000 0.97410  0.49855  0.83190  Biso   1.000  F
