data_image0
_cell_length_a       7.4434
_cell_length_b       7.9047
_cell_length_c       11.465
_cell_angle_alpha    100.022
_cell_angle_beta     100.782
_cell_angle_gamma    113.869

_symmetry_space_group_name_H-M    "P 1"
_symmetry_int_tables_number       1

loop_
  _symmetry_equiv_pos_as_xyz
  'x, y, z'

loop_
  _atom_site_label
  _atom_site_occupancy
  _atom_site_fract_x
  _atom_site_fract_y
  _atom_site_fract_z
  _atom_site_thermal_displace_type
  _atom_site_B_iso_or_equiv
  _atom_site_type_symbol
  Cu1      1.0000 1.00000  0.50000  0.50000  Biso   1.000  Cu
  S1       1.0000 0.26389  0.49271  0.28815  Biso   1.000  S
  S2       1.0000 0.73611  0.50729  0.71185  Biso   1.000  S
  O1       1.0000 0.07970  0.82470  0.54530  Biso   1.000  O
  O2       1.0000 0.92030  0.17530  0.45470  Biso   1.000  O
  O3       1.0000 0.20610  0.29370  0.23610  Biso   1.000  O
  O4       1.0000 0.79390  0.70630  0.76390  Biso   1.000  O
  O5       1.0000 0.85520  0.64190  0.25520  Biso   1.000  O
  O6       1.0000 0.14480  0.35810  0.74480  Biso   1.000  O
  O7       1.0000 0.45100  0.59350  0.38790  Biso   1.000  O
  O8       1.0000 0.54900  0.40650  0.61210  Biso   1.000  O
  N1       1.0000 0.07790  0.52490  0.32730  Biso   1.000  N
  N2       1.0000 0.92210  0.47510  0.67270  Biso   1.000  N
  N3       1.0000 0.29140  0.62210  0.59930  Biso   1.000  N
  N4       1.0000 0.70860  0.37790  0.40070  Biso   1.000  N
  H1       1.0000 0.29850  0.58230  0.66820  Biso   1.000  H
  H2       1.0000 0.70150  0.41770  0.33180  Biso   1.000  H
  H3       1.0000 0.36090  0.57970  0.55560  Biso   1.000  H
  H4       1.0000 0.63910  0.42030  0.44440  Biso   1.000  H
  C1       1.0000 0.12710  0.67190  0.16320  Biso   1.000  C
  C2       1.0000 0.87290  0.32810  0.83680  Biso   1.000  C
  C3       1.0000 0.27790  0.61420  0.17250  Biso   1.000  C
  C4       1.0000 0.72210  0.38580  0.82750  Biso   1.000  C
  C5       1.0000 0.00390  0.61280  0.25210  Biso   1.000  C
  C6       1.0000 0.99610  0.38720  0.74790  Biso   1.000  C
  C7       1.0000 0.38170  0.74570  0.01440  Biso   1.000  C
  C8       1.0000 0.61830  0.25430  0.98560  Biso   1.000  C
  H5       1.0000 0.46770  0.77180  0.96360  Biso   1.000  H
  H6       1.0000 0.53230  0.22820  0.03640  Biso   1.000  H
  C9       1.0000 0.25620  0.91930  0.64900  Biso   1.000  C
  C10      1.0000 0.74380  0.08070  0.35100  Biso   1.000  C
  H7       1.0000 0.21650  0.90630  0.72410  Biso   1.000  H
  H8       1.0000 0.78350  0.09370  0.27590  Biso   1.000  H
  H9       1.0000 0.32480  0.05540  0.65460  Biso   1.000  H
  H10      1.0000 0.67520  0.94460  0.34540  Biso   1.000  H
  C11      1.0000 0.95510  0.92320  0.53240  Biso   1.000  C
  C12      1.0000 0.04490  0.07680  0.46760  Biso   1.000  C
  H11      1.0000 0.95230  0.98230  0.61310  Biso   1.000  H
  H12      1.0000 0.04770  0.01770  0.38690  Biso   1.000  H
  H13      1.0000 0.81570  0.83240  0.48430  Biso   1.000  H
  H14      1.0000 0.18430  0.16760  0.51570  Biso   1.000  H
  C13      1.0000 0.40960  0.64920  0.09970  Biso   1.000  C
  C14      1.0000 0.59040  0.35080  0.90030  Biso   1.000  C
  H15      1.0000 0.51210  0.60970  0.10780  Biso   1.000  H
  H16      1.0000 0.48790  0.39030  0.89220  Biso   1.000  H
  C15      1.0000 0.23020  0.80490  0.00180  Biso   1.000  C
  C16      1.0000 0.76980  0.19510  0.99820  Biso   1.000  C
  H17      1.0000 0.21640  0.87040  0.94350  Biso   1.000  H
  H18      1.0000 0.78360  0.12960  0.05650  Biso   1.000  H
  C17      1.0000 0.09750  0.76760  0.07570  Biso   1.000  C
  C18      1.0000 0.90250  0.23240  0.92430  Biso   1.000  C
  H19      1.0000 0.99350  0.80520  0.06700  Biso   1.000  H
  H20      1.0000 0.00650  0.19480  0.93300  Biso   1.000  H
  C19      1.0000 0.39460  0.83420  0.63580  Biso   1.000  C
  C20      1.0000 0.60540  0.16580  0.36420  Biso   1.000  C
  H21      1.0000 0.50000  0.88000  0.71370  Biso   1.000  H
  H22      1.0000 0.50000  0.12000  0.28630  Biso   1.000  H
  H23      1.0000 0.46140  0.87770  0.57420  Biso   1.000  H
  H24      1.0000 0.53860  0.12230  0.42580  Biso   1.000  H
