data_image0
_cell_length_a       5.0445
_cell_length_b       10.3733
_cell_length_c       15.5878
_cell_angle_alpha    90
_cell_angle_beta     92.152
_cell_angle_gamma    90

_symmetry_space_group_name_H-M    "P 1"
_symmetry_int_tables_number       1

loop_
  _symmetry_equiv_pos_as_xyz
  'x, y, z'

loop_
  _atom_site_label
  _atom_site_occupancy
  _atom_site_fract_x
  _atom_site_fract_y
  _atom_site_fract_z
  _atom_site_thermal_displace_type
  _atom_site_B_iso_or_equiv
  _atom_site_type_symbol
  Cu1      1.0000 0.09529  0.13308  0.01560  Biso   1.000  Cu
  Cu2      1.0000 0.90471  0.63308  0.48440  Biso   1.000  Cu
  Cu3      1.0000 0.90471  0.86692  0.98440  Biso   1.000  Cu
  Cu4      1.0000 0.09529  0.36692  0.51560  Biso   1.000  Cu
  Cu5      1.0000 0.00000  0.50000  0.00000  Biso   1.000  Cu
  Cu6      1.0000 0.00000  0.00000  0.50000  Biso   1.000  Cu
  O1       1.0000 0.20780  0.54540  0.90010  Biso   1.000  O
  O2       1.0000 0.79220  0.04540  0.59990  Biso   1.000  O
  O3       1.0000 0.79220  0.45460  0.09990  Biso   1.000  O
  O4       1.0000 0.20780  0.95460  0.40010  Biso   1.000  O
  O5       1.0000 0.81560  0.04083  0.95412  Biso   1.000  O
  O6       1.0000 0.18440  0.54083  0.54588  Biso   1.000  O
  O7       1.0000 0.18440  0.95917  0.04588  Biso   1.000  O
  O8       1.0000 0.81560  0.45917  0.45412  Biso   1.000  O
  O9       1.0000 0.99050  0.29120  0.96240  Biso   1.000  O
  O10      1.0000 0.00950  0.79120  0.53760  Biso   1.000  O
  O11      1.0000 0.00950  0.70880  0.03760  Biso   1.000  O
  O12      1.0000 0.99050  0.20880  0.46240  Biso   1.000  O
  O13      1.0000 0.70110  0.43083  0.91585  Biso   1.000  O
  O14      1.0000 0.29890  0.93083  0.58415  Biso   1.000  O
  O15      1.0000 0.29890  0.56917  0.08415  Biso   1.000  O
  O16      1.0000 0.70110  0.06917  0.41585  Biso   1.000  O
  O17      1.0000 0.60200  0.79630  0.92820  Biso   1.000  O
  O18      1.0000 0.39800  0.29630  0.57180  Biso   1.000  O
  O19      1.0000 0.39800  0.20370  0.07180  Biso   1.000  O
  O20      1.0000 0.60200  0.70370  0.42820  Biso   1.000  O
  O21      1.0000 0.20320  0.80142  0.86831  Biso   1.000  O
  O22      1.0000 0.79680  0.30142  0.63169  Biso   1.000  O
  O23      1.0000 0.79680  0.19858  0.13169  Biso   1.000  O
  O24      1.0000 0.20320  0.69858  0.36831  Biso   1.000  O
  C1       1.0000 0.61420  0.21390  0.87459  Biso   1.000  C
  C2       1.0000 0.38580  0.71390  0.62541  Biso   1.000  C
  C3       1.0000 0.38580  0.78610  0.12541  Biso   1.000  C
  C4       1.0000 0.61420  0.28610  0.37459  Biso   1.000  C
  C5       1.0000 0.63250  0.08130  0.89603  Biso   1.000  C
  C6       1.0000 0.36750  0.58130  0.60397  Biso   1.000  C
  C7       1.0000 0.36750  0.91870  0.10397  Biso   1.000  C
  C8       1.0000 0.63250  0.41870  0.39603  Biso   1.000  C
  C9       1.0000 0.44570  0.99460  0.85893  Biso   1.000  C
  C10      1.0000 0.55430  0.49460  0.64107  Biso   1.000  C
  C11      1.0000 0.55430  0.00540  0.14107  Biso   1.000  C
  C12      1.0000 0.44570  0.50540  0.35893  Biso   1.000  C
  C13      1.0000 0.26220  0.04000  0.79663  Biso   1.000  C
  C14      1.0000 0.73780  0.54000  0.70337  Biso   1.000  C
  C15      1.0000 0.73780  0.96000  0.20337  Biso   1.000  C
  C16      1.0000 0.26220  0.46000  0.29663  Biso   1.000  C
  H1       1.0000 0.14030  0.98280  0.77150  Biso   1.000  H
  H2       1.0000 0.85970  0.48280  0.72850  Biso   1.000  H
  H3       1.0000 0.85970  0.01720  0.22850  Biso   1.000  H
  H4       1.0000 0.14030  0.51720  0.27150  Biso   1.000  H
  C17      1.0000 0.25720  0.16740  0.77150  Biso   1.000  C
  C18      1.0000 0.74280  0.66740  0.72850  Biso   1.000  C
  C19      1.0000 0.74280  0.83260  0.22850  Biso   1.000  C
  C20      1.0000 0.25720  0.33260  0.27150  Biso   1.000  C
  H5       1.0000 0.14020  0.19440  0.72760  Biso   1.000  H
  H6       1.0000 0.85980  0.69440  0.77240  Biso   1.000  H
  H7       1.0000 0.85980  0.80560  0.27240  Biso   1.000  H
  H8       1.0000 0.14020  0.30560  0.22760  Biso   1.000  H
  C21      1.0000 0.42510  0.25380  0.81139  Biso   1.000  C
  C22      1.0000 0.57490  0.75380  0.68861  Biso   1.000  C
  C23      1.0000 0.57490  0.74620  0.18861  Biso   1.000  C
  C24      1.0000 0.42510  0.24620  0.31139  Biso   1.000  C
  H9       1.0000 0.41430  0.34050  0.79650  Biso   1.000  H
  H10      1.0000 0.58570  0.84050  0.70350  Biso   1.000  H
  H11      1.0000 0.58570  0.65950  0.20350  Biso   1.000  H
  H12      1.0000 0.41430  0.15950  0.29650  Biso   1.000  H
  C25      1.0000 0.77370  0.31500  0.91859  Biso   1.000  C
  C26      1.0000 0.22630  0.81500  0.58141  Biso   1.000  C
  C27      1.0000 0.22630  0.68500  0.08141  Biso   1.000  C
  C28      1.0000 0.77370  0.18500  0.41859  Biso   1.000  C
  C29      1.0000 0.41770  0.85660  0.88693  Biso   1.000  C
  C30      1.0000 0.58230  0.35660  0.61307  Biso   1.000  C
  C31      1.0000 0.58230  0.14340  0.11307  Biso   1.000  C
  C32      1.0000 0.41770  0.64340  0.38693  Biso   1.000  C
  H13      1.0000 0.35900  0.51100  0.90000  Biso   1.000  H
  H14      1.0000 0.64100  0.01100  0.60000  Biso   1.000  H
  H15      1.0000 0.64100  0.48900  0.10000  Biso   1.000  H
  H16      1.0000 0.35900  0.98900  0.40000  Biso   1.000  H
  H17      1.0000 0.21800  0.62650  0.89600  Biso   1.000  H
  H18      1.0000 0.78200  0.12650  0.60400  Biso   1.000  H
  H19      1.0000 0.78200  0.37350  0.10400  Biso   1.000  H
  H20      1.0000 0.21800  0.87350  0.39600  Biso   1.000  H
