data_image0
_cell_length_a       5.34
_cell_length_b       21.213
_cell_length_c       11.63
_cell_angle_alpha    90
_cell_angle_beta     96.7
_cell_angle_gamma    90

_symmetry_space_group_name_H-M    "P 1"
_symmetry_int_tables_number       1

loop_
  _symmetry_equiv_pos_as_xyz
  'x, y, z'

loop_
  _atom_site_label
  _atom_site_occupancy
  _atom_site_fract_x
  _atom_site_fract_y
  _atom_site_fract_z
  _atom_site_thermal_displace_type
  _atom_site_B_iso_or_equiv
  _atom_site_type_symbol
  Cu1      1.0000 0.00000  0.50000  0.50000  Biso   1.000  Cu
  Cu2      1.0000 0.00000  0.00000  0.50000  Biso   1.000  Cu
  Cu3      1.0000 0.38970  0.49506  0.87783  Biso   1.000  Cu
  Cu4      1.0000 0.61030  0.99506  0.12217  Biso   1.000  Cu
  Cu5      1.0000 0.61030  0.50494  0.12217  Biso   1.000  Cu
  Cu6      1.0000 0.38970  0.00494  0.87783  Biso   1.000  Cu
  Cu7      1.0000 0.48790  0.43207  0.54059  Biso   1.000  Cu
  Cu8      1.0000 0.51210  0.93207  0.45941  Biso   1.000  Cu
  Cu9      1.0000 0.51210  0.56793  0.45941  Biso   1.000  Cu
  Cu10     1.0000 0.48790  0.06793  0.54059  Biso   1.000  Cu
  O1       1.0000 0.88400  0.41650  0.45300  Biso   1.000  O
  O2       1.0000 0.11600  0.91650  0.54700  Biso   1.000  O
  O3       1.0000 0.11600  0.58350  0.54700  Biso   1.000  O
  O4       1.0000 0.88400  0.08350  0.45300  Biso   1.000  O
  O5       1.0000 0.48000  0.25000  0.70100  Biso   1.000  O
  O6       1.0000 0.52000  0.75000  0.29900  Biso   1.000  O
  O7       1.0000 0.24800  0.36480  0.50490  Biso   1.000  O
  O8       1.0000 0.75200  0.86480  0.49510  Biso   1.000  O
  O9       1.0000 0.75200  0.63520  0.49510  Biso   1.000  O
  O10      1.0000 0.24800  0.13520  0.50490  Biso   1.000  O
  O11      1.0000 0.69000  0.38110  0.65750  Biso   1.000  O
  O12      1.0000 0.31000  0.88110  0.34250  Biso   1.000  O
  O13      1.0000 0.31000  0.61890  0.34250  Biso   1.000  O
  O14      1.0000 0.69000  0.11890  0.65750  Biso   1.000  O
  O15      1.0000 0.46700  0.44210  0.75760  Biso   1.000  O
  O16      1.0000 0.53300  0.94210  0.24240  Biso   1.000  O
  O17      1.0000 0.53300  0.55790  0.24240  Biso   1.000  O
  O18      1.0000 0.46700  0.05790  0.75760  Biso   1.000  O
  O19      1.0000 0.90500  0.47290  0.20720  Biso   1.000  O
  O20      1.0000 0.09500  0.97290  0.79280  Biso   1.000  O
  O21      1.0000 0.09500  0.52710  0.79280  Biso   1.000  O
  O22      1.0000 0.90500  0.02710  0.20720  Biso   1.000  O
  O23      1.0000 0.27900  0.43150  0.23010  Biso   1.000  O
  O24      1.0000 0.72100  0.93150  0.76990  Biso   1.000  O
  O25      1.0000 0.72100  0.56850  0.76990  Biso   1.000  O
  O26      1.0000 0.27900  0.06850  0.23010  Biso   1.000  O
  O27      1.0000 0.66200  0.46160  0.98450  Biso   1.000  O
  O28      1.0000 0.33800  0.96160  0.01550  Biso   1.000  O
  O29      1.0000 0.33800  0.53840  0.01550  Biso   1.000  O
  O30      1.0000 0.66200  0.03840  0.98450  Biso   1.000  O
  O31      1.0000 0.30600  0.49010  0.43190  Biso   1.000  O
  O32      1.0000 0.69400  0.99010  0.56810  Biso   1.000  O
  O33      1.0000 0.69400  0.50990  0.56810  Biso   1.000  O
  O34      1.0000 0.30600  0.00990  0.43190  Biso   1.000  O
  C1       1.0000 0.02200  0.36710  0.46120  Biso   1.000  C
  C2       1.0000 0.97800  0.86710  0.53880  Biso   1.000  C
  C3       1.0000 0.97800  0.63290  0.53880  Biso   1.000  C
  C4       1.0000 0.02200  0.13290  0.46120  Biso   1.000  C
  C5       1.0000 0.01400  0.25000  0.45700  Biso   1.000  C
  C6       1.0000 0.98600  0.75000  0.54300  Biso   1.000  C
  C7       1.0000 0.89700  0.30680  0.42080  Biso   1.000  C
  C8       1.0000 0.10300  0.80680  0.57920  Biso   1.000  C
  C9       1.0000 0.10300  0.69320  0.57920  Biso   1.000  C
  C10      1.0000 0.89700  0.19320  0.42080  Biso   1.000  C
  C11      1.0000 0.67300  0.30650  0.34500  Biso   1.000  C
  C12      1.0000 0.32700  0.80650  0.65500  Biso   1.000  C
  C13      1.0000 0.32700  0.69350  0.65500  Biso   1.000  C
  C14      1.0000 0.67300  0.19350  0.34500  Biso   1.000  C
  C15      1.0000 0.56900  0.25000  0.30800  Biso   1.000  C
  C16      1.0000 0.43100  0.75000  0.69200  Biso   1.000  C
  C17      1.0000 0.65200  0.40510  0.75470  Biso   1.000  C
  C18      1.0000 0.34800  0.90510  0.24530  Biso   1.000  C
  C19      1.0000 0.34800  0.59490  0.24530  Biso   1.000  C
  C20      1.0000 0.65200  0.09490  0.75470  Biso   1.000  C
  C21      1.0000 0.83700  0.38940  0.85810  Biso   1.000  C
  C22      1.0000 0.16300  0.88940  0.14190  Biso   1.000  C
  C23      1.0000 0.16300  0.61060  0.14190  Biso   1.000  C
  C24      1.0000 0.83700  0.11060  0.85810  Biso   1.000  C
  C25      1.0000 0.83800  0.41860  0.96520  Biso   1.000  C
  C26      1.0000 0.16200  0.91860  0.03480  Biso   1.000  C
  C27      1.0000 0.16200  0.58140  0.03480  Biso   1.000  C
  C28      1.0000 0.83800  0.08140  0.96520  Biso   1.000  C
  C29      1.0000 0.03600  0.40520  0.05530  Biso   1.000  C
  C30      1.0000 0.96400  0.90520  0.94470  Biso   1.000  C
  C31      1.0000 0.96400  0.59480  0.94470  Biso   1.000  C
  C32      1.0000 0.03600  0.09480  0.05530  Biso   1.000  C
  C33      1.0000 0.22000  0.36200  0.03330  Biso   1.000  C
  C34      1.0000 0.78000  0.86200  0.96670  Biso   1.000  C
  C35      1.0000 0.78000  0.63800  0.96670  Biso   1.000  C
  C36      1.0000 0.22000  0.13800  0.03330  Biso   1.000  C
  C37      1.0000 0.21800  0.33250  0.92740  Biso   1.000  C
  C38      1.0000 0.78200  0.83250  0.07260  Biso   1.000  C
  C39      1.0000 0.78200  0.66750  0.07260  Biso   1.000  C
  C40      1.0000 0.21800  0.16750  0.92740  Biso   1.000  C
  C41      1.0000 0.02300  0.34570  0.84060  Biso   1.000  C
  C42      1.0000 0.97700  0.84570  0.15940  Biso   1.000  C
  C43      1.0000 0.97700  0.65430  0.15940  Biso   1.000  C
  C44      1.0000 0.02300  0.15430  0.84060  Biso   1.000  C
  C45      1.0000 0.07100  0.43810  0.16870  Biso   1.000  C
  C46      1.0000 0.92900  0.93810  0.83130  Biso   1.000  C
  C47      1.0000 0.92900  0.56190  0.83130  Biso   1.000  C
  C48      1.0000 0.07100  0.06190  0.16870  Biso   1.000  C
  H1       1.0000 0.52000  0.28700  0.68000  Biso   1.000  H
  H2       1.0000 0.48000  0.78700  0.32000  Biso   1.000  H
  H3       1.0000 0.48000  0.71300  0.32000  Biso   1.000  H
  H4       1.0000 0.52000  0.21300  0.68000  Biso   1.000  H
  H5       1.0000 0.29000  0.47400  0.36500  Biso   1.000  H
  H6       1.0000 0.71000  0.97400  0.63500  Biso   1.000  H
  H7       1.0000 0.71000  0.52600  0.63500  Biso   1.000  H
  H8       1.0000 0.29000  0.02600  0.36500  Biso   1.000  H
  H9       1.0000 0.16710  0.25000  0.50360  Biso   1.000  H
  H10      1.0000 0.83290  0.75000  0.49640  Biso   1.000  H
  H11      1.0000 0.59630  0.34420  0.32000  Biso   1.000  H
  H12      1.0000 0.40370  0.84420  0.68000  Biso   1.000  H
  H13      1.0000 0.40370  0.65580  0.68000  Biso   1.000  H
  H14      1.0000 0.59630  0.15580  0.32000  Biso   1.000  H
  H15      1.0000 0.42210  0.25000  0.25640  Biso   1.000  H
  H16      1.0000 0.57790  0.75000  0.74360  Biso   1.000  H
  H17      1.0000 0.34860  0.35260  0.09180  Biso   1.000  H
  H18      1.0000 0.65140  0.85260  0.90820  Biso   1.000  H
  H19      1.0000 0.65140  0.64740  0.90820  Biso   1.000  H
  H20      1.0000 0.34860  0.14740  0.09180  Biso   1.000  H
  H21      1.0000 0.34470  0.30430  0.91430  Biso   1.000  H
  H22      1.0000 0.65530  0.80430  0.08570  Biso   1.000  H
  H23      1.0000 0.65530  0.69570  0.08570  Biso   1.000  H
  H24      1.0000 0.34470  0.19570  0.91430  Biso   1.000  H
  H25      1.0000 0.01730  0.32500  0.76990  Biso   1.000  H
  H26      1.0000 0.98270  0.82500  0.23010  Biso   1.000  H
  H27      1.0000 0.98270  0.67500  0.23010  Biso   1.000  H
  H28      1.0000 0.01730  0.17500  0.76990  Biso   1.000  H
