data_image0
_cell_length_a       5.029
_cell_length_b       10.403
_cell_length_c       15.596
_cell_angle_alpha    90
_cell_angle_beta     91.97
_cell_angle_gamma    90

_symmetry_space_group_name_H-M    "P 1"
_symmetry_int_tables_number       1

loop_
  _symmetry_equiv_pos_as_xyz
  'x, y, z'

loop_
  _atom_site_label
  _atom_site_occupancy
  _atom_site_fract_x
  _atom_site_fract_y
  _atom_site_fract_z
  _atom_site_thermal_displace_type
  _atom_site_B_iso_or_equiv
  _atom_site_type_symbol
  Cu1      1.0000 0.50000  0.50000  0.50000  Biso   1.000  Cu
  Cu2      1.0000 0.50000  0.00000  0.00000  Biso   1.000  Cu
  Cu3      1.0000 0.40435  0.86739  0.48493  Biso   1.000  Cu
  Cu4      1.0000 0.59565  0.36739  0.01507  Biso   1.000  Cu
  Cu5      1.0000 0.59565  0.13261  0.51507  Biso   1.000  Cu
  Cu6      1.0000 0.40435  0.63261  0.98493  Biso   1.000  Cu
  O1       1.0000 0.80000  0.57110  0.58420  Biso   1.000  O
  O2       1.0000 0.20000  0.07110  0.91580  Biso   1.000  O
  O3       1.0000 0.20000  0.42890  0.41580  Biso   1.000  O
  O4       1.0000 0.80000  0.92890  0.08420  Biso   1.000  O
  O5       1.0000 0.50910  0.71070  0.53860  Biso   1.000  O
  O6       1.0000 0.49090  0.21070  0.96140  Biso   1.000  O
  O7       1.0000 0.49090  0.28930  0.46140  Biso   1.000  O
  O8       1.0000 0.50910  0.78930  0.03860  Biso   1.000  O
  O9       1.0000 0.68540  0.95970  0.54590  Biso   1.000  O
  O10      1.0000 0.31460  0.45970  0.95410  Biso   1.000  O
  O11      1.0000 0.31460  0.04030  0.45410  Biso   1.000  O
  O12      1.0000 0.68540  0.54030  0.04590  Biso   1.000  O
  O13      1.0000 0.89710  0.20410  0.57130  Biso   1.000  O
  O14      1.0000 0.10290  0.70410  0.92870  Biso   1.000  O
  O15      1.0000 0.10290  0.79590  0.42870  Biso   1.000  O
  O16      1.0000 0.89710  0.29590  0.07130  Biso   1.000  O
  O17      1.0000 0.29680  0.19950  0.63190  Biso   1.000  O
  O18      1.0000 0.70320  0.69950  0.86810  Biso   1.000  O
  O19      1.0000 0.70320  0.80050  0.36810  Biso   1.000  O
  O20      1.0000 0.29680  0.30050  0.13190  Biso   1.000  O
  O21      1.0000 0.29300  0.45460  0.59920  Biso   1.000  O
  O22      1.0000 0.70700  0.95460  0.90080  Biso   1.000  O
  O23      1.0000 0.70700  0.54540  0.40080  Biso   1.000  O
  O24      1.0000 0.29300  0.04540  0.09920  Biso   1.000  O
  C1       1.0000 0.88640  0.78730  0.62570  Biso   1.000  C
  C2       1.0000 0.11360  0.28730  0.87430  Biso   1.000  C
  C3       1.0000 0.11360  0.21270  0.37430  Biso   1.000  C
  C4       1.0000 0.88640  0.71270  0.12570  Biso   1.000  C
  C5       1.0000 0.86800  0.91900  0.60390  Biso   1.000  C
  C6       1.0000 0.13200  0.41900  0.89610  Biso   1.000  C
  C7       1.0000 0.13200  0.08100  0.39610  Biso   1.000  C
  C8       1.0000 0.86800  0.58100  0.10390  Biso   1.000  C
  C9       1.0000 0.05380  0.00610  0.64120  Biso   1.000  C
  C10      1.0000 0.94620  0.50610  0.85880  Biso   1.000  C
  C11      1.0000 0.94620  0.99390  0.35880  Biso   1.000  C
  C12      1.0000 0.05380  0.49390  0.14120  Biso   1.000  C
  C13      1.0000 0.23680  0.96160  0.70340  Biso   1.000  C
  C14      1.0000 0.76320  0.46160  0.79660  Biso   1.000  C
  C15      1.0000 0.76320  0.03840  0.29660  Biso   1.000  C
  C16      1.0000 0.23680  0.53840  0.20340  Biso   1.000  C
  C17      1.0000 0.24450  0.83430  0.72870  Biso   1.000  C
  C18      1.0000 0.75550  0.33430  0.77130  Biso   1.000  C
  C19      1.0000 0.75550  0.16570  0.27130  Biso   1.000  C
  C20      1.0000 0.24450  0.66570  0.22870  Biso   1.000  C
  C21      1.0000 0.07440  0.74880  0.68840  Biso   1.000  C
  C22      1.0000 0.92560  0.24880  0.81160  Biso   1.000  C
  C23      1.0000 0.92560  0.25120  0.31160  Biso   1.000  C
  C24      1.0000 0.07440  0.75120  0.18840  Biso   1.000  C
  C25      1.0000 0.72760  0.68630  0.58150  Biso   1.000  C
  C26      1.0000 0.27240  0.18630  0.91850  Biso   1.000  C
  C27      1.0000 0.27240  0.31370  0.41850  Biso   1.000  C
  C28      1.0000 0.72760  0.81370  0.08150  Biso   1.000  C
  C29      1.0000 0.08170  0.14390  0.61310  Biso   1.000  C
  C30      1.0000 0.91830  0.64390  0.88690  Biso   1.000  C
  C31      1.0000 0.91830  0.85610  0.38690  Biso   1.000  C
  C32      1.0000 0.08170  0.35610  0.11310  Biso   1.000  C
  H1       1.0000 0.29000  0.37400  0.60800  Biso   1.000  H
  H2       1.0000 0.71000  0.87400  0.89200  Biso   1.000  H
  H3       1.0000 0.71000  0.62600  0.39200  Biso   1.000  H
  H4       1.0000 0.29000  0.12600  0.10800  Biso   1.000  H
  H5       1.0000 0.14400  0.49200  0.59600  Biso   1.000  H
  H6       1.0000 0.85600  0.99200  0.90400  Biso   1.000  H
  H7       1.0000 0.85600  0.50800  0.40400  Biso   1.000  H
  H8       1.0000 0.14400  0.00800  0.09600  Biso   1.000  H
  H9       1.0000 0.35720  0.01930  0.72870  Biso   1.000  H
  H10      1.0000 0.64280  0.51930  0.77130  Biso   1.000  H
  H11      1.0000 0.64280  0.98070  0.27130  Biso   1.000  H
  H12      1.0000 0.35720  0.48070  0.22870  Biso   1.000  H
  H13      1.0000 0.36270  0.80710  0.77220  Biso   1.000  H
  H14      1.0000 0.63730  0.30710  0.72780  Biso   1.000  H
  H15      1.0000 0.63730  0.19290  0.22780  Biso   1.000  H
  H16      1.0000 0.36270  0.69290  0.27220  Biso   1.000  H
  H17      1.0000 0.08460  0.66240  0.70340  Biso   1.000  H
  H18      1.0000 0.91540  0.16240  0.79660  Biso   1.000  H
  H19      1.0000 0.91540  0.33760  0.29660  Biso   1.000  H
  H20      1.0000 0.08460  0.83760  0.20340  Biso   1.000  H
