data_image0
_cell_length_a       14.4883
_cell_length_b       14.4883
_cell_length_c       12.9205
_cell_angle_alpha    90
_cell_angle_beta     90
_cell_angle_gamma    120

_symmetry_space_group_name_H-M    "P 1"
_symmetry_int_tables_number       1

loop_
  _symmetry_equiv_pos_as_xyz
  'x, y, z'

loop_
  _atom_site_label
  _atom_site_occupancy
  _atom_site_fract_x
  _atom_site_fract_y
  _atom_site_fract_z
  _atom_site_thermal_displace_type
  _atom_site_B_iso_or_equiv
  _atom_site_type_symbol
  Cu1      1.0000 0.78122  0.38995  0.34218  Biso   1.000  Cu
  Cu2      1.0000 0.61005  0.39127  0.00885  Biso   1.000  Cu
  Cu3      1.0000 0.60873  0.21878  0.67551  Biso   1.000  Cu
  N1       1.0000 0.71040  0.39090  0.21490  Biso   1.000  N
  N2       1.0000 0.60910  0.31950  0.88157  Biso   1.000  N
  N3       1.0000 0.68050  0.28960  0.54823  Biso   1.000  N
  N4       1.0000 0.89520  0.35080  0.29220  Biso   1.000  N
  N5       1.0000 0.64920  0.54440  0.95887  Biso   1.000  N
  N6       1.0000 0.45560  0.10480  0.62553  Biso   1.000  N
  N7       1.0000 0.92540  0.53420  0.36460  Biso   1.000  N
  N8       1.0000 0.46580  0.39120  0.03127  Biso   1.000  N
  N9       1.0000 0.60880  0.07460  0.69793  Biso   1.000  N
  C1       1.0000 0.67220  0.38700  0.13660  Biso   1.000  C
  C2       1.0000 0.61300  0.28520  0.80327  Biso   1.000  C
  C3       1.0000 0.71480  0.32780  0.46993  Biso   1.000  C
  C4       1.0000 0.87350  0.25700  0.25270  Biso   1.000  C
  C5       1.0000 0.74300  0.61650  0.91937  Biso   1.000  C
  C6       1.0000 0.38350  0.12650  0.58603  Biso   1.000  C
  H1       1.0000 0.80050  0.20480  0.24440  Biso   1.000  H
  H2       1.0000 0.79520  0.59570  0.91107  Biso   1.000  H
  H3       1.0000 0.40430  0.19950  0.57773  Biso   1.000  H
  C7       1.0000 0.94580  0.22980  0.22360  Biso   1.000  C
  C8       1.0000 0.77020  0.71600  0.89027  Biso   1.000  C
  C9       1.0000 0.28400  0.05420  0.55693  Biso   1.000  C
  H4       1.0000 0.92630  0.16010  0.20050  Biso   1.000  H
  H5       1.0000 0.83990  0.76620  0.86717  Biso   1.000  H
  H6       1.0000 0.23380  0.07370  0.53383  Biso   1.000  H
  C10      1.0000 0.05030  0.31040  0.22960  Biso   1.000  C
  C11      1.0000 0.68960  0.73990  0.89627  Biso   1.000  C
  C12      1.0000 0.26010  0.94970  0.56293  Biso   1.000  C
  H7       1.0000 0.10450  0.29620  0.20750  Biso   1.000  H
  H8       1.0000 0.70380  0.80830  0.87417  Biso   1.000  H
  H9       1.0000 0.19170  0.89550  0.54083  Biso   1.000  H
  C13      1.0000 0.08060  0.41350  0.26740  Biso   1.000  C
  C14      1.0000 0.58650  0.66710  0.93407  Biso   1.000  C
  C15      1.0000 0.33290  0.91940  0.60073  Biso   1.000  C
  H10      1.0000 0.15310  0.46830  0.27040  Biso   1.000  H
  H11      1.0000 0.53170  0.68480  0.93707  Biso   1.000  H
  H12      1.0000 0.31520  0.84690  0.60373  Biso   1.000  H
  C16      1.0000 0.11920  0.61920  0.35300  Biso   1.000  C
  C17      1.0000 0.38080  0.50000  0.01967  Biso   1.000  C
  C18      1.0000 0.50000  0.88080  0.68633  Biso   1.000  C
  H13      1.0000 0.18010  0.61280  0.33860  Biso   1.000  H
  H14      1.0000 0.38720  0.56730  0.00527  Biso   1.000  H
  H15      1.0000 0.43270  0.81990  0.67193  Biso   1.000  H
  C19      1.0000 0.12920  0.71250  0.38730  Biso   1.000  C
  C20      1.0000 0.28750  0.41670  0.05397  Biso   1.000  C
  C21      1.0000 0.58330  0.87080  0.72063  Biso   1.000  C
  H16      1.0000 0.19770  0.77360  0.39620  Biso   1.000  H
  H17      1.0000 0.22640  0.42410  0.06287  Biso   1.000  H
  H18      1.0000 0.57590  0.80230  0.72953  Biso   1.000  H
  C22      1.0000 0.03530  0.71720  0.40970  Biso   1.000  C
  C23      1.0000 0.28280  0.31810  0.07637  Biso   1.000  C
  C24      1.0000 0.68190  0.96470  0.74303  Biso   1.000  C
  H19      1.0000 0.03980  0.78240  0.42970  Biso   1.000  H
  H20      1.0000 0.21760  0.25740  0.09637  Biso   1.000  H
  H21      1.0000 0.74260  0.96020  0.76303  Biso   1.000  H
  C25      1.0000 0.93900  0.62620  0.40180  Biso   1.000  C
  C26      1.0000 0.37380  0.31280  0.06847  Biso   1.000  C
  C27      1.0000 0.68720  0.06100  0.73513  Biso   1.000  C
  H22      1.0000 0.87760  0.62830  0.42420  Biso   1.000  H
  H23      1.0000 0.37170  0.24930  0.09087  Biso   1.000  H
  H24      1.0000 0.75070  0.12240  0.75753  Biso   1.000  H
  C28      1.0000 0.99820  0.43040  0.30010  Biso   1.000  C
  C29      1.0000 0.56960  0.56780  0.96677  Biso   1.000  C
  C30      1.0000 0.43220  0.00180  0.63343  Biso   1.000  C
  C31      1.0000 0.01530  0.53230  0.33970  Biso   1.000  C
  C32      1.0000 0.46770  0.48300  0.00637  Biso   1.000  C
  C33      1.0000 0.51700  0.98470  0.67303  Biso   1.000  C
  Cu4      1.0000 0.11456  0.05478  0.31039  Biso   1.000  Cu
  Cu5      1.0000 0.94522  0.05978  0.97706  Biso   1.000  Cu
  Cu6      1.0000 0.94022  0.88544  0.64372  Biso   1.000  Cu
  N10      1.0000 0.04110  0.98220  0.43740  Biso   1.000  N
  N11      1.0000 0.01780  0.05890  0.10407  Biso   1.000  N
  N12      1.0000 0.94110  0.95890  0.77073  Biso   1.000  N
  N13      1.0000 0.26140  0.05850  0.29050  Biso   1.000  N
  N14      1.0000 0.94150  0.20290  0.95717  Biso   1.000  N
  N15      1.0000 0.79710  0.73860  0.62383  Biso   1.000  N
  N16      1.0000 0.22750  0.20790  0.36650  Biso   1.000  N
  N17      1.0000 0.79210  0.01960  0.03317  Biso   1.000  N
  N18      1.0000 0.98040  0.77250  0.69983  Biso   1.000  N
  C34      1.0000 0.00070  0.94700  0.51540  Biso   1.000  C
  C35      1.0000 0.05300  0.05370  0.18207  Biso   1.000  C
  C36      1.0000 0.94630  0.99930  0.84873  Biso   1.000  C
  C37      1.0000 0.27300  0.97740  0.25530  Biso   1.000  C
  C38      1.0000 0.02260  0.29560  0.92197  Biso   1.000  C
  C39      1.0000 0.70440  0.72700  0.58863  Biso   1.000  C
  H25      1.0000 0.21110  0.91010  0.24340  Biso   1.000  H
  H26      1.0000 0.08990  0.30100  0.91007  Biso   1.000  H
  H27      1.0000 0.69900  0.78890  0.57673  Biso   1.000  H
  C40      1.0000 0.36900  0.98860  0.23650  Biso   1.000  C
  C41      1.0000 0.01140  0.38040  0.90317  Biso   1.000  C
  C42      1.0000 0.61960  0.63100  0.56983  Biso   1.000  C
  H28      1.0000 0.37410  0.93010  0.21020  Biso   1.000  H
  H29      1.0000 0.06990  0.44400  0.87687  Biso   1.000  H
  H30      1.0000 0.55600  0.62590  0.54353  Biso   1.000  H
  C43      1.0000 0.45870  0.08280  0.25460  Biso   1.000  C
  C44      1.0000 0.91720  0.37590  0.92127  Biso   1.000  C
  C45      1.0000 0.62410  0.54130  0.58793  Biso   1.000  C
  H31      1.0000 0.52680  0.09120  0.23990  Biso   1.000  H
  H32      1.0000 0.90880  0.43560  0.90657  Biso   1.000  H
  H33      1.0000 0.56440  0.47320  0.57323  Biso   1.000  H
  C46      1.0000 0.44970  0.16750  0.29520  Biso   1.000  C
  C47      1.0000 0.83250  0.28220  0.96187  Biso   1.000  C
  C48      1.0000 0.71780  0.55030  0.62853  Biso   1.000  C
  H34      1.0000 0.51120  0.23340  0.31190  Biso   1.000  H
  H35      1.0000 0.76660  0.27780  0.97857  Biso   1.000  H
  H36      1.0000 0.72220  0.48880  0.64523  Biso   1.000  H
  C49      1.0000 0.40880  0.33550  0.38070  Biso   1.000  C
  C50      1.0000 0.66450  0.07330  0.04737  Biso   1.000  C
  C51      1.0000 0.92670  0.59120  0.71403  Biso   1.000  C
  H37      1.0000 0.48150  0.35410  0.37470  Biso   1.000  H
  H38      1.0000 0.64590  0.12740  0.04137  Biso   1.000  H
  H39      1.0000 0.87260  0.51850  0.70803  Biso   1.000  H
  C52      1.0000 0.38340  0.40940  0.41680  Biso   1.000  C
  C53      1.0000 0.59060  0.97400  0.08347  Biso   1.000  C
  C54      1.0000 0.02600  0.61660  0.75013  Biso   1.000  C
  H40      1.0000 0.43790  0.48070  0.42960  Biso   1.000  H
  H41      1.0000 0.51930  0.95720  0.09627  Biso   1.000  H
  H42      1.0000 0.04280  0.56210  0.76293  Biso   1.000  H
  C55      1.0000 0.28160  0.37980  0.43360  Biso   1.000  C
  C56      1.0000 0.62020  0.90180  0.10027  Biso   1.000  C
  C57      1.0000 0.09820  0.71840  0.76693  Biso   1.000  C
  H43      1.0000 0.26270  0.42770  0.46420  Biso   1.000  H
  H44      1.0000 0.57230  0.83500  0.13087  Biso   1.000  H
  H45      1.0000 0.16500  0.73730  0.79753  Biso   1.000  H
  C58      1.0000 0.20500  0.27940  0.40610  Biso   1.000  C
  C59      1.0000 0.72060  0.92560  0.07277  Biso   1.000  C
  C60      1.0000 0.07440  0.79500  0.73943  Biso   1.000  C
  H46      1.0000 0.13240  0.25950  0.41550  Biso   1.000  H
  H47      1.0000 0.74050  0.87290  0.08217  Biso   1.000  H
  H48      1.0000 0.12710  0.86760  0.74883  Biso   1.000  H
  C61      1.0000 0.35090  0.15250  0.30980  Biso   1.000  C
  C62      1.0000 0.84750  0.19840  0.97647  Biso   1.000  C
  C63      1.0000 0.80160  0.64910  0.64313  Biso   1.000  C
  C64      1.0000 0.33120  0.23660  0.35350  Biso   1.000  C
  C65      1.0000 0.76340  0.09460  0.02017  Biso   1.000  C
  C66      1.0000 0.90540  0.66880  0.68683  Biso   1.000  C
  Cu7      1.0000 0.27974  0.55230  0.67679  Biso   1.000  Cu
  Cu8      1.0000 0.44770  0.72744  0.34346  Biso   1.000  Cu
  Cu9      1.0000 0.27256  0.72026  0.01012  Biso   1.000  Cu
  N19      1.0000 0.35110  0.62670  0.55130  Biso   1.000  N
  N20      1.0000 0.37330  0.72440  0.21797  Biso   1.000  N
  N21      1.0000 0.27560  0.64890  0.88463  Biso   1.000  N
  C67      1.0000 0.38630  0.66480  0.46960  Biso   1.000  C
  C68      1.0000 0.33520  0.72150  0.13627  Biso   1.000  C
  C69      1.0000 0.27850  0.61370  0.80293  Biso   1.000  C
  N22      1.0000 0.13000  0.42930  0.63280  Biso   1.000  N
  N23      1.0000 0.57070  0.70070  0.29947  Biso   1.000  N
  N24      1.0000 0.29930  0.87000  0.96613  Biso   1.000  N
  C70      1.0000 0.05350  0.44980  0.59120  Biso   1.000  C
  C71      1.0000 0.55020  0.60370  0.25787  Biso   1.000  C
  C72      1.0000 0.39630  0.94650  0.92453  Biso   1.000  C
  H49      1.0000 0.07120  0.52100  0.57610  Biso   1.000  H
  H50      1.0000 0.47900  0.55020  0.24277  Biso   1.000  H
  H51      1.0000 0.44980  0.92880  0.90943  Biso   1.000  H
  C73      1.0000 0.95120  0.36620  0.57170  Biso   1.000  C
  C74      1.0000 0.63380  0.58500  0.23837  Biso   1.000  C
  C75      1.0000 0.41500  0.04880  0.90503  Biso   1.000  C
  H52      1.0000 0.89900  0.38020  0.54320  Biso   1.000  H
  H53      1.0000 0.61980  0.51880  0.20987  Biso   1.000  H
  H54      1.0000 0.48120  0.10100  0.87653  Biso   1.000  H
  C76      1.0000 0.92540  0.26210  0.59370  Biso   1.000  C
  C77      1.0000 0.73790  0.66330  0.26037  Biso   1.000  C
  C78      1.0000 0.33670  0.07460  0.92703  Biso   1.000  C
  H55      1.0000 0.85550  0.20500  0.58030  Biso   1.000  H
  H56      1.0000 0.79500  0.65050  0.24697  Biso   1.000  H
  H57      1.0000 0.34950  0.14450  0.91363  Biso   1.000  H
  C79      1.0000 0.00180  0.24160  0.63530  Biso   1.000  C
  C80      1.0000 0.75840  0.76020  0.30197  Biso   1.000  C
  C81      1.0000 0.23980  0.99820  0.96863  Biso   1.000  C
  H58      1.0000 0.98410  0.17040  0.65030  Biso   1.000  H
  H59      1.0000 0.82960  0.81370  0.31697  Biso   1.000  H
  H60      1.0000 0.18630  0.01590  0.98363  Biso   1.000  H
  C82      1.0000 0.10410  0.32510  0.65480  Biso   1.000  C
  C83      1.0000 0.67490  0.77900  0.32147  Biso   1.000  C
  C84      1.0000 0.22100  0.89590  0.98813  Biso   1.000  C
  C85      1.0000 0.18820  0.32020  0.69070  Biso   1.000  C
  C86      1.0000 0.67980  0.86800  0.35737  Biso   1.000  C
  C87      1.0000 0.13200  0.81180  0.02403  Biso   1.000  C
  C88      1.0000 0.17520  0.22070  0.71410  Biso   1.000  C
  C89      1.0000 0.77930  0.95450  0.38077  Biso   1.000  C
  C90      1.0000 0.04550  0.82480  0.04743  Biso   1.000  C
  H61      1.0000 0.10830  0.15820  0.70300  Biso   1.000  H
  H62      1.0000 0.84180  0.95010  0.36967  Biso   1.000  H
  H63      1.0000 0.04990  0.89170  0.03633  Biso   1.000  H
  C91      1.0000 0.26010  0.21280  0.75380  Biso   1.000  C
  C92      1.0000 0.78720  0.04730  0.42047  Biso   1.000  C
  C93      1.0000 0.95270  0.73990  0.08713  Biso   1.000  C
  H64      1.0000 0.25130  0.14480  0.76980  Biso   1.000  H
  H65      1.0000 0.85520  0.10650  0.43647  Biso   1.000  H
  H66      1.0000 0.89350  0.74870  0.10313  Biso   1.000  H
  C94      1.0000 0.35800  0.30420  0.77010  Biso   1.000  C
  C95      1.0000 0.69580  0.05380  0.43677  Biso   1.000  C
  C96      1.0000 0.94620  0.64200  0.10343  Biso   1.000  C
  H67      1.0000 0.41600  0.29880  0.79720  Biso   1.000  H
  H68      1.0000 0.70120  0.11720  0.46387  Biso   1.000  H
  H69      1.0000 0.88280  0.58400  0.13053  Biso   1.000  H
  C97      1.0000 0.37100  0.40370  0.74670  Biso   1.000  C
  C98      1.0000 0.59630  0.96730  0.41337  Biso   1.000  C
  C99      1.0000 0.03270  0.62900  0.08003  Biso   1.000  C
  H70      1.0000 0.43780  0.46620  0.75790  Biso   1.000  H
  H71      1.0000 0.53380  0.97160  0.42457  Biso   1.000  H
  H72      1.0000 0.02840  0.56220  0.09123  Biso   1.000  H
  N25      1.0000 0.28600  0.41170  0.70700  Biso   1.000  N
  N26      1.0000 0.58830  0.87430  0.37367  Biso   1.000  N
  N27      1.0000 0.12570  0.71400  0.04033  Biso   1.000  N
