data_image0
_cell_length_a       9.835
_cell_length_b       21.719
_cell_length_c       10.869
_cell_angle_alpha    90
_cell_angle_beta     102.723
_cell_angle_gamma    90

_symmetry_space_group_name_H-M    "P 1"
_symmetry_int_tables_number       1

loop_
  _symmetry_equiv_pos_as_xyz
  'x, y, z'

loop_
  _atom_site_label
  _atom_site_occupancy
  _atom_site_fract_x
  _atom_site_fract_y
  _atom_site_fract_z
  _atom_site_thermal_displace_type
  _atom_site_B_iso_or_equiv
  _atom_site_type_symbol
  C1       1.0000 0.06730  0.35710  0.24510  Biso   1.000  C
  C2       1.0000 0.93270  0.35710  0.25490  Biso   1.000  C
  C3       1.0000 0.56730  0.85710  0.24510  Biso   1.000  C
  C4       1.0000 0.43270  0.85710  0.25490  Biso   1.000  C
  C5       1.0000 0.93270  0.64290  0.75490  Biso   1.000  C
  C6       1.0000 0.06730  0.64290  0.74510  Biso   1.000  C
  C7       1.0000 0.43270  0.14290  0.75490  Biso   1.000  C
  C8       1.0000 0.56730  0.14290  0.74510  Biso   1.000  C
  C9       1.0000 0.00000  0.26330  0.25000  Biso   1.000  C
  C10      1.0000 0.50000  0.76330  0.25000  Biso   1.000  C
  C11      1.0000 0.00000  0.73670  0.75000  Biso   1.000  C
  C12      1.0000 0.50000  0.23670  0.75000  Biso   1.000  C
  C13      1.0000 0.72590  0.13050  0.27480  Biso   1.000  C
  C14      1.0000 0.27410  0.13050  0.22520  Biso   1.000  C
  C15      1.0000 0.22590  0.63050  0.27480  Biso   1.000  C
  C16      1.0000 0.77410  0.63050  0.22520  Biso   1.000  C
  C17      1.0000 0.27410  0.86950  0.72520  Biso   1.000  C
  C18      1.0000 0.72590  0.86950  0.77480  Biso   1.000  C
  C19      1.0000 0.77410  0.36950  0.72520  Biso   1.000  C
  C20      1.0000 0.22590  0.36950  0.77480  Biso   1.000  C
  C21      1.0000 0.77960  0.07720  0.22990  Biso   1.000  C
  C22      1.0000 0.22040  0.07720  0.27010  Biso   1.000  C
  C23      1.0000 0.27960  0.57720  0.22990  Biso   1.000  C
  C24      1.0000 0.72040  0.57720  0.27010  Biso   1.000  C
  C25      1.0000 0.22040  0.92280  0.77010  Biso   1.000  C
  C26      1.0000 0.77960  0.92280  0.72990  Biso   1.000  C
  C27      1.0000 0.72040  0.42280  0.77010  Biso   1.000  C
  C28      1.0000 0.27960  0.42280  0.72990  Biso   1.000  C
  C29      1.0000 0.75850  0.01960  0.27450  Biso   1.000  C
  C30      1.0000 0.24150  0.01960  0.22550  Biso   1.000  C
  C31      1.0000 0.25850  0.51960  0.27450  Biso   1.000  C
  C32      1.0000 0.74150  0.51960  0.22550  Biso   1.000  C
  C33      1.0000 0.24150  0.98040  0.72550  Biso   1.000  C
  C34      1.0000 0.75850  0.98040  0.77450  Biso   1.000  C
  C35      1.0000 0.74150  0.48040  0.72550  Biso   1.000  C
  C36      1.0000 0.25850  0.48040  0.77450  Biso   1.000  C
  C37      1.0000 0.68220  0.01240  0.36710  Biso   1.000  C
  C38      1.0000 0.31780  0.01240  0.13290  Biso   1.000  C
  C39      1.0000 0.18220  0.51240  0.36710  Biso   1.000  C
  C40      1.0000 0.81780  0.51240  0.13290  Biso   1.000  C
  C41      1.0000 0.31780  0.98760  0.63290  Biso   1.000  C
  C42      1.0000 0.68220  0.98760  0.86710  Biso   1.000  C
  C43      1.0000 0.81780  0.48760  0.63290  Biso   1.000  C
  C44      1.0000 0.18220  0.48760  0.86710  Biso   1.000  C
  C45      1.0000 0.62580  0.06300  0.41040  Biso   1.000  C
  C46      1.0000 0.37420  0.06300  0.08960  Biso   1.000  C
  C47      1.0000 0.12580  0.56300  0.41040  Biso   1.000  C
  C48      1.0000 0.87420  0.56300  0.08960  Biso   1.000  C
  C49      1.0000 0.37420  0.93700  0.58960  Biso   1.000  C
  C50      1.0000 0.62580  0.93700  0.91040  Biso   1.000  C
  C51      1.0000 0.87420  0.43700  0.58960  Biso   1.000  C
  C52      1.0000 0.12580  0.43700  0.91040  Biso   1.000  C
  C53      1.0000 0.64440  0.12260  0.36670  Biso   1.000  C
  C54      1.0000 0.35560  0.12260  0.13330  Biso   1.000  C
  C55      1.0000 0.14440  0.62260  0.36670  Biso   1.000  C
  C56      1.0000 0.85560  0.62260  0.13330  Biso   1.000  C
  C57      1.0000 0.35560  0.87740  0.63330  Biso   1.000  C
  C58      1.0000 0.64440  0.87740  0.86670  Biso   1.000  C
  C59      1.0000 0.85560  0.37740  0.63330  Biso   1.000  C
  C60      1.0000 0.14440  0.37740  0.86670  Biso   1.000  C
  C61      1.0000 0.57550  0.17250  0.41510  Biso   1.000  C
  C62      1.0000 0.42450  0.17250  0.08490  Biso   1.000  C
  C63      1.0000 0.07550  0.67250  0.41510  Biso   1.000  C
  C64      1.0000 0.92450  0.67250  0.08490  Biso   1.000  C
  C65      1.0000 0.42450  0.82750  0.58490  Biso   1.000  C
  C66      1.0000 0.57550  0.82750  0.91510  Biso   1.000  C
  C67      1.0000 0.92450  0.32750  0.58490  Biso   1.000  C
  C68      1.0000 0.07550  0.32750  0.91510  Biso   1.000  C
  C69      1.0000 0.55630  0.32910  0.41100  Biso   1.000  C
  C70      1.0000 0.44370  0.32910  0.08900  Biso   1.000  C
  C71      1.0000 0.05630  0.82910  0.41100  Biso   1.000  C
  C72      1.0000 0.94370  0.82910  0.08900  Biso   1.000  C
  C73      1.0000 0.44370  0.67090  0.58900  Biso   1.000  C
  C74      1.0000 0.55630  0.67090  0.91100  Biso   1.000  C
  C75      1.0000 0.94370  0.17090  0.58900  Biso   1.000  C
  C76      1.0000 0.05630  0.17090  0.91100  Biso   1.000  C
  C77      1.0000 0.48510  0.38390  0.45040  Biso   1.000  C
  C78      1.0000 0.51490  0.38390  0.04960  Biso   1.000  C
  C79      1.0000 0.98510  0.88390  0.45040  Biso   1.000  C
  C80      1.0000 0.01490  0.88390  0.04960  Biso   1.000  C
  C81      1.0000 0.51490  0.61610  0.54960  Biso   1.000  C
  C82      1.0000 0.48510  0.61610  0.95040  Biso   1.000  C
  C83      1.0000 0.01490  0.11610  0.54960  Biso   1.000  C
  C84      1.0000 0.98510  0.11610  0.95040  Biso   1.000  C
  N1       1.0000 0.11130  0.29690  0.24300  Biso   1.000  N
  N2       1.0000 0.88870  0.29690  0.25700  Biso   1.000  N
  N3       1.0000 0.61130  0.79690  0.24300  Biso   1.000  N
  N4       1.0000 0.38870  0.79690  0.25700  Biso   1.000  N
  N5       1.0000 0.88870  0.70310  0.75700  Biso   1.000  N
  N6       1.0000 0.11130  0.70310  0.74300  Biso   1.000  N
  N7       1.0000 0.38870  0.20310  0.75700  Biso   1.000  N
  N8       1.0000 0.61130  0.20310  0.74300  Biso   1.000  N
  N9       1.0000 0.59240  0.22960  0.39100  Biso   1.000  N
  N10      1.0000 0.40760  0.22960  0.10900  Biso   1.000  N
  N11      1.0000 0.09240  0.72960  0.39100  Biso   1.000  N
  N12      1.0000 0.90760  0.72960  0.10900  Biso   1.000  N
  N13      1.0000 0.40760  0.77040  0.60900  Biso   1.000  N
  N14      1.0000 0.59240  0.77040  0.89100  Biso   1.000  N
  N15      1.0000 0.90760  0.27040  0.60900  Biso   1.000  N
  N16      1.0000 0.09240  0.27040  0.89100  Biso   1.000  N
  N17      1.0000 0.51360  0.27410  0.43780  Biso   1.000  N
  N18      1.0000 0.48640  0.27410  0.06220  Biso   1.000  N
  N19      1.0000 0.01360  0.77410  0.43780  Biso   1.000  N
  N20      1.0000 0.98640  0.77410  0.06220  Biso   1.000  N
  N21      1.0000 0.48640  0.72590  0.56220  Biso   1.000  N
  N22      1.0000 0.51360  0.72590  0.93780  Biso   1.000  N
  N23      1.0000 0.98640  0.22590  0.56220  Biso   1.000  N
  N24      1.0000 0.01360  0.22590  0.93780  Biso   1.000  N
  O1       1.0000 0.75300  0.18450  0.22960  Biso   1.000  O
  O2       1.0000 0.24700  0.18450  0.27040  Biso   1.000  O
  O3       1.0000 0.25300  0.68450  0.22960  Biso   1.000  O
  O4       1.0000 0.74700  0.68450  0.27040  Biso   1.000  O
  O5       1.0000 0.24700  0.81550  0.77040  Biso   1.000  O
  O6       1.0000 0.75300  0.81550  0.72960  Biso   1.000  O
  O7       1.0000 0.74700  0.31550  0.77040  Biso   1.000  O
  O8       1.0000 0.25300  0.31550  0.72960  Biso   1.000  O
  O9       1.0000 0.65390  0.33910  0.35230  Biso   1.000  O
  O10      1.0000 0.34610  0.33910  0.14770  Biso   1.000  O
  O11      1.0000 0.15390  0.83910  0.35230  Biso   1.000  O
  O12      1.0000 0.84610  0.83910  0.14770  Biso   1.000  O
  O13      1.0000 0.34610  0.66090  0.64770  Biso   1.000  O
  O14      1.0000 0.65390  0.66090  0.85230  Biso   1.000  O
  O15      1.0000 0.84610  0.16090  0.64770  Biso   1.000  O
  O16      1.0000 0.15390  0.16090  0.85230  Biso   1.000  O
  K1       1.0000 0.25000  0.25000  0.50000  Biso   1.000  K
  K2       1.0000 0.75000  0.25000  0.00000  Biso   1.000  K
  K3       1.0000 0.75000  0.75000  0.50000  Biso   1.000  K
  K4       1.0000 0.25000  0.75000  0.00000  Biso   1.000  K
  Cu1      1.0000 0.27500  0.26180  0.19640  Biso   1.000  Cu
  Cu2      1.0000 0.72500  0.26180  0.30360  Biso   1.000  Cu
  Cu3      1.0000 0.77500  0.76180  0.19640  Biso   1.000  Cu
  Cu4      1.0000 0.22500  0.76180  0.30360  Biso   1.000  Cu
  Cu5      1.0000 0.72500  0.73820  0.80360  Biso   1.000  Cu
  Cu6      1.0000 0.27500  0.73820  0.69640  Biso   1.000  Cu
  Cu7      1.0000 0.22500  0.23820  0.80360  Biso   1.000  Cu
  Cu8      1.0000 0.77500  0.23820  0.69640  Biso   1.000  Cu
  H1       1.0000 0.12300  0.38950  0.23900  Biso   1.000  H
  H2       1.0000 0.87700  0.38950  0.26100  Biso   1.000  H
  H3       1.0000 0.62300  0.88950  0.23900  Biso   1.000  H
  H4       1.0000 0.37700  0.88950  0.26100  Biso   1.000  H
  H5       1.0000 0.87700  0.61050  0.76100  Biso   1.000  H
  H6       1.0000 0.12300  0.61050  0.73900  Biso   1.000  H
  H7       1.0000 0.37700  0.11050  0.76100  Biso   1.000  H
  H8       1.0000 0.62300  0.11050  0.73900  Biso   1.000  H
  H9       1.0000 0.00000  0.21640  0.25000  Biso   1.000  H
  H10      1.0000 0.50000  0.71640  0.25000  Biso   1.000  H
  H11      1.0000 0.00000  0.78360  0.75000  Biso   1.000  H
  H12      1.0000 0.50000  0.28360  0.75000  Biso   1.000  H
  H13      1.0000 0.84000  0.08440  0.17400  Biso   1.000  H
  H14      1.0000 0.16000  0.08440  0.32600  Biso   1.000  H
  H15      1.0000 0.34000  0.58440  0.17400  Biso   1.000  H
  H16      1.0000 0.66000  0.58440  0.32600  Biso   1.000  H
  H17      1.0000 0.16000  0.91560  0.82600  Biso   1.000  H
  H18      1.0000 0.84000  0.91560  0.67400  Biso   1.000  H
  H19      1.0000 0.66000  0.41560  0.82600  Biso   1.000  H
  H20      1.0000 0.34000  0.41560  0.67400  Biso   1.000  H
  H21      1.0000 0.79600  0.98830  0.24400  Biso   1.000  H
  H22      1.0000 0.20400  0.98830  0.25600  Biso   1.000  H
  H23      1.0000 0.29600  0.48830  0.24400  Biso   1.000  H
  H24      1.0000 0.70400  0.48830  0.25600  Biso   1.000  H
  H25      1.0000 0.20400  0.01170  0.75600  Biso   1.000  H
  H26      1.0000 0.79600  0.01170  0.74400  Biso   1.000  H
  H27      1.0000 0.70400  0.51170  0.75600  Biso   1.000  H
  H28      1.0000 0.29600  0.51170  0.74400  Biso   1.000  H
  H29      1.0000 0.67000  0.97530  0.39800  Biso   1.000  H
  H30      1.0000 0.33000  0.97530  0.10200  Biso   1.000  H
  H31      1.0000 0.17000  0.47530  0.39800  Biso   1.000  H
  H32      1.0000 0.83000  0.47530  0.10200  Biso   1.000  H
  H33      1.0000 0.33000  0.02470  0.60200  Biso   1.000  H
  H34      1.0000 0.67000  0.02470  0.89800  Biso   1.000  H
  H35      1.0000 0.83000  0.52470  0.60200  Biso   1.000  H
  H36      1.0000 0.17000  0.52470  0.89800  Biso   1.000  H
  H37      1.0000 0.57300  0.05990  0.47100  Biso   1.000  H
  H38      1.0000 0.42700  0.05990  0.02900  Biso   1.000  H
  H39      1.0000 0.07300  0.55990  0.47100  Biso   1.000  H
  H40      1.0000 0.92700  0.55990  0.02900  Biso   1.000  H
  H41      1.0000 0.42700  0.94010  0.52900  Biso   1.000  H
  H42      1.0000 0.57300  0.94010  0.97100  Biso   1.000  H
  H43      1.0000 0.92700  0.44010  0.52900  Biso   1.000  H
  H44      1.0000 0.07300  0.44010  0.97100  Biso   1.000  H
  H45      1.0000 0.50700  0.16240  0.46700  Biso   1.000  H
  H46      1.0000 0.49300  0.16240  0.03300  Biso   1.000  H
  H47      1.0000 0.00700  0.66240  0.46700  Biso   1.000  H
  H48      1.0000 0.99300  0.66240  0.03300  Biso   1.000  H
  H49      1.0000 0.49300  0.83760  0.53300  Biso   1.000  H
  H50      1.0000 0.50700  0.83760  0.96700  Biso   1.000  H
  H51      1.0000 0.99300  0.33760  0.53300  Biso   1.000  H
  H52      1.0000 0.00700  0.33760  0.96700  Biso   1.000  H
  H53      1.0000 0.55300  0.41310  0.49100  Biso   1.000  H
  H54      1.0000 0.44700  0.41310  0.00900  Biso   1.000  H
  H55      1.0000 0.05300  0.91310  0.49100  Biso   1.000  H
  H56      1.0000 0.94700  0.91310  0.00900  Biso   1.000  H
  H57      1.0000 0.44700  0.58690  0.50900  Biso   1.000  H
  H58      1.0000 0.55300  0.58690  0.99100  Biso   1.000  H
  H59      1.0000 0.94700  0.08690  0.50900  Biso   1.000  H
  H60      1.0000 0.05300  0.08690  0.99100  Biso   1.000  H
  H61      1.0000 0.43000  0.37460  0.49200  Biso   1.000  H
  H62      1.0000 0.57000  0.37460  0.00800  Biso   1.000  H
  H63      1.0000 0.93000  0.87460  0.49200  Biso   1.000  H
  H64      1.0000 0.07000  0.87460  0.00800  Biso   1.000  H
  H65      1.0000 0.57000  0.62540  0.50800  Biso   1.000  H
  H66      1.0000 0.43000  0.62540  0.99200  Biso   1.000  H
  H67      1.0000 0.07000  0.12540  0.50800  Biso   1.000  H
  H68      1.0000 0.93000  0.12540  0.99200  Biso   1.000  H
  H69      1.0000 0.43600  0.40630  0.37700  Biso   1.000  H
  H70      1.0000 0.56400  0.40630  0.12300  Biso   1.000  H
  H71      1.0000 0.93600  0.90630  0.37700  Biso   1.000  H
  H72      1.0000 0.06400  0.90630  0.12300  Biso   1.000  H
  H73      1.0000 0.56400  0.59370  0.62300  Biso   1.000  H
  H74      1.0000 0.43600  0.59370  0.87700  Biso   1.000  H
  H75      1.0000 0.06400  0.09370  0.62300  Biso   1.000  H
  H76      1.0000 0.93600  0.09370  0.87700  Biso   1.000  H
