data_image0
_cell_length_a       32.4781
_cell_length_b       6.3911
_cell_length_c       22.9635
_cell_angle_alpha    90
_cell_angle_beta     130.017
_cell_angle_gamma    90

_symmetry_space_group_name_H-M    "P 1"
_symmetry_int_tables_number       1

loop_
  _symmetry_equiv_pos_as_xyz
  'x, y, z'

loop_
  _atom_site_label
  _atom_site_occupancy
  _atom_site_fract_x
  _atom_site_fract_y
  _atom_site_fract_z
  _atom_site_thermal_displace_type
  _atom_site_B_iso_or_equiv
  _atom_site_type_symbol
  C1       1.0000 0.90192  0.08010  0.38399  Biso   1.000  C
  C2       1.0000 0.09808  0.08010  0.11601  Biso   1.000  C
  C3       1.0000 0.40192  0.58010  0.38399  Biso   1.000  C
  C4       1.0000 0.59808  0.58010  0.11601  Biso   1.000  C
  C5       1.0000 0.09808  0.91990  0.61601  Biso   1.000  C
  C6       1.0000 0.90192  0.91990  0.88399  Biso   1.000  C
  C7       1.0000 0.59808  0.41990  0.61601  Biso   1.000  C
  C8       1.0000 0.40192  0.41990  0.88399  Biso   1.000  C
  C9       1.0000 0.84156  0.08750  0.32066  Biso   1.000  C
  C10      1.0000 0.15844  0.08750  0.17934  Biso   1.000  C
  C11      1.0000 0.34156  0.58750  0.32066  Biso   1.000  C
  C12      1.0000 0.65844  0.58750  0.17934  Biso   1.000  C
  C13      1.0000 0.15844  0.91250  0.67934  Biso   1.000  C
  C14      1.0000 0.84156  0.91250  0.82066  Biso   1.000  C
  C15      1.0000 0.65844  0.41250  0.67934  Biso   1.000  C
  C16      1.0000 0.34156  0.41250  0.82066  Biso   1.000  C
  C17      1.0000 0.82371  0.03300  0.24200  Biso   1.000  C
  C18      1.0000 0.17629  0.03300  0.25800  Biso   1.000  C
  C19      1.0000 0.32371  0.53300  0.24200  Biso   1.000  C
  C20      1.0000 0.67629  0.53300  0.25800  Biso   1.000  C
  C21      1.0000 0.17629  0.96700  0.75800  Biso   1.000  C
  C22      1.0000 0.82371  0.96700  0.74200  Biso   1.000  C
  C23      1.0000 0.67629  0.46700  0.75800  Biso   1.000  C
  C24      1.0000 0.32371  0.46700  0.74200  Biso   1.000  C
  C25      1.0000 0.84979  0.82850  0.24480  Biso   1.000  C
  C26      1.0000 0.15021  0.82850  0.25520  Biso   1.000  C
  C27      1.0000 0.34979  0.32850  0.24480  Biso   1.000  C
  C28      1.0000 0.65021  0.32850  0.25520  Biso   1.000  C
  C29      1.0000 0.15021  0.17150  0.75520  Biso   1.000  C
  C30      1.0000 0.84979  0.17150  0.74480  Biso   1.000  C
  C31      1.0000 0.65021  0.67150  0.75520  Biso   1.000  C
  C32      1.0000 0.34979  0.67150  0.74480  Biso   1.000  C
  C33      1.0000 0.83003  0.77530  0.16561  Biso   1.000  C
  C34      1.0000 0.16997  0.77530  0.33439  Biso   1.000  C
  C35      1.0000 0.33003  0.27530  0.16561  Biso   1.000  C
  C36      1.0000 0.66997  0.27530  0.33439  Biso   1.000  C
  C37      1.0000 0.16997  0.22470  0.83439  Biso   1.000  C
  C38      1.0000 0.83003  0.22470  0.66561  Biso   1.000  C
  C39      1.0000 0.66997  0.72470  0.83439  Biso   1.000  C
  C40      1.0000 0.33003  0.72470  0.66561  Biso   1.000  C
  C41      1.0000 0.76886  0.74830  0.11082  Biso   1.000  C
  C42      1.0000 0.23114  0.74830  0.38918  Biso   1.000  C
  C43      1.0000 0.26886  0.24830  0.11082  Biso   1.000  C
  C44      1.0000 0.73114  0.24830  0.38918  Biso   1.000  C
  C45      1.0000 0.23114  0.25170  0.88918  Biso   1.000  C
  C46      1.0000 0.76886  0.25170  0.61082  Biso   1.000  C
  C47      1.0000 0.73114  0.75170  0.88918  Biso   1.000  C
  C48      1.0000 0.26886  0.75170  0.61082  Biso   1.000  C
  C49      1.0000 0.74146  0.95170  0.10572  Biso   1.000  C
  C50      1.0000 0.25854  0.95170  0.39428  Biso   1.000  C
  C51      1.0000 0.24146  0.45170  0.10572  Biso   1.000  C
  C52      1.0000 0.75854  0.45170  0.39428  Biso   1.000  C
  C53      1.0000 0.25854  0.04830  0.89428  Biso   1.000  C
  C54      1.0000 0.74146  0.04830  0.60572  Biso   1.000  C
  C55      1.0000 0.75854  0.54830  0.89428  Biso   1.000  C
  C56      1.0000 0.24146  0.54830  0.60572  Biso   1.000  C
  C57      1.0000 0.76223  0.00560  0.18569  Biso   1.000  C
  C58      1.0000 0.23777  0.00560  0.31431  Biso   1.000  C
  C59      1.0000 0.26223  0.50560  0.18569  Biso   1.000  C
  C60      1.0000 0.73777  0.50560  0.31431  Biso   1.000  C
  C61      1.0000 0.23777  0.99440  0.81431  Biso   1.000  C
  C62      1.0000 0.76223  0.99440  0.68569  Biso   1.000  C
  C63      1.0000 0.73777  0.49440  0.81431  Biso   1.000  C
  C64      1.0000 0.26223  0.49440  0.68569  Biso   1.000  C
  C65      1.0000 0.75760  0.12640  0.07809  Biso   1.000  C
  C66      1.0000 0.24240  0.12640  0.42191  Biso   1.000  C
  C67      1.0000 0.25760  0.62640  0.07809  Biso   1.000  C
  C68      1.0000 0.74240  0.62640  0.42191  Biso   1.000  C
  C69      1.0000 0.24240  0.87360  0.92191  Biso   1.000  C
  C70      1.0000 0.75760  0.87360  0.57809  Biso   1.000  C
  C71      1.0000 0.74240  0.37360  0.92191  Biso   1.000  C
  C72      1.0000 0.25760  0.37360  0.57809  Biso   1.000  C
  C73      1.0000 0.81854  0.15440  0.13328  Biso   1.000  C
  C74      1.0000 0.18146  0.15440  0.36672  Biso   1.000  C
  C75      1.0000 0.31854  0.65440  0.13328  Biso   1.000  C
  C76      1.0000 0.68146  0.65440  0.36672  Biso   1.000  C
  C77      1.0000 0.18146  0.84560  0.86672  Biso   1.000  C
  C78      1.0000 0.81854  0.84560  0.63328  Biso   1.000  C
  C79      1.0000 0.68146  0.34560  0.86672  Biso   1.000  C
  C80      1.0000 0.31854  0.34560  0.63328  Biso   1.000  C
  C81      1.0000 0.83817  0.20880  0.21244  Biso   1.000  C
  C82      1.0000 0.16183  0.20880  0.28756  Biso   1.000  C
  C83      1.0000 0.33817  0.70880  0.21244  Biso   1.000  C
  C84      1.0000 0.66183  0.70880  0.28756  Biso   1.000  C
  C85      1.0000 0.16183  0.79120  0.78756  Biso   1.000  C
  C86      1.0000 0.83817  0.79120  0.71244  Biso   1.000  C
  C87      1.0000 0.66183  0.29120  0.78756  Biso   1.000  C
  C88      1.0000 0.33817  0.29120  0.71244  Biso   1.000  C
  C89      1.0000 0.84523  0.95130  0.13776  Biso   1.000  C
  C90      1.0000 0.15477  0.95130  0.36224  Biso   1.000  C
  C91      1.0000 0.34523  0.45130  0.13776  Biso   1.000  C
  C92      1.0000 0.65477  0.45130  0.36224  Biso   1.000  C
  C93      1.0000 0.15477  0.04870  0.86224  Biso   1.000  C
  C94      1.0000 0.84523  0.04870  0.63776  Biso   1.000  C
  C95      1.0000 0.65477  0.54870  0.86224  Biso   1.000  C
  C96      1.0000 0.34523  0.54870  0.63776  Biso   1.000  C
  C97      1.0000 0.67997  0.91540  0.04923  Biso   1.000  C
  C98      1.0000 0.32003  0.91540  0.45077  Biso   1.000  C
  C99      1.0000 0.17997  0.41540  0.04923  Biso   1.000  C
  C100     1.0000 0.82003  0.41540  0.45077  Biso   1.000  C
  C101     1.0000 0.32003  0.08460  0.95077  Biso   1.000  C
  C102     1.0000 0.67997  0.08460  0.54923  Biso   1.000  C
  C103     1.0000 0.82003  0.58460  0.95077  Biso   1.000  C
  C104     1.0000 0.17997  0.58460  0.54923  Biso   1.000  C
  C105     1.0000 0.64788  0.10170  0.03928  Biso   1.000  C
  C106     1.0000 0.35212  0.10170  0.46072  Biso   1.000  C
  C107     1.0000 0.14788  0.60170  0.03928  Biso   1.000  C
  C108     1.0000 0.85212  0.60170  0.46072  Biso   1.000  C
  C109     1.0000 0.35212  0.89830  0.96072  Biso   1.000  C
  C110     1.0000 0.64788  0.89830  0.53928  Biso   1.000  C
  C111     1.0000 0.85212  0.39830  0.96072  Biso   1.000  C
  C112     1.0000 0.14788  0.39830  0.53928  Biso   1.000  C
  C113     1.0000 0.01024  0.36280  0.58788  Biso   1.000  C
  C114     1.0000 0.98976  0.36280  0.91212  Biso   1.000  C
  C115     1.0000 0.51024  0.86280  0.58788  Biso   1.000  C
  C116     1.0000 0.48976  0.86280  0.91212  Biso   1.000  C
  C117     1.0000 0.98976  0.63720  0.41212  Biso   1.000  C
  C118     1.0000 0.01024  0.63720  0.08788  Biso   1.000  C
  C119     1.0000 0.48976  0.13720  0.41212  Biso   1.000  C
  C120     1.0000 0.51024  0.13720  0.08788  Biso   1.000  C
  C121     1.0000 0.96021  0.09640  0.58047  Biso   1.000  C
  C122     1.0000 0.03979  0.09640  0.91953  Biso   1.000  C
  C123     1.0000 0.46021  0.59640  0.58047  Biso   1.000  C
  C124     1.0000 0.53979  0.59640  0.91953  Biso   1.000  C
  C125     1.0000 0.03979  0.90360  0.41953  Biso   1.000  C
  C126     1.0000 0.96021  0.90360  0.08047  Biso   1.000  C
  C127     1.0000 0.53979  0.40360  0.41953  Biso   1.000  C
  C128     1.0000 0.46021  0.40360  0.08047  Biso   1.000  C
  C129     1.0000 0.00097  0.48610  0.62751  Biso   1.000  C
  C130     1.0000 0.99903  0.48610  0.87249  Biso   1.000  C
  C131     1.0000 0.50097  0.98610  0.62751  Biso   1.000  C
  C132     1.0000 0.49903  0.98610  0.87249  Biso   1.000  C
  C133     1.0000 0.99903  0.51390  0.37249  Biso   1.000  C
  C134     1.0000 0.00097  0.51390  0.12751  Biso   1.000  C
  C135     1.0000 0.49903  0.01390  0.37249  Biso   1.000  C
  C136     1.0000 0.50097  0.01390  0.12751  Biso   1.000  C
  C137     1.0000 0.95009  0.21050  0.62062  Biso   1.000  C
  C138     1.0000 0.04991  0.21050  0.87938  Biso   1.000  C
  C139     1.0000 0.45009  0.71050  0.62062  Biso   1.000  C
  C140     1.0000 0.54991  0.71050  0.87938  Biso   1.000  C
  C141     1.0000 0.04991  0.78950  0.37938  Biso   1.000  C
  C142     1.0000 0.95009  0.78950  0.12062  Biso   1.000  C
  C143     1.0000 0.54991  0.28950  0.37938  Biso   1.000  C
  C144     1.0000 0.45009  0.28950  0.12062  Biso   1.000  C
  C145     1.0000 0.96960  0.41220  0.64450  Biso   1.000  C
  C146     1.0000 0.03040  0.41220  0.85550  Biso   1.000  C
  C147     1.0000 0.46960  0.91220  0.64450  Biso   1.000  C
  C148     1.0000 0.53040  0.91220  0.85550  Biso   1.000  C
  C149     1.0000 0.03040  0.58780  0.35550  Biso   1.000  C
  C150     1.0000 0.96960  0.58780  0.14450  Biso   1.000  C
  C151     1.0000 0.53040  0.08780  0.35550  Biso   1.000  C
  C152     1.0000 0.46960  0.08780  0.14450  Biso   1.000  C
  C153     1.0000 0.95479  0.54500  0.68319  Biso   1.000  C
  C154     1.0000 0.04521  0.54500  0.81681  Biso   1.000  C
  C155     1.0000 0.45479  0.04500  0.68319  Biso   1.000  C
  C156     1.0000 0.54521  0.04500  0.81681  Biso   1.000  C
  C157     1.0000 0.04521  0.45500  0.31681  Biso   1.000  C
  C158     1.0000 0.95479  0.45500  0.18319  Biso   1.000  C
  C159     1.0000 0.54521  0.95500  0.31681  Biso   1.000  C
  C160     1.0000 0.45479  0.95500  0.18319  Biso   1.000  C
  C161     1.0000 0.00000  0.67380  0.75000  Biso   1.000  C
  C162     1.0000 0.50000  0.17380  0.75000  Biso   1.000  C
  C163     1.0000 0.00000  0.32620  0.25000  Biso   1.000  C
  C164     1.0000 0.50000  0.82620  0.25000  Biso   1.000  C
  N1       1.0000 0.98998  0.16960  0.56342  Biso   1.000  N
  N2       1.0000 0.01002  0.16960  0.93658  Biso   1.000  N
  N3       1.0000 0.48998  0.66960  0.56342  Biso   1.000  N
  N4       1.0000 0.51002  0.66960  0.93658  Biso   1.000  N
  N5       1.0000 0.01002  0.83040  0.43658  Biso   1.000  N
  N6       1.0000 0.98998  0.83040  0.06342  Biso   1.000  N
  N7       1.0000 0.51002  0.33040  0.43658  Biso   1.000  N
  N8       1.0000 0.48998  0.33040  0.06342  Biso   1.000  N
  O1       1.0000 0.92161  0.92420  0.43052  Biso   1.000  O
  O2       1.0000 0.07839  0.92420  0.06948  Biso   1.000  O
  O3       1.0000 0.42161  0.42420  0.43052  Biso   1.000  O
  O4       1.0000 0.57839  0.42420  0.06948  Biso   1.000  O
  O5       1.0000 0.07839  0.07580  0.56948  Biso   1.000  O
  O6       1.0000 0.92161  0.07580  0.93052  Biso   1.000  O
  O7       1.0000 0.57839  0.57580  0.56948  Biso   1.000  O
  O8       1.0000 0.42161  0.57580  0.93052  Biso   1.000  O
  O9       1.0000 0.93157  0.21580  0.39049  Biso   1.000  O
  O10      1.0000 0.06843  0.21580  0.10951  Biso   1.000  O
  O11      1.0000 0.43157  0.71580  0.39049  Biso   1.000  O
  O12      1.0000 0.56843  0.71580  0.10951  Biso   1.000  O
  O13      1.0000 0.06843  0.78420  0.60951  Biso   1.000  O
  O14      1.0000 0.93157  0.78420  0.89049  Biso   1.000  O
  O15      1.0000 0.56843  0.28420  0.60951  Biso   1.000  O
  O16      1.0000 0.43157  0.28420  0.89049  Biso   1.000  O
  O17      1.0000 0.63485  0.09570  0.08310  Biso   1.000  O
  O18      1.0000 0.36515  0.09570  0.41690  Biso   1.000  O
  O19      1.0000 0.13485  0.59570  0.08310  Biso   1.000  O
  O20      1.0000 0.86515  0.59570  0.41690  Biso   1.000  O
  O21      1.0000 0.36515  0.90430  0.91690  Biso   1.000  O
  O22      1.0000 0.63485  0.90430  0.58310  Biso   1.000  O
  O23      1.0000 0.86515  0.40430  0.91690  Biso   1.000  O
  O24      1.0000 0.13485  0.40430  0.58310  Biso   1.000  O
  O25      1.0000 0.63516  0.24290  0.99623  Biso   1.000  O
  O26      1.0000 0.36484  0.24290  0.50377  Biso   1.000  O
  O27      1.0000 0.13516  0.74290  0.99623  Biso   1.000  O
  O28      1.0000 0.86484  0.74290  0.50377  Biso   1.000  O
  O29      1.0000 0.36484  0.75710  0.00377  Biso   1.000  O
  O30      1.0000 0.63516  0.75710  0.49623  Biso   1.000  O
  O31      1.0000 0.86484  0.25710  0.00377  Biso   1.000  O
  O32      1.0000 0.13516  0.25710  0.49623  Biso   1.000  O
  Cu1      1.0000 0.00000  0.00000  0.50000  Biso   1.000  Cu
  Cu2      1.0000 0.00000  0.00000  0.00000  Biso   1.000  Cu
  Cu3      1.0000 0.50000  0.50000  0.50000  Biso   1.000  Cu
  Cu4      1.0000 0.50000  0.50000  0.00000  Biso   1.000  Cu
  H1       1.0000 0.82990  0.22800  0.31940  Biso   1.000  H
  H2       1.0000 0.17010  0.22800  0.18060  Biso   1.000  H
  H3       1.0000 0.32990  0.72800  0.31940  Biso   1.000  H
  H4       1.0000 0.67010  0.72800  0.18060  Biso   1.000  H
  H5       1.0000 0.17010  0.77200  0.68060  Biso   1.000  H
  H6       1.0000 0.82990  0.77200  0.81940  Biso   1.000  H
  H7       1.0000 0.67010  0.27200  0.68060  Biso   1.000  H
  H8       1.0000 0.32990  0.27200  0.81940  Biso   1.000  H
  H9       1.0000 0.82400  0.99500  0.33070  Biso   1.000  H
  H10      1.0000 0.17600  0.99500  0.16930  Biso   1.000  H
  H11      1.0000 0.32400  0.49500  0.33070  Biso   1.000  H
  H12      1.0000 0.67600  0.49500  0.16930  Biso   1.000  H
  H13      1.0000 0.17600  0.00500  0.66930  Biso   1.000  H
  H14      1.0000 0.82400  0.00500  0.83070  Biso   1.000  H
  H15      1.0000 0.67600  0.50500  0.66930  Biso   1.000  H
  H16      1.0000 0.32400  0.50500  0.83070  Biso   1.000  H
  H17      1.0000 0.88740  0.84000  0.27860  Biso   1.000  H
  H18      1.0000 0.11260  0.84000  0.22140  Biso   1.000  H
  H19      1.0000 0.38740  0.34000  0.27860  Biso   1.000  H
  H20      1.0000 0.61260  0.34000  0.22140  Biso   1.000  H
  H21      1.0000 0.11260  0.16000  0.72140  Biso   1.000  H
  H22      1.0000 0.88740  0.16000  0.77860  Biso   1.000  H
  H23      1.0000 0.61260  0.66000  0.72140  Biso   1.000  H
  H24      1.0000 0.38740  0.66000  0.77860  Biso   1.000  H
  H25      1.0000 0.84210  0.71600  0.26400  Biso   1.000  H
  H26      1.0000 0.15790  0.71600  0.23600  Biso   1.000  H
  H27      1.0000 0.34210  0.21600  0.26400  Biso   1.000  H
  H28      1.0000 0.65790  0.21600  0.23600  Biso   1.000  H
  H29      1.0000 0.15790  0.28400  0.73600  Biso   1.000  H
  H30      1.0000 0.84210  0.28400  0.76400  Biso   1.000  H
  H31      1.0000 0.65790  0.78400  0.73600  Biso   1.000  H
  H32      1.0000 0.34210  0.78400  0.76400  Biso   1.000  H
  H33      1.0000 0.84630  0.64700  0.16820  Biso   1.000  H
  H34      1.0000 0.15370  0.64700  0.33180  Biso   1.000  H
  H35      1.0000 0.34630  0.14700  0.16820  Biso   1.000  H
  H36      1.0000 0.65370  0.14700  0.33180  Biso   1.000  H
  H37      1.0000 0.15370  0.35300  0.83180  Biso   1.000  H
  H38      1.0000 0.84630  0.35300  0.66820  Biso   1.000  H
  H39      1.0000 0.65370  0.85300  0.83180  Biso   1.000  H
  H40      1.0000 0.34630  0.85300  0.66820  Biso   1.000  H
  H41      1.0000 0.75910  0.63500  0.12860  Biso   1.000  H
  H42      1.0000 0.24090  0.63500  0.37140  Biso   1.000  H
  H43      1.0000 0.25910  0.13500  0.12860  Biso   1.000  H
  H44      1.0000 0.74090  0.13500  0.37140  Biso   1.000  H
  H45      1.0000 0.24090  0.36500  0.87140  Biso   1.000  H
  H46      1.0000 0.75910  0.36500  0.62860  Biso   1.000  H
  H47      1.0000 0.74090  0.86500  0.87140  Biso   1.000  H
  H48      1.0000 0.25910  0.86500  0.62860  Biso   1.000  H
  H49      1.0000 0.75560  0.71200  0.06140  Biso   1.000  H
  H50      1.0000 0.24440  0.71200  0.43860  Biso   1.000  H
  H51      1.0000 0.25560  0.21200  0.06140  Biso   1.000  H
  H52      1.0000 0.74440  0.21200  0.43860  Biso   1.000  H
  H53      1.0000 0.24440  0.28800  0.93860  Biso   1.000  H
  H54      1.0000 0.75560  0.28800  0.56140  Biso   1.000  H
  H55      1.0000 0.74440  0.78800  0.93860  Biso   1.000  H
  H56      1.0000 0.25560  0.78800  0.56140  Biso   1.000  H
  H57      1.0000 0.74600  0.13000  0.18520  Biso   1.000  H
  H58      1.0000 0.25400  0.13000  0.31480  Biso   1.000  H
  H59      1.0000 0.24600  0.63000  0.18520  Biso   1.000  H
  H60      1.0000 0.75400  0.63000  0.31480  Biso   1.000  H
  H61      1.0000 0.25400  0.87000  0.81480  Biso   1.000  H
  H62      1.0000 0.74600  0.87000  0.68520  Biso   1.000  H
  H63      1.0000 0.75400  0.37000  0.81480  Biso   1.000  H
  H64      1.0000 0.24600  0.37000  0.68520  Biso   1.000  H
  H65      1.0000 0.75300  0.90000  0.20260  Biso   1.000  H
  H66      1.0000 0.24700  0.90000  0.29740  Biso   1.000  H
  H67      1.0000 0.25300  0.40000  0.20260  Biso   1.000  H
  H68      1.0000 0.74700  0.40000  0.29740  Biso   1.000  H
  H69      1.0000 0.24700  0.10000  0.79740  Biso   1.000  H
  H70      1.0000 0.75300  0.10000  0.70260  Biso   1.000  H
  H71      1.0000 0.74700  0.60000  0.79740  Biso   1.000  H
  H72      1.0000 0.25300  0.60000  0.70260  Biso   1.000  H
  H73      1.0000 0.74360  0.09000  0.02700  Biso   1.000  H
  H74      1.0000 0.25640  0.09000  0.47300  Biso   1.000  H
  H75      1.0000 0.24360  0.59000  0.02700  Biso   1.000  H
  H76      1.0000 0.75640  0.59000  0.47300  Biso   1.000  H
  H77      1.0000 0.25640  0.91000  0.97300  Biso   1.000  H
  H78      1.0000 0.74360  0.91000  0.52700  Biso   1.000  H
  H79      1.0000 0.75640  0.41000  0.97300  Biso   1.000  H
  H80      1.0000 0.24360  0.41000  0.52700  Biso   1.000  H
  H81      1.0000 0.73970  0.25400  0.07470  Biso   1.000  H
  H82      1.0000 0.26030  0.25400  0.42530  Biso   1.000  H
  H83      1.0000 0.23970  0.75400  0.07470  Biso   1.000  H
  H84      1.0000 0.76030  0.75400  0.42530  Biso   1.000  H
  H85      1.0000 0.26030  0.74600  0.92530  Biso   1.000  H
  H86      1.0000 0.73970  0.74600  0.57470  Biso   1.000  H
  H87      1.0000 0.76030  0.24600  0.92530  Biso   1.000  H
  H88      1.0000 0.23970  0.24600  0.57470  Biso   1.000  H
  H89      1.0000 0.82670  0.26500  0.11520  Biso   1.000  H
  H90      1.0000 0.17330  0.26500  0.38480  Biso   1.000  H
  H91      1.0000 0.32670  0.76500  0.11520  Biso   1.000  H
  H92      1.0000 0.67330  0.76500  0.38480  Biso   1.000  H
  H93      1.0000 0.17330  0.73500  0.88480  Biso   1.000  H
  H94      1.0000 0.82670  0.73500  0.61520  Biso   1.000  H
  H95      1.0000 0.67330  0.23500  0.88480  Biso   1.000  H
  H96      1.0000 0.32670  0.23500  0.61520  Biso   1.000  H
  H97      1.0000 0.82220  0.33300  0.21200  Biso   1.000  H
  H98      1.0000 0.17780  0.33300  0.28800  Biso   1.000  H
  H99      1.0000 0.32220  0.83300  0.21200  Biso   1.000  H
  H100     1.0000 0.67780  0.83300  0.28800  Biso   1.000  H
  H101     1.0000 0.17780  0.66700  0.78800  Biso   1.000  H
  H102     1.0000 0.82220  0.66700  0.71200  Biso   1.000  H
  H103     1.0000 0.67780  0.16700  0.78800  Biso   1.000  H
  H104     1.0000 0.32220  0.16700  0.71200  Biso   1.000  H
  H105     1.0000 0.87690  0.22900  0.24750  Biso   1.000  H
  H106     1.0000 0.12310  0.22900  0.25250  Biso   1.000  H
  H107     1.0000 0.37690  0.72900  0.24750  Biso   1.000  H
  H108     1.0000 0.62310  0.72900  0.25250  Biso   1.000  H
  H109     1.0000 0.12310  0.77100  0.75250  Biso   1.000  H
  H110     1.0000 0.87690  0.77100  0.74750  Biso   1.000  H
  H111     1.0000 0.62310  0.27100  0.75250  Biso   1.000  H
  H112     1.0000 0.37690  0.27100  0.74750  Biso   1.000  H
  H113     1.0000 0.83360  0.92000  0.08810  Biso   1.000  H
  H114     1.0000 0.16640  0.92000  0.41190  Biso   1.000  H
  H115     1.0000 0.33360  0.42000  0.08810  Biso   1.000  H
  H116     1.0000 0.66640  0.42000  0.41190  Biso   1.000  H
  H117     1.0000 0.16640  0.08000  0.91190  Biso   1.000  H
  H118     1.0000 0.83360  0.08000  0.58810  Biso   1.000  H
  H119     1.0000 0.66640  0.58000  0.91190  Biso   1.000  H
  H120     1.0000 0.33360  0.58000  0.58810  Biso   1.000  H
  H121     1.0000 0.88310  0.96800  0.17160  Biso   1.000  H
  H122     1.0000 0.11690  0.96800  0.32840  Biso   1.000  H
  H123     1.0000 0.38310  0.46800  0.17160  Biso   1.000  H
  H124     1.0000 0.61690  0.46800  0.32840  Biso   1.000  H
  H125     1.0000 0.11690  0.03200  0.82840  Biso   1.000  H
  H126     1.0000 0.88310  0.03200  0.67160  Biso   1.000  H
  H127     1.0000 0.61690  0.53200  0.82840  Biso   1.000  H
  H128     1.0000 0.38310  0.53200  0.67160  Biso   1.000  H
  H129     1.0000 0.67130  0.80700  0.06570  Biso   1.000  H
  H130     1.0000 0.32870  0.80700  0.43430  Biso   1.000  H
  H131     1.0000 0.17130  0.30700  0.06570  Biso   1.000  H
  H132     1.0000 0.82870  0.30700  0.43430  Biso   1.000  H
  H133     1.0000 0.32870  0.19300  0.93430  Biso   1.000  H
  H134     1.0000 0.67130  0.19300  0.56570  Biso   1.000  H
  H135     1.0000 0.82870  0.69300  0.93430  Biso   1.000  H
  H136     1.0000 0.17130  0.69300  0.56570  Biso   1.000  H
  H137     1.0000 0.66930  0.88600  0.00100  Biso   1.000  H
  H138     1.0000 0.33070  0.88600  0.49900  Biso   1.000  H
  H139     1.0000 0.16930  0.38600  0.00100  Biso   1.000  H
  H140     1.0000 0.83070  0.38600  0.49900  Biso   1.000  H
  H141     1.0000 0.33070  0.11400  0.99900  Biso   1.000  H
  H142     1.0000 0.66930  0.11400  0.50100  Biso   1.000  H
  H143     1.0000 0.83070  0.61400  0.99900  Biso   1.000  H
  H144     1.0000 0.16930  0.61400  0.50100  Biso   1.000  H
  H145     1.0000 0.61650  0.20200  0.07520  Biso   1.000  H
  H146     1.0000 0.38350  0.20200  0.42480  Biso   1.000  H
  H147     1.0000 0.11650  0.70200  0.07520  Biso   1.000  H
  H148     1.0000 0.88350  0.70200  0.42480  Biso   1.000  H
  H149     1.0000 0.38350  0.79800  0.92480  Biso   1.000  H
  H150     1.0000 0.61650  0.79800  0.57520  Biso   1.000  H
  H151     1.0000 0.88350  0.29800  0.92480  Biso   1.000  H
  H152     1.0000 0.11650  0.29800  0.57520  Biso   1.000  H
  H153     1.0000 0.03210  0.41700  0.57700  Biso   1.000  H
  H154     1.0000 0.96790  0.41700  0.92300  Biso   1.000  H
  H155     1.0000 0.53210  0.91700  0.57700  Biso   1.000  H
  H156     1.0000 0.46790  0.91700  0.92300  Biso   1.000  H
  H157     1.0000 0.96790  0.58300  0.42300  Biso   1.000  H
  H158     1.0000 0.03210  0.58300  0.07700  Biso   1.000  H
  H159     1.0000 0.46790  0.08300  0.42300  Biso   1.000  H
  H160     1.0000 0.53210  0.08300  0.07700  Biso   1.000  H
  H161     1.0000 0.94630  0.96200  0.56140  Biso   1.000  H
  H162     1.0000 0.05370  0.96200  0.93860  Biso   1.000  H
  H163     1.0000 0.44630  0.46200  0.56140  Biso   1.000  H
  H164     1.0000 0.55370  0.46200  0.93860  Biso   1.000  H
  H165     1.0000 0.05370  0.03800  0.43860  Biso   1.000  H
  H166     1.0000 0.94630  0.03800  0.06140  Biso   1.000  H
  H167     1.0000 0.55370  0.53800  0.43860  Biso   1.000  H
  H168     1.0000 0.44630  0.53800  0.06140  Biso   1.000  H
  H169     1.0000 0.01630  0.62300  0.64230  Biso   1.000  H
  H170     1.0000 0.98370  0.62300  0.85770  Biso   1.000  H
  H171     1.0000 0.51630  0.12300  0.64230  Biso   1.000  H
  H172     1.0000 0.48370  0.12300  0.85770  Biso   1.000  H
  H173     1.0000 0.98370  0.37700  0.35770  Biso   1.000  H
  H174     1.0000 0.01630  0.37700  0.14230  Biso   1.000  H
  H175     1.0000 0.48370  0.87700  0.35770  Biso   1.000  H
  H176     1.0000 0.51630  0.87700  0.14230  Biso   1.000  H
  H177     1.0000 0.92820  0.14800  0.62960  Biso   1.000  H
  H178     1.0000 0.07180  0.14800  0.87040  Biso   1.000  H
  H179     1.0000 0.42820  0.64800  0.62960  Biso   1.000  H
  H180     1.0000 0.57180  0.64800  0.87040  Biso   1.000  H
  H181     1.0000 0.07180  0.85200  0.37040  Biso   1.000  H
  H182     1.0000 0.92820  0.85200  0.12960  Biso   1.000  H
  H183     1.0000 0.57180  0.35200  0.37040  Biso   1.000  H
  H184     1.0000 0.42820  0.35200  0.12960  Biso   1.000  H
  H185     1.0000 0.94250  0.45900  0.70160  Biso   1.000  H
  H186     1.0000 0.05750  0.45900  0.79840  Biso   1.000  H
  H187     1.0000 0.44250  0.95900  0.70160  Biso   1.000  H
  H188     1.0000 0.55750  0.95900  0.79840  Biso   1.000  H
  H189     1.0000 0.05750  0.54100  0.29840  Biso   1.000  H
  H190     1.0000 0.94250  0.54100  0.20160  Biso   1.000  H
  H191     1.0000 0.55750  0.04100  0.29840  Biso   1.000  H
  H192     1.0000 0.44250  0.04100  0.20160  Biso   1.000  H
  H193     1.0000 0.92630  0.63300  0.64260  Biso   1.000  H
  H194     1.0000 0.07370  0.63300  0.85740  Biso   1.000  H
  H195     1.0000 0.42630  0.13300  0.64260  Biso   1.000  H
  H196     1.0000 0.57370  0.13300  0.85740  Biso   1.000  H
  H197     1.0000 0.07370  0.36700  0.35740  Biso   1.000  H
  H198     1.0000 0.92630  0.36700  0.14260  Biso   1.000  H
  H199     1.0000 0.57370  0.86700  0.35740  Biso   1.000  H
  H200     1.0000 0.42630  0.86700  0.14260  Biso   1.000  H
  H201     1.0000 0.98480  0.76800  0.76450  Biso   1.000  H
  H202     1.0000 0.01520  0.76800  0.73550  Biso   1.000  H
  H203     1.0000 0.48480  0.26800  0.76450  Biso   1.000  H
  H204     1.0000 0.51520  0.26800  0.73550  Biso   1.000  H
  H205     1.0000 0.01520  0.23200  0.23550  Biso   1.000  H
  H206     1.0000 0.98480  0.23200  0.26450  Biso   1.000  H
  H207     1.0000 0.51520  0.73200  0.23550  Biso   1.000  H
  H208     1.0000 0.48480  0.73200  0.26450  Biso   1.000  H
