data_image0
_cell_length_a       8.569
_cell_length_b       8.877
_cell_length_c       8.37
_cell_angle_alpha    90
_cell_angle_beta     99.55
_cell_angle_gamma    90

_symmetry_space_group_name_H-M    "P 1"
_symmetry_int_tables_number       1

loop_
  _symmetry_equiv_pos_as_xyz
  'x, y, z'

loop_
  _atom_site_label
  _atom_site_occupancy
  _atom_site_fract_x
  _atom_site_fract_y
  _atom_site_fract_z
  _atom_site_thermal_displace_type
  _atom_site_B_iso_or_equiv
  _atom_site_type_symbol
  Cu1      1.0000 0.01336  0.47320  0.17650  Biso   1.000  Cu
  Cu2      1.0000 0.98664  0.97320  0.32350  Biso   1.000  Cu
  Cu3      1.0000 0.98664  0.52680  0.82350  Biso   1.000  Cu
  Cu4      1.0000 0.01336  0.02680  0.67650  Biso   1.000  Cu
  O1       1.0000 0.13230  0.43940  0.00110  Biso   1.000  O
  O2       1.0000 0.86770  0.93940  0.49890  Biso   1.000  O
  O3       1.0000 0.86770  0.56060  0.99890  Biso   1.000  O
  O4       1.0000 0.13230  0.06060  0.50110  Biso   1.000  O
  O5       1.0000 0.85790  0.46420  0.32930  Biso   1.000  O
  O6       1.0000 0.14210  0.96420  0.17070  Biso   1.000  O
  O7       1.0000 0.14210  0.53580  0.67070  Biso   1.000  O
  O8       1.0000 0.85790  0.03580  0.82930  Biso   1.000  O
  O9       1.0000 0.85510  0.22640  0.24680  Biso   1.000  O
  O10      1.0000 0.14490  0.72640  0.25320  Biso   1.000  O
  O11      1.0000 0.14490  0.77360  0.75320  Biso   1.000  O
  O12      1.0000 0.85510  0.27360  0.74680  Biso   1.000  O
  N1       1.0000 0.17950  0.39360  0.34900  Biso   1.000  N
  N2       1.0000 0.82050  0.89360  0.15100  Biso   1.000  N
  N3       1.0000 0.82050  0.60640  0.65100  Biso   1.000  N
  N4       1.0000 0.17950  0.10640  0.84900  Biso   1.000  N
  C1       1.0000 0.29900  0.44930  0.02380  Biso   1.000  C
  C2       1.0000 0.70100  0.94930  0.47620  Biso   1.000  C
  C3       1.0000 0.70100  0.55070  0.97620  Biso   1.000  C
  C4       1.0000 0.29900  0.05070  0.52380  Biso   1.000  C
  C5       1.0000 0.37590  0.35680  0.16760  Biso   1.000  C
  C6       1.0000 0.62410  0.85680  0.33240  Biso   1.000  C
  C7       1.0000 0.62410  0.64320  0.83240  Biso   1.000  C
  C8       1.0000 0.37590  0.14320  0.66760  Biso   1.000  C
  C9       1.0000 0.34580  0.41620  0.32850  Biso   1.000  C
  C10      1.0000 0.65420  0.91620  0.17150  Biso   1.000  C
  C11      1.0000 0.65420  0.58380  0.67150  Biso   1.000  C
  C12      1.0000 0.34580  0.08380  0.82850  Biso   1.000  C
  C13      1.0000 0.81590  0.32700  0.33300  Biso   1.000  C
  C14      1.0000 0.18410  0.82700  0.16700  Biso   1.000  C
  C15      1.0000 0.18410  0.67300  0.66700  Biso   1.000  C
  C16      1.0000 0.81590  0.17300  0.83300  Biso   1.000  C
  H1       1.0000 0.33500  0.55200  0.04500  Biso   1.000  H
  H2       1.0000 0.66500  0.05200  0.45500  Biso   1.000  H
  H3       1.0000 0.66500  0.44800  0.95500  Biso   1.000  H
  H4       1.0000 0.33500  0.94800  0.54500  Biso   1.000  H
  H5       1.0000 0.34100  0.42000  0.91500  Biso   1.000  H
  H6       1.0000 0.65900  0.92000  0.58500  Biso   1.000  H
  H7       1.0000 0.65900  0.58000  0.08500  Biso   1.000  H
  H8       1.0000 0.34100  0.08000  0.41500  Biso   1.000  H
  H9       1.0000 0.48900  0.35900  0.17000  Biso   1.000  H
  H10      1.0000 0.51100  0.85900  0.33000  Biso   1.000  H
  H11      1.0000 0.51100  0.64100  0.83000  Biso   1.000  H
  H12      1.0000 0.48900  0.14100  0.67000  Biso   1.000  H
  H13      1.0000 0.33600  0.26100  0.15100  Biso   1.000  H
  H14      1.0000 0.66400  0.76100  0.34900  Biso   1.000  H
  H15      1.0000 0.66400  0.73900  0.84900  Biso   1.000  H
  H16      1.0000 0.33600  0.23900  0.65100  Biso   1.000  H
  H17      1.0000 0.41800  0.36500  0.41700  Biso   1.000  H
  H18      1.0000 0.58200  0.86500  0.08300  Biso   1.000  H
  H19      1.0000 0.58200  0.63500  0.58300  Biso   1.000  H
  H20      1.0000 0.41800  0.13500  0.91700  Biso   1.000  H
  H21      1.0000 0.37800  0.52800  0.33700  Biso   1.000  H
  H22      1.0000 0.62200  0.02800  0.16300  Biso   1.000  H
  H23      1.0000 0.62200  0.47200  0.66300  Biso   1.000  H
  H24      1.0000 0.37800  0.97200  0.83700  Biso   1.000  H
  H25      1.0000 0.75000  0.30100  0.39600  Biso   1.000  H
  H26      1.0000 0.25000  0.80100  0.10400  Biso   1.000  H
  H27      1.0000 0.25000  0.69900  0.60400  Biso   1.000  H
  H28      1.0000 0.75000  0.19900  0.89600  Biso   1.000  H
  H29      1.0000 0.16400  0.31900  0.35470  Biso   1.000  H
  H30      1.0000 0.83600  0.81900  0.14530  Biso   1.000  H
  H31      1.0000 0.83600  0.68100  0.64530  Biso   1.000  H
  H32      1.0000 0.16400  0.18100  0.85470  Biso   1.000  H
  H33      1.0000 0.16900  0.43200  0.44500  Biso   1.000  H
  H34      1.0000 0.83100  0.93200  0.05500  Biso   1.000  H
  H35      1.0000 0.83100  0.56800  0.55500  Biso   1.000  H
  H36      1.0000 0.16900  0.06800  0.94500  Biso   1.000  H
