data_image0
_cell_length_a       6.3151
_cell_length_b       9.3387
_cell_length_c       15.4601
_cell_angle_alpha    93.623
_cell_angle_beta     100.471
_cell_angle_gamma    108.196

_symmetry_space_group_name_H-M    "P 1"
_symmetry_int_tables_number       1

loop_
  _symmetry_equiv_pos_as_xyz
  'x, y, z'

loop_
  _atom_site_label
  _atom_site_occupancy
  _atom_site_fract_x
  _atom_site_fract_y
  _atom_site_fract_z
  _atom_site_thermal_displace_type
  _atom_site_B_iso_or_equiv
  _atom_site_type_symbol
  Cu1      1.0000 0.50000  0.00000  0.00000  Biso   1.000  Cu
  Cu2      1.0000 0.87185  0.83154  0.01952  Biso   1.000  Cu
  Cu3      1.0000 0.12815  0.16846  0.98048  Biso   1.000  Cu
  N1       1.0000 0.98750  0.65350  0.01800  Biso   1.000  N
  N2       1.0000 0.01250  0.34650  0.98200  Biso   1.000  N
  O1       1.0000 0.44240  0.88370  0.88320  Biso   1.000  O
  O2       1.0000 0.55760  0.11630  0.11680  Biso   1.000  O
  O3       1.0000 0.71600  0.77700  0.89020  Biso   1.000  O
  O4       1.0000 0.28400  0.22300  0.10980  Biso   1.000  O
  O5       1.0000 0.81980  0.02860  0.02530  Biso   1.000  O
  O6       1.0000 0.18020  0.97140  0.97470  Biso   1.000  O
  O7       1.0000 0.85450  0.82610  0.14420  Biso   1.000  O
  O8       1.0000 0.14550  0.17390  0.85580  Biso   1.000  O
  O9       1.0000 0.48160  0.77100  0.09590  Biso   1.000  O
  O10      1.0000 0.51840  0.22900  0.90410  Biso   1.000  O
  C1       1.0000 0.26030  0.76080  0.70690  Biso   1.000  C
  C2       1.0000 0.73970  0.23920  0.29310  Biso   1.000  C
  H1       1.0000 0.18810  0.81800  0.73410  Biso   1.000  H
  H2       1.0000 0.81190  0.18200  0.26590  Biso   1.000  H
  C3       1.0000 0.17430  0.69950  0.61960  Biso   1.000  C
  C4       1.0000 0.82570  0.30050  0.38040  Biso   1.000  C
  H3       1.0000 0.04730  0.71740  0.58770  Biso   1.000  H
  H4       1.0000 0.95270  0.28260  0.41230  Biso   1.000  H
  C5       1.0000 0.27710  0.61140  0.57970  Biso   1.000  C
  C6       1.0000 0.72290  0.38860  0.42030  Biso   1.000  C
  H5       1.0000 0.21780  0.56800  0.52100  Biso   1.000  H
  H6       1.0000 0.78220  0.43200  0.47900  Biso   1.000  H
  C7       1.0000 0.46540  0.58760  0.62610  Biso   1.000  C
  C8       1.0000 0.53460  0.41240  0.37390  Biso   1.000  C
  H7       1.0000 0.53500  0.52860  0.59880  Biso   1.000  H
  H8       1.0000 0.46500  0.47140  0.40120  Biso   1.000  H
  C9       1.0000 0.55350  0.65070  0.71340  Biso   1.000  C
  C10      1.0000 0.44650  0.34930  0.28660  Biso   1.000  C
  H9       1.0000 0.68210  0.63390  0.74470  Biso   1.000  H
  H10      1.0000 0.31790  0.36610  0.25530  Biso   1.000  H
  C11      1.0000 0.45100  0.73920  0.75480  Biso   1.000  C
  C12      1.0000 0.54900  0.26080  0.24520  Biso   1.000  C
  C13      1.0000 0.54500  0.80520  0.85020  Biso   1.000  C
  C14      1.0000 0.45500  0.19480  0.14980  Biso   1.000  C
  C15      1.0000 0.65220  0.80080  0.15740  Biso   1.000  C
  C16      1.0000 0.34780  0.19920  0.84260  Biso   1.000  C
  C17      1.0000 0.63180  0.81150  0.25240  Biso   1.000  C
  C18      1.0000 0.36820  0.18850  0.74760  Biso   1.000  C
  C19      1.0000 0.43320  0.80560  0.27590  Biso   1.000  C
  C20      1.0000 0.56680  0.19440  0.72410  Biso   1.000  C
  H11      1.0000 0.30340  0.79260  0.23240  Biso   1.000  H
  H12      1.0000 0.69660  0.20740  0.76760  Biso   1.000  H
  C21      1.0000 0.42360  0.81910  0.36520  Biso   1.000  C
  C22      1.0000 0.57640  0.18090  0.63480  Biso   1.000  C
  H13      1.0000 0.28500  0.81100  0.38050  Biso   1.000  H
  H14      1.0000 0.71500  0.18900  0.61950  Biso   1.000  H
  C23      1.0000 0.60870  0.84340  0.42960  Biso   1.000  C
  C24      1.0000 0.39130  0.15660  0.57040  Biso   1.000  C
  H15      1.0000 0.60030  0.85550  0.48890  Biso   1.000  H
  H16      1.0000 0.39970  0.14450  0.51110  Biso   1.000  H
  C25      1.0000 0.80710  0.85000  0.40700  Biso   1.000  C
  C26      1.0000 0.19290  0.15000  0.59300  Biso   1.000  C
  H17      1.0000 0.93660  0.86490  0.45090  Biso   1.000  H
  H18      1.0000 0.06340  0.13510  0.54910  Biso   1.000  H
  C27      1.0000 0.81930  0.83460  0.31890  Biso   1.000  C
  C28      1.0000 0.18070  0.16540  0.68110  Biso   1.000  C
  H19      1.0000 0.95800  0.84020  0.30430  Biso   1.000  H
  H20      1.0000 0.04200  0.15980  0.69570  Biso   1.000  H
  C29      1.0000 0.87430  0.52540  0.06420  Biso   1.000  C
  C30      1.0000 0.12570  0.47460  0.93580  Biso   1.000  C
  C31      1.0000 0.00280  0.58990  0.92990  Biso   1.000  C
  C32      1.0000 0.99720  0.41010  0.07010  Biso   1.000  C
  H21      1.0000 0.87100  0.55800  0.11900  Biso   1.000  H
  H22      1.0000 0.12900  0.44200  0.88100  Biso   1.000  H
  H23      1.0000 0.73200  0.48700  0.03300  Biso   1.000  H
  H24      1.0000 0.26800  0.51300  0.96700  Biso   1.000  H
  H25      1.0000 0.06300  0.66600  0.89800  Biso   1.000  H
  H26      1.0000 0.93700  0.33400  0.10200  Biso   1.000  H
  H27      1.0000 0.84200  0.53200  0.89200  Biso   1.000  H
  H28      1.0000 0.15800  0.46800  0.10800  Biso   1.000  H
  H29      1.0000 0.12800  0.68700  0.04800  Biso   1.000  H
  H30      1.0000 0.87200  0.31300  0.95200  Biso   1.000  H
  H31      1.0000 0.85800  0.05100  0.07200  Biso   1.000  H
  H32      1.0000 0.14200  0.94900  0.92800  Biso   1.000  H
