data_image0
_cell_length_a       11.3221
_cell_length_b       7.7824
_cell_length_c       12.6314
_cell_angle_alpha    90
_cell_angle_beta     116.535
_cell_angle_gamma    90

_symmetry_space_group_name_H-M    "P 1"
_symmetry_int_tables_number       1

loop_
  _symmetry_equiv_pos_as_xyz
  'x, y, z'

loop_
  _atom_site_label
  _atom_site_occupancy
  _atom_site_fract_x
  _atom_site_fract_y
  _atom_site_fract_z
  _atom_site_thermal_displace_type
  _atom_site_B_iso_or_equiv
  _atom_site_type_symbol
  C1       1.0000 0.45640  0.52450  0.25617  Biso   1.000  C
  C2       1.0000 0.04360  0.02450  0.24383  Biso   1.000  C
  C3       1.0000 0.54360  0.47550  0.74383  Biso   1.000  C
  C4       1.0000 0.95640  0.97550  0.75617  Biso   1.000  C
  H1       1.0000 0.38310  0.45790  0.24390  Biso   1.000  H
  H2       1.0000 0.11690  0.95790  0.25610  Biso   1.000  H
  H3       1.0000 0.61690  0.54210  0.75610  Biso   1.000  H
  H4       1.0000 0.88310  0.04210  0.74390  Biso   1.000  H
  C5       1.0000 0.47060  0.58040  0.15966  Biso   1.000  C
  C6       1.0000 0.02940  0.08040  0.34034  Biso   1.000  C
  C7       1.0000 0.52940  0.41960  0.84034  Biso   1.000  C
  C8       1.0000 0.97060  0.91960  0.65966  Biso   1.000  C
  H5       1.0000 0.40670  0.55460  0.08360  Biso   1.000  H
  H6       1.0000 0.09330  0.05460  0.41640  Biso   1.000  H
  H7       1.0000 0.59330  0.44540  0.91640  Biso   1.000  H
  H8       1.0000 0.90670  0.94540  0.58360  Biso   1.000  H
  C9       1.0000 0.58040  0.67520  0.17621  Biso   1.000  C
  C10      1.0000 0.91960  0.17520  0.32379  Biso   1.000  C
  C11      1.0000 0.41960  0.32480  0.82379  Biso   1.000  C
  C12      1.0000 0.08040  0.82480  0.67621  Biso   1.000  C
  C13      1.0000 0.67280  0.71010  0.29081  Biso   1.000  C
  C14      1.0000 0.82720  0.21010  0.20919  Biso   1.000  C
  C15      1.0000 0.32720  0.28990  0.70919  Biso   1.000  C
  C16      1.0000 0.17280  0.78990  0.79081  Biso   1.000  C
  H9       1.0000 0.74890  0.77160  0.30510  Biso   1.000  H
  H10      1.0000 0.75110  0.27160  0.19490  Biso   1.000  H
  H11      1.0000 0.25110  0.22840  0.69490  Biso   1.000  H
  H12      1.0000 0.24890  0.72840  0.80510  Biso   1.000  H
  C17      1.0000 0.65070  0.65250  0.38355  Biso   1.000  C
  C18      1.0000 0.84930  0.15250  0.11645  Biso   1.000  C
  C19      1.0000 0.34930  0.34750  0.61645  Biso   1.000  C
  C20      1.0000 0.15070  0.84750  0.88355  Biso   1.000  C
  H13      1.0000 0.71260  0.67770  0.46040  Biso   1.000  H
  H14      1.0000 0.78740  0.17770  0.03960  Biso   1.000  H
  H15      1.0000 0.28740  0.32230  0.53960  Biso   1.000  H
  H16      1.0000 0.21260  0.82230  0.96040  Biso   1.000  H
  C21      1.0000 0.58880  0.74360  0.06805  Biso   1.000  C
  C22      1.0000 0.91120  0.24360  0.43195  Biso   1.000  C
  C23      1.0000 0.41120  0.25640  0.93195  Biso   1.000  C
  C24      1.0000 0.08880  0.75640  0.56805  Biso   1.000  C
  C25      1.0000 0.47616  0.12300  0.46798  Biso   1.000  C
  C26      1.0000 0.02384  0.62300  0.03202  Biso   1.000  C
  C27      1.0000 0.52384  0.87700  0.53202  Biso   1.000  C
  C28      1.0000 0.97616  0.37700  0.96798  Biso   1.000  C
  C29      1.0000 0.43630  0.95200  0.41775  Biso   1.000  C
  C30      1.0000 0.06370  0.45200  0.08225  Biso   1.000  C
  C31      1.0000 0.56370  0.04800  0.58225  Biso   1.000  C
  C32      1.0000 0.93630  0.54800  0.91775  Biso   1.000  C
  N1       1.0000 0.54326  0.56161  0.36733  Biso   1.000  N
  N2       1.0000 0.95674  0.06161  0.13267  Biso   1.000  N
  N3       1.0000 0.45674  0.43839  0.63267  Biso   1.000  N
  N4       1.0000 0.04326  0.93839  0.86733  Biso   1.000  N
  N5       1.0000 0.70760  0.75840  0.07420  Biso   1.000  N
  N6       1.0000 0.79240  0.25840  0.42580  Biso   1.000  N
  N7       1.0000 0.29240  0.24160  0.92580  Biso   1.000  N
  N8       1.0000 0.20760  0.74160  0.57420  Biso   1.000  N
  O1       1.0000 0.44275  0.27051  0.42443  Biso   1.000  O
  O2       1.0000 0.05725  0.77051  0.07557  Biso   1.000  O
  O3       1.0000 0.55725  0.72949  0.57557  Biso   1.000  O
  O4       1.0000 0.94275  0.22949  0.92443  Biso   1.000  O
  O5       1.0000 0.35895  0.89518  0.31830  Biso   1.000  O
  O6       1.0000 0.14105  0.39518  0.18170  Biso   1.000  O
  O7       1.0000 0.64105  0.10482  0.68170  Biso   1.000  O
  O8       1.0000 0.85895  0.60482  0.81830  Biso   1.000  O
  O9       1.0000 0.48704  0.77810  0.98094  Biso   1.000  O
  O10      1.0000 0.01296  0.27810  0.51906  Biso   1.000  O
  O11      1.0000 0.51296  0.22190  0.01906  Biso   1.000  O
  O12      1.0000 0.98704  0.72190  0.48094  Biso   1.000  O
  O13      1.0000 0.27134  0.60109  0.38144  Biso   1.000  O
  O14      1.0000 0.22866  0.10109  0.11856  Biso   1.000  O
  O15      1.0000 0.72866  0.39891  0.61856  Biso   1.000  O
  O16      1.0000 0.77134  0.89891  0.88144  Biso   1.000  O
  O17      1.0000 0.56050  0.11120  0.23878  Biso   1.000  O
  O18      1.0000 0.93950  0.61120  0.26122  Biso   1.000  O
  O19      1.0000 0.43950  0.88880  0.76122  Biso   1.000  O
  O20      1.0000 0.06050  0.38880  0.73878  Biso   1.000  O
  Cu1      1.0000 0.50000  0.50000  0.50000  Biso   1.000  Cu
  Cu2      1.0000 0.00000  0.00000  0.00000  Biso   1.000  Cu
  H17      1.0000 0.77400  0.71900  0.13100  Biso   1.000  H
  H18      1.0000 0.72600  0.21900  0.36900  Biso   1.000  H
  H19      1.0000 0.22600  0.28100  0.86900  Biso   1.000  H
  H20      1.0000 0.27400  0.78100  0.63100  Biso   1.000  H
  H21      1.0000 0.72000  0.79200  0.01900  Biso   1.000  H
  H22      1.0000 0.78000  0.29200  0.48100  Biso   1.000  H
  H23      1.0000 0.28000  0.20800  0.98100  Biso   1.000  H
  H24      1.0000 0.22000  0.70800  0.51900  Biso   1.000  H
  H25      1.0000 0.28600  0.69100  0.34700  Biso   1.000  H
  H26      1.0000 0.21400  0.19100  0.15300  Biso   1.000  H
  H27      1.0000 0.71400  0.30900  0.65300  Biso   1.000  H
  H28      1.0000 0.78600  0.80900  0.84700  Biso   1.000  H
  H29      1.0000 0.23500  0.54500  0.33200  Biso   1.000  H
  H30      1.0000 0.26500  0.04500  0.16800  Biso   1.000  H
  H31      1.0000 0.76500  0.45500  0.66800  Biso   1.000  H
  H32      1.0000 0.73500  0.95500  0.83200  Biso   1.000  H
  H33      1.0000 0.54000  0.14100  0.17600  Biso   1.000  H
  H34      1.0000 0.96000  0.64100  0.32400  Biso   1.000  H
  H35      1.0000 0.46000  0.85900  0.82400  Biso   1.000  H
  H36      1.0000 0.04000  0.35900  0.67600  Biso   1.000  H
  H37      1.0000 0.51100  0.04600  0.24300  Biso   1.000  H
  H38      1.0000 0.98900  0.54600  0.25700  Biso   1.000  H
  H39      1.0000 0.48900  0.95400  0.75700  Biso   1.000  H
  H40      1.0000 0.01100  0.45400  0.74300  Biso   1.000  H
