data_image0
_cell_length_a       9.0307
_cell_length_b       10.4375
_cell_length_c       16.1471
_cell_angle_alpha    90
_cell_angle_beta     90
_cell_angle_gamma    90

_symmetry_space_group_name_H-M    "P 1"
_symmetry_int_tables_number       1

loop_
  _symmetry_equiv_pos_as_xyz
  'x, y, z'

loop_
  _atom_site_label
  _atom_site_occupancy
  _atom_site_fract_x
  _atom_site_fract_y
  _atom_site_fract_z
  _atom_site_thermal_displace_type
  _atom_site_B_iso_or_equiv
  _atom_site_type_symbol
  Cu1      1.0000 0.40970  0.35067  0.49942  Biso   1.000  Cu
  Cu2      1.0000 0.09030  0.64933  0.99942  Biso   1.000  Cu
  Cu3      1.0000 0.59030  0.85067  0.00058  Biso   1.000  Cu
  Cu4      1.0000 0.90970  0.14933  0.50058  Biso   1.000  Cu
  O1       1.0000 0.60500  0.44650  0.08540  Biso   1.000  O
  O2       1.0000 0.89500  0.55350  0.58540  Biso   1.000  O
  O3       1.0000 0.39500  0.94650  0.41460  Biso   1.000  O
  O4       1.0000 0.10500  0.05350  0.91460  Biso   1.000  O
  H1       1.0000 0.63600  0.37000  0.09000  Biso   1.000  H
  H2       1.0000 0.86400  0.63000  0.59000  Biso   1.000  H
  H3       1.0000 0.36400  0.87000  0.41000  Biso   1.000  H
  H4       1.0000 0.13600  0.13000  0.91000  Biso   1.000  H
  O5       1.0000 0.31970  0.70210  0.42230  Biso   1.000  O
  O6       1.0000 0.18030  0.29790  0.92230  Biso   1.000  O
  O7       1.0000 0.68030  0.20210  0.07770  Biso   1.000  O
  O8       1.0000 0.81970  0.79790  0.57770  Biso   1.000  O
  O9       1.0000 0.20770  0.27970  0.50170  Biso   1.000  O
  O10      1.0000 0.29230  0.72030  0.00170  Biso   1.000  O
  O11      1.0000 0.79230  0.77970  0.99830  Biso   1.000  O
  O12      1.0000 0.70770  0.22030  0.49830  Biso   1.000  O
  O13      1.0000 0.98350  0.30410  0.45110  Biso   1.000  O
  O14      1.0000 0.51650  0.69590  0.95110  Biso   1.000  O
  O15      1.0000 0.01650  0.80410  0.04890  Biso   1.000  O
  O16      1.0000 0.48350  0.19590  0.54890  Biso   1.000  O
  N1       1.0000 0.58220  0.46700  0.49860  Biso   1.000  N
  N2       1.0000 0.91780  0.53300  0.99860  Biso   1.000  N
  N3       1.0000 0.41780  0.96700  0.00140  Biso   1.000  N
  N4       1.0000 0.08220  0.03300  0.50140  Biso   1.000  N
  H5       1.0000 0.62220  0.46980  0.54970  Biso   1.000  H
  H6       1.0000 0.87780  0.53020  0.04970  Biso   1.000  H
  H7       1.0000 0.37780  0.96980  0.95030  Biso   1.000  H
  H8       1.0000 0.12220  0.03020  0.45030  Biso   1.000  H
  H9       1.0000 0.65120  0.43620  0.46370  Biso   1.000  H
  H10      1.0000 0.84880  0.56380  0.96370  Biso   1.000  H
  H11      1.0000 0.34880  0.93620  0.03630  Biso   1.000  H
  H12      1.0000 0.15120  0.06380  0.53630  Biso   1.000  H
  N5       1.0000 0.31980  0.48420  0.43870  Biso   1.000  N
  N6       1.0000 0.18020  0.51580  0.93870  Biso   1.000  N
  N7       1.0000 0.68020  0.98420  0.06130  Biso   1.000  N
  N8       1.0000 0.81980  0.01580  0.56130  Biso   1.000  N
  C1       1.0000 0.61880  0.49330  0.16400  Biso   1.000  C
  C2       1.0000 0.88120  0.50670  0.66400  Biso   1.000  C
  C3       1.0000 0.38120  0.99330  0.33600  Biso   1.000  C
  C4       1.0000 0.11880  0.00670  0.83600  Biso   1.000  C
  C5       1.0000 0.56240  0.61350  0.18150  Biso   1.000  C
  C6       1.0000 0.93760  0.38650  0.68150  Biso   1.000  C
  C7       1.0000 0.43760  0.11350  0.31850  Biso   1.000  C
  C8       1.0000 0.06240  0.88650  0.81850  Biso   1.000  C
  H13      1.0000 0.51750  0.66070  0.13960  Biso   1.000  H
  H14      1.0000 0.98250  0.33930  0.63960  Biso   1.000  H
  H15      1.0000 0.48250  0.16070  0.36040  Biso   1.000  H
  H16      1.0000 0.01750  0.83930  0.86040  Biso   1.000  H
  C9       1.0000 0.57160  0.66370  0.25940  Biso   1.000  C
  C10      1.0000 0.92840  0.33630  0.75940  Biso   1.000  C
  C11      1.0000 0.42840  0.16370  0.24060  Biso   1.000  C
  C12      1.0000 0.07160  0.83630  0.74060  Biso   1.000  C
  H17      1.0000 0.53170  0.74440  0.26950  Biso   1.000  H
  H18      1.0000 0.96830  0.25560  0.76950  Biso   1.000  H
  H19      1.0000 0.46830  0.24440  0.23050  Biso   1.000  H
  H20      1.0000 0.03170  0.75560  0.73050  Biso   1.000  H
  C13      1.0000 0.63810  0.59840  0.32370  Biso   1.000  C
  C14      1.0000 0.86190  0.40160  0.82370  Biso   1.000  C
  C15      1.0000 0.36190  0.09840  0.17630  Biso   1.000  C
  C16      1.0000 0.13810  0.90160  0.67630  Biso   1.000  C
  C17      1.0000 0.70090  0.47910  0.30440  Biso   1.000  C
  C18      1.0000 0.79910  0.52090  0.80440  Biso   1.000  C
  C19      1.0000 0.29910  0.97910  0.19560  Biso   1.000  C
  C20      1.0000 0.20090  0.02090  0.69560  Biso   1.000  C
  H21      1.0000 0.74970  0.43320  0.34560  Biso   1.000  H
  H22      1.0000 0.75030  0.56680  0.84560  Biso   1.000  H
  H23      1.0000 0.25030  0.93320  0.15440  Biso   1.000  H
  H24      1.0000 0.24970  0.06680  0.65440  Biso   1.000  H
  C21      1.0000 0.69160  0.42820  0.22520  Biso   1.000  C
  C22      1.0000 0.80840  0.57180  0.72520  Biso   1.000  C
  C23      1.0000 0.30840  0.92820  0.27480  Biso   1.000  C
  C24      1.0000 0.19160  0.07180  0.77480  Biso   1.000  C
  H25      1.0000 0.73520  0.34950  0.21370  Biso   1.000  H
  H26      1.0000 0.76480  0.65050  0.71370  Biso   1.000  H
  H27      1.0000 0.26480  0.84950  0.28630  Biso   1.000  H
  H28      1.0000 0.23520  0.15050  0.78630  Biso   1.000  H
  C25      1.0000 0.64770  0.65570  0.40980  Biso   1.000  C
  C26      1.0000 0.85230  0.34430  0.90980  Biso   1.000  C
  C27      1.0000 0.35230  0.15570  0.09020  Biso   1.000  C
  C28      1.0000 0.14770  0.84430  0.59020  Biso   1.000  C
  H29      1.0000 0.62980  0.74720  0.40590  Biso   1.000  H
  H30      1.0000 0.87020  0.25280  0.90590  Biso   1.000  H
  H31      1.0000 0.37020  0.24720  0.09410  Biso   1.000  H
  H32      1.0000 0.12980  0.75280  0.59410  Biso   1.000  H
  H33      1.0000 0.74770  0.64410  0.43040  Biso   1.000  H
  H34      1.0000 0.75230  0.35590  0.93040  Biso   1.000  H
  H35      1.0000 0.25230  0.14410  0.06960  Biso   1.000  H
  H36      1.0000 0.24770  0.85590  0.56960  Biso   1.000  H
  C29      1.0000 0.53990  0.59900  0.47260  Biso   1.000  C
  C30      1.0000 0.96010  0.40100  0.97260  Biso   1.000  C
  C31      1.0000 0.46010  0.09900  0.02740  Biso   1.000  C
  C32      1.0000 0.03990  0.90100  0.52740  Biso   1.000  C
  H37      1.0000 0.54310  0.65340  0.52200  Biso   1.000  H
  H38      1.0000 0.95690  0.34660  0.02200  Biso   1.000  H
  H39      1.0000 0.45690  0.15340  0.97800  Biso   1.000  H
  H40      1.0000 0.04310  0.84660  0.47800  Biso   1.000  H
  C33      1.0000 0.37780  0.59760  0.44150  Biso   1.000  C
  C34      1.0000 0.12220  0.40240  0.94150  Biso   1.000  C
  C35      1.0000 0.62220  0.09760  0.05850  Biso   1.000  C
  C36      1.0000 0.87780  0.90240  0.55850  Biso   1.000  C
  C37      1.0000 0.16620  0.46230  0.41510  Biso   1.000  C
  C38      1.0000 0.33380  0.53770  0.91510  Biso   1.000  C
  C39      1.0000 0.83380  0.96230  0.08490  Biso   1.000  C
  C40      1.0000 0.66620  0.03770  0.58490  Biso   1.000  C
  H41      1.0000 0.10470  0.53530  0.43150  Biso   1.000  H
  H42      1.0000 0.39530  0.46470  0.93150  Biso   1.000  H
  H43      1.0000 0.89530  0.03530  0.06850  Biso   1.000  H
  H44      1.0000 0.60470  0.96470  0.56850  Biso   1.000  H
  C41      1.0000 0.11520  0.34010  0.46010  Biso   1.000  C
  C42      1.0000 0.38480  0.65990  0.96010  Biso   1.000  C
  C43      1.0000 0.88480  0.84010  0.03990  Biso   1.000  C
  C44      1.0000 0.61520  0.15990  0.53990  Biso   1.000  C
  C45      1.0000 0.14790  0.43520  0.32230  Biso   1.000  C
  C46      1.0000 0.35210  0.56480  0.82230  Biso   1.000  C
  C47      1.0000 0.85210  0.93520  0.17770  Biso   1.000  C
  C48      1.0000 0.64790  0.06480  0.67770  Biso   1.000  C
  H45      1.0000 0.21440  0.36600  0.30750  Biso   1.000  H
  H46      1.0000 0.28560  0.63400  0.80750  Biso   1.000  H
  H47      1.0000 0.78560  0.86600  0.19250  Biso   1.000  H
  H48      1.0000 0.71440  0.13400  0.69250  Biso   1.000  H
  H49      1.0000 0.04760  0.40510  0.31300  Biso   1.000  H
  H50      1.0000 0.45240  0.59490  0.81300  Biso   1.000  H
  H51      1.0000 0.95240  0.90510  0.18700  Biso   1.000  H
  H52      1.0000 0.54760  0.09490  0.68700  Biso   1.000  H
  C49      1.0000 0.17640  0.54580  0.26460  Biso   1.000  C
  C50      1.0000 0.32360  0.45420  0.76460  Biso   1.000  C
  C51      1.0000 0.82360  0.04580  0.23540  Biso   1.000  C
  C52      1.0000 0.67640  0.95420  0.73540  Biso   1.000  C
  H53      1.0000 0.27160  0.58460  0.27940  Biso   1.000  H
  H54      1.0000 0.22840  0.41540  0.77940  Biso   1.000  H
  H55      1.0000 0.72840  0.08460  0.22060  Biso   1.000  H
  H56      1.0000 0.77160  0.91540  0.72060  Biso   1.000  H
  C53      1.0000 0.18620  0.49580  0.17390  Biso   1.000  C
  C54      1.0000 0.31380  0.50420  0.67390  Biso   1.000  C
  C55      1.0000 0.81380  0.99580  0.32610  Biso   1.000  C
  C56      1.0000 0.68620  0.00420  0.82610  Biso   1.000  C
  H57      1.0000 0.27970  0.45380  0.16560  Biso   1.000  H
  H58      1.0000 0.22030  0.54620  0.66560  Biso   1.000  H
  H59      1.0000 0.72030  0.95380  0.33440  Biso   1.000  H
  H60      1.0000 0.77970  0.04620  0.83440  Biso   1.000  H
  H61      1.0000 0.17780  0.56660  0.13620  Biso   1.000  H
  H62      1.0000 0.32220  0.43340  0.63620  Biso   1.000  H
  H63      1.0000 0.82220  0.06660  0.36380  Biso   1.000  H
  H64      1.0000 0.67780  0.93340  0.86380  Biso   1.000  H
  H65      1.0000 0.10730  0.43620  0.16380  Biso   1.000  H
  H66      1.0000 0.39270  0.56380  0.66380  Biso   1.000  H
  H67      1.0000 0.89270  0.93620  0.33620  Biso   1.000  H
  H68      1.0000 0.60730  0.06380  0.83620  Biso   1.000  H
  C57      1.0000 0.05740  0.64760  0.27090  Biso   1.000  C
  C58      1.0000 0.44260  0.35240  0.77090  Biso   1.000  C
  C59      1.0000 0.94260  0.14760  0.22910  Biso   1.000  C
  C60      1.0000 0.55740  0.85240  0.72910  Biso   1.000  C
  H69      1.0000 0.06150  0.68700  0.32450  Biso   1.000  H
  H70      1.0000 0.43850  0.31300  0.82450  Biso   1.000  H
  H71      1.0000 0.93850  0.18700  0.17550  Biso   1.000  H
  H72      1.0000 0.56150  0.81300  0.67550  Biso   1.000  H
  H73      1.0000 0.96190  0.60900  0.26310  Biso   1.000  H
  H74      1.0000 0.53810  0.39100  0.76310  Biso   1.000  H
  H75      1.0000 0.03810  0.10900  0.23690  Biso   1.000  H
  H76      1.0000 0.46190  0.89100  0.73690  Biso   1.000  H
  H77      1.0000 0.07330  0.71140  0.22900  Biso   1.000  H
  H78      1.0000 0.42670  0.28860  0.72900  Biso   1.000  H
  H79      1.0000 0.92670  0.21140  0.27100  Biso   1.000  H
  H80      1.0000 0.57330  0.78860  0.77100  Biso   1.000  H
