data_image0
_cell_length_a       9.791
_cell_length_b       6.85
_cell_length_c       25.56
_cell_angle_alpha    90
_cell_angle_beta     98.99
_cell_angle_gamma    90

_symmetry_space_group_name_H-M    "P 1"
_symmetry_int_tables_number       1

loop_
  _symmetry_equiv_pos_as_xyz
  'x, y, z'

loop_
  _atom_site_label
  _atom_site_occupancy
  _atom_site_fract_x
  _atom_site_fract_y
  _atom_site_fract_z
  _atom_site_thermal_displace_type
  _atom_site_B_iso_or_equiv
  _atom_site_type_symbol
  Cu1      1.0000 0.56574  0.35160  0.36480  Biso   1.000  Cu
  Cu2      1.0000 0.93426  0.85160  0.13520  Biso   1.000  Cu
  Cu3      1.0000 0.43426  0.64840  0.63520  Biso   1.000  Cu
  Cu4      1.0000 0.06574  0.14840  0.86480  Biso   1.000  Cu
  O1       1.0000 0.48860  0.41650  0.29340  Biso   1.000  O
  O2       1.0000 0.01140  0.91650  0.20660  Biso   1.000  O
  O3       1.0000 0.51140  0.58350  0.70660  Biso   1.000  O
  O4       1.0000 0.98860  0.08350  0.79340  Biso   1.000  O
  O5       1.0000 0.74850  0.29260  0.34710  Biso   1.000  O
  O6       1.0000 0.75150  0.79260  0.15290  Biso   1.000  O
  O7       1.0000 0.25150  0.70740  0.65290  Biso   1.000  O
  O8       1.0000 0.24850  0.20740  0.84710  Biso   1.000  O
  O9       1.0000 0.83700  0.19710  0.11080  Biso   1.000  O
  O10      1.0000 0.66300  0.69710  0.38920  Biso   1.000  O
  O11      1.0000 0.16300  0.80290  0.88920  Biso   1.000  O
  O12      1.0000 0.33700  0.30290  0.61080  Biso   1.000  O
  O13      1.0000 0.62540  0.23730  0.06470  Biso   1.000  O
  O14      1.0000 0.87460  0.73730  0.43530  Biso   1.000  O
  O15      1.0000 0.37460  0.76270  0.93530  Biso   1.000  O
  O16      1.0000 0.12540  0.26270  0.56470  Biso   1.000  O
  N1       1.0000 0.38310  0.37510  0.38980  Biso   1.000  N
  N2       1.0000 0.11690  0.87510  0.11020  Biso   1.000  N
  N3       1.0000 0.61690  0.62490  0.61020  Biso   1.000  N
  N4       1.0000 0.88310  0.12490  0.88980  Biso   1.000  N
  N5       1.0000 0.62410  0.27230  0.43990  Biso   1.000  N
  N6       1.0000 0.87590  0.77230  0.06010  Biso   1.000  N
  N7       1.0000 0.37590  0.72770  0.56010  Biso   1.000  N
  N8       1.0000 0.12410  0.22770  0.93990  Biso   1.000  N
  C1       1.0000 0.54330  0.37350  0.25180  Biso   1.000  C
  C2       1.0000 0.95670  0.87350  0.24820  Biso   1.000  C
  C3       1.0000 0.45670  0.62650  0.74820  Biso   1.000  C
  C4       1.0000 0.04330  0.12650  0.75180  Biso   1.000  C
  C5       1.0000 0.67900  0.29930  0.25300  Biso   1.000  C
  C6       1.0000 0.82100  0.79930  0.24700  Biso   1.000  C
  C7       1.0000 0.32100  0.70070  0.74700  Biso   1.000  C
  C8       1.0000 0.17900  0.20070  0.75300  Biso   1.000  C
  C9       1.0000 0.73040  0.26130  0.20540  Biso   1.000  C
  C10      1.0000 0.76960  0.76130  0.29460  Biso   1.000  C
  C11      1.0000 0.26960  0.73870  0.79460  Biso   1.000  C
  C12      1.0000 0.23040  0.23870  0.70540  Biso   1.000  C
  C13      1.0000 0.65340  0.28890  0.15640  Biso   1.000  C
  C14      1.0000 0.84660  0.78890  0.34360  Biso   1.000  C
  C15      1.0000 0.34660  0.71110  0.84360  Biso   1.000  C
  C16      1.0000 0.15340  0.21110  0.65640  Biso   1.000  C
  C17      1.0000 0.51980  0.36300  0.15570  Biso   1.000  C
  C18      1.0000 0.98020  0.86300  0.34430  Biso   1.000  C
  C19      1.0000 0.48020  0.63700  0.84430  Biso   1.000  C
  C20      1.0000 0.01980  0.13700  0.65570  Biso   1.000  C
  C21      1.0000 0.46630  0.40600  0.20050  Biso   1.000  C
  C22      1.0000 0.03370  0.90600  0.29950  Biso   1.000  C
  C23      1.0000 0.53370  0.59400  0.79950  Biso   1.000  C
  C24      1.0000 0.96630  0.09400  0.70050  Biso   1.000  C
  C25      1.0000 0.77150  0.27000  0.30140  Biso   1.000  C
  C26      1.0000 0.72850  0.77000  0.19860  Biso   1.000  C
  C27      1.0000 0.22850  0.73000  0.69860  Biso   1.000  C
  C28      1.0000 0.27150  0.23000  0.80140  Biso   1.000  C
  C29      1.0000 0.70790  0.23700  0.10610  Biso   1.000  C
  C30      1.0000 0.79210  0.73700  0.39390  Biso   1.000  C
  C31      1.0000 0.29210  0.76300  0.89390  Biso   1.000  C
  C32      1.0000 0.20790  0.26300  0.60610  Biso   1.000  C
  C33      1.0000 0.38560  0.32620  0.44140  Biso   1.000  C
  C34      1.0000 0.11440  0.82620  0.05860  Biso   1.000  C
  C35      1.0000 0.61440  0.67380  0.55860  Biso   1.000  C
  C36      1.0000 0.88560  0.17380  0.94140  Biso   1.000  C
  C37      1.0000 0.26560  0.32700  0.46390  Biso   1.000  C
  C38      1.0000 0.23440  0.82700  0.03610  Biso   1.000  C
  C39      1.0000 0.73440  0.67300  0.53610  Biso   1.000  C
  C40      1.0000 0.76560  0.17300  0.96390  Biso   1.000  C
  C41      1.0000 0.14310  0.37500  0.43360  Biso   1.000  C
  C42      1.0000 0.35690  0.87500  0.06640  Biso   1.000  C
  C43      1.0000 0.85690  0.62500  0.56640  Biso   1.000  C
  C44      1.0000 0.64310  0.12500  0.93360  Biso   1.000  C
  C45      1.0000 0.14030  0.42200  0.38120  Biso   1.000  C
  C46      1.0000 0.35970  0.92200  0.11880  Biso   1.000  C
  C47      1.0000 0.85970  0.57800  0.61880  Biso   1.000  C
  C48      1.0000 0.64030  0.07800  0.88120  Biso   1.000  C
  C49      1.0000 0.26160  0.42000  0.36010  Biso   1.000  C
  C50      1.0000 0.23840  0.92000  0.13990  Biso   1.000  C
  C51      1.0000 0.73840  0.58000  0.63990  Biso   1.000  C
  C52      1.0000 0.76160  0.08000  0.86010  Biso   1.000  C
  C53      1.0000 0.52200  0.27260  0.46970  Biso   1.000  C
  C54      1.0000 0.97800  0.77260  0.03030  Biso   1.000  C
  C55      1.0000 0.47800  0.72740  0.53030  Biso   1.000  C
  C56      1.0000 0.02200  0.22740  0.96970  Biso   1.000  C
  C57      1.0000 0.54780  0.22150  0.52320  Biso   1.000  C
  C58      1.0000 0.95220  0.72150  0.97680  Biso   1.000  C
  C59      1.0000 0.45220  0.77850  0.47680  Biso   1.000  C
  C60      1.0000 0.04780  0.27850  0.02320  Biso   1.000  C
  C61      1.0000 0.68050  0.17100  0.54490  Biso   1.000  C
  C62      1.0000 0.81950  0.67100  0.95510  Biso   1.000  C
  C63      1.0000 0.31950  0.82900  0.45510  Biso   1.000  C
  C64      1.0000 0.18050  0.32900  0.04490  Biso   1.000  C
  C65      1.0000 0.78380  0.16900  0.51430  Biso   1.000  C
  C66      1.0000 0.71620  0.66900  0.98570  Biso   1.000  C
  C67      1.0000 0.21620  0.83100  0.48570  Biso   1.000  C
  C68      1.0000 0.28380  0.33100  0.01430  Biso   1.000  C
  C69      1.0000 0.75180  0.22100  0.46160  Biso   1.000  C
  C70      1.0000 0.74820  0.72100  0.03840  Biso   1.000  C
  C71      1.0000 0.24820  0.77900  0.53840  Biso   1.000  C
  C72      1.0000 0.25180  0.27900  0.96160  Biso   1.000  C
  O17      1.0000 0.49320  0.97860  0.34480  Biso   1.000  O
  O18      1.0000 0.00680  0.47860  0.15520  Biso   1.000  O
  O19      1.0000 0.50680  0.02140  0.65520  Biso   1.000  O
  O20      1.0000 0.99320  0.52140  0.84480  Biso   1.000  O
  C73      1.0000 0.42160  0.93400  0.29610  Biso   1.000  C
  C74      1.0000 0.07840  0.43400  0.20390  Biso   1.000  C
  C75      1.0000 0.57840  0.06600  0.70390  Biso   1.000  C
  C76      1.0000 0.92160  0.56600  0.79610  Biso   1.000  C
