data_image0
_cell_length_a       16.006
_cell_length_b       16.006
_cell_length_c       27.745
_cell_angle_alpha    90
_cell_angle_beta     90
_cell_angle_gamma    90

_symmetry_space_group_name_H-M    "P 1"
_symmetry_int_tables_number       1

loop_
  _symmetry_equiv_pos_as_xyz
  'x, y, z'

loop_
  _atom_site_label
  _atom_site_occupancy
  _atom_site_fract_x
  _atom_site_fract_y
  _atom_site_fract_z
  _atom_site_thermal_displace_type
  _atom_site_B_iso_or_equiv
  _atom_site_type_symbol
  Cu1      1.0000 0.46740  0.07790  0.08816  Biso   1.000  Cu
  Cu2      1.0000 0.67210  0.71740  0.33816  Biso   1.000  Cu
  Cu3      1.0000 0.03260  0.92210  0.58816  Biso   1.000  Cu
  Cu4      1.0000 0.82790  0.28260  0.83816  Biso   1.000  Cu
  Cu5      1.0000 0.96740  0.57790  0.58816  Biso   1.000  Cu
  Cu6      1.0000 0.17210  0.21740  0.83816  Biso   1.000  Cu
  Cu7      1.0000 0.53260  0.42210  0.08816  Biso   1.000  Cu
  Cu8      1.0000 0.32790  0.78260  0.33816  Biso   1.000  Cu
  Cu9      1.0000 0.53260  0.92210  0.91184  Biso   1.000  Cu
  Cu10     1.0000 0.82790  0.78260  0.16184  Biso   1.000  Cu
  Cu11     1.0000 0.96740  0.07790  0.41184  Biso   1.000  Cu
  Cu12     1.0000 0.67210  0.21740  0.66184  Biso   1.000  Cu
  Cu13     1.0000 0.03260  0.42210  0.41184  Biso   1.000  Cu
  Cu14     1.0000 0.32790  0.28260  0.66184  Biso   1.000  Cu
  Cu15     1.0000 0.46740  0.57790  0.91184  Biso   1.000  Cu
  Cu16     1.0000 0.17210  0.71740  0.16184  Biso   1.000  Cu
  O1       1.0000 0.58130  0.10840  0.07510  Biso   1.000  O
  O2       1.0000 0.64160  0.83130  0.32510  Biso   1.000  O
  O3       1.0000 0.91870  0.89160  0.57510  Biso   1.000  O
  O4       1.0000 0.85840  0.16870  0.82510  Biso   1.000  O
  O5       1.0000 0.08130  0.60840  0.57510  Biso   1.000  O
  O6       1.0000 0.14160  0.33130  0.82510  Biso   1.000  O
  O7       1.0000 0.41870  0.39160  0.07510  Biso   1.000  O
  O8       1.0000 0.35840  0.66870  0.32510  Biso   1.000  O
  O9       1.0000 0.41870  0.89160  0.92490  Biso   1.000  O
  O10      1.0000 0.85840  0.66870  0.17490  Biso   1.000  O
  O11      1.0000 0.08130  0.10840  0.42490  Biso   1.000  O
  O12      1.0000 0.64160  0.33130  0.67490  Biso   1.000  O
  O13      1.0000 0.91870  0.39160  0.42490  Biso   1.000  O
  O14      1.0000 0.35840  0.16870  0.67490  Biso   1.000  O
  O15      1.0000 0.58130  0.60840  0.92490  Biso   1.000  O
  O16      1.0000 0.14160  0.83130  0.17490  Biso   1.000  O
  O17      1.0000 0.80460  0.25210  0.90620  Biso   1.000  O
  O18      1.0000 0.49790  0.05460  0.15620  Biso   1.000  O
  O19      1.0000 0.69540  0.74790  0.40620  Biso   1.000  O
  O20      1.0000 0.00210  0.94540  0.65620  Biso   1.000  O
  O21      1.0000 0.30460  0.75210  0.40620  Biso   1.000  O
  O22      1.0000 0.99790  0.55460  0.65620  Biso   1.000  O
  O23      1.0000 0.19540  0.24790  0.90620  Biso   1.000  O
  O24      1.0000 0.50210  0.44540  0.15620  Biso   1.000  O
  O25      1.0000 0.19540  0.74790  0.09380  Biso   1.000  O
  O26      1.0000 0.00210  0.44540  0.34380  Biso   1.000  O
  O27      1.0000 0.30460  0.25210  0.59380  Biso   1.000  O
  O28      1.0000 0.49790  0.55460  0.84380  Biso   1.000  O
  O29      1.0000 0.69540  0.24790  0.59380  Biso   1.000  O
  O30      1.0000 0.50210  0.94540  0.84380  Biso   1.000  O
  O31      1.0000 0.80460  0.75210  0.09380  Biso   1.000  O
  O32      1.0000 0.99790  0.05460  0.34380  Biso   1.000  O
  O33      1.0000 0.68800  0.23610  0.86720  Biso   1.000  O
  O34      1.0000 0.51390  0.93800  0.11720  Biso   1.000  O
  O35      1.0000 0.81200  0.76390  0.36720  Biso   1.000  O
  O36      1.0000 0.98610  0.06200  0.61720  Biso   1.000  O
  O37      1.0000 0.18800  0.73610  0.36720  Biso   1.000  O
  O38      1.0000 0.01390  0.43800  0.61720  Biso   1.000  O
  O39      1.0000 0.31200  0.26390  0.86720  Biso   1.000  O
  O40      1.0000 0.48610  0.56200  0.11720  Biso   1.000  O
  O41      1.0000 0.31200  0.76390  0.13280  Biso   1.000  O
  O42      1.0000 0.98610  0.56200  0.38280  Biso   1.000  O
  O43      1.0000 0.18800  0.23610  0.63280  Biso   1.000  O
  O44      1.0000 0.51390  0.43800  0.88280  Biso   1.000  O
  O45      1.0000 0.81200  0.26390  0.63280  Biso   1.000  O
  O46      1.0000 0.48610  0.06200  0.88280  Biso   1.000  O
  O47      1.0000 0.68800  0.73610  0.13280  Biso   1.000  O
  O48      1.0000 0.01390  0.93800  0.38280  Biso   1.000  O
  N1       1.0000 0.43240  0.10040  0.02230  Biso   1.000  N
  N2       1.0000 0.64960  0.68240  0.27230  Biso   1.000  N
  N3       1.0000 0.06760  0.89960  0.52230  Biso   1.000  N
  N4       1.0000 0.85040  0.31760  0.77230  Biso   1.000  N
  N5       1.0000 0.93240  0.60040  0.52230  Biso   1.000  N
  N6       1.0000 0.14960  0.18240  0.77230  Biso   1.000  N
  N7       1.0000 0.56760  0.39960  0.02230  Biso   1.000  N
  N8       1.0000 0.35040  0.81760  0.27230  Biso   1.000  N
  N9       1.0000 0.56760  0.89960  0.97770  Biso   1.000  N
  N10      1.0000 0.85040  0.81760  0.22770  Biso   1.000  N
  N11      1.0000 0.93240  0.10040  0.47770  Biso   1.000  N
  N12      1.0000 0.64960  0.18240  0.72770  Biso   1.000  N
  N13      1.0000 0.06760  0.39960  0.47770  Biso   1.000  N
  N14      1.0000 0.35040  0.31760  0.72770  Biso   1.000  N
  N15      1.0000 0.43240  0.60040  0.97770  Biso   1.000  N
  N16      1.0000 0.14960  0.68240  0.22770  Biso   1.000  N
  N17      1.0000 0.34220  0.06280  0.10000  Biso   1.000  N
  N18      1.0000 0.68720  0.59220  0.35000  Biso   1.000  N
  N19      1.0000 0.15780  0.93720  0.60000  Biso   1.000  N
  N20      1.0000 0.81280  0.40780  0.85000  Biso   1.000  N
  N21      1.0000 0.84220  0.56280  0.60000  Biso   1.000  N
  N22      1.0000 0.18720  0.09220  0.85000  Biso   1.000  N
  N23      1.0000 0.65780  0.43720  0.10000  Biso   1.000  N
  N24      1.0000 0.31280  0.90780  0.35000  Biso   1.000  N
  N25      1.0000 0.65780  0.93720  0.90000  Biso   1.000  N
  N26      1.0000 0.81280  0.90780  0.15000  Biso   1.000  N
  N27      1.0000 0.84220  0.06280  0.40000  Biso   1.000  N
  N28      1.0000 0.68720  0.09220  0.65000  Biso   1.000  N
  N29      1.0000 0.15780  0.43720  0.40000  Biso   1.000  N
  N30      1.0000 0.31280  0.40780  0.65000  Biso   1.000  N
  N31      1.0000 0.34220  0.56280  0.90000  Biso   1.000  N
  N32      1.0000 0.18720  0.59220  0.15000  Biso   1.000  N
  C1       1.0000 0.61410  0.13610  0.03530  Biso   1.000  C
  C2       1.0000 0.61390  0.86410  0.28530  Biso   1.000  C
  C3       1.0000 0.88590  0.86390  0.53530  Biso   1.000  C
  C4       1.0000 0.88610  0.13590  0.78530  Biso   1.000  C
  C5       1.0000 0.11410  0.63610  0.53530  Biso   1.000  C
  C6       1.0000 0.11390  0.36410  0.78530  Biso   1.000  C
  C7       1.0000 0.38590  0.36390  0.03530  Biso   1.000  C
  C8       1.0000 0.38610  0.63590  0.28530  Biso   1.000  C
  C9       1.0000 0.38590  0.86390  0.96470  Biso   1.000  C
  C10      1.0000 0.88610  0.63590  0.21470  Biso   1.000  C
  C11      1.0000 0.11410  0.13610  0.46470  Biso   1.000  C
  C12      1.0000 0.61390  0.36410  0.71470  Biso   1.000  C
  C13      1.0000 0.88590  0.36390  0.46470  Biso   1.000  C
  C14      1.0000 0.38610  0.13590  0.71470  Biso   1.000  C
  C15      1.0000 0.61410  0.63610  0.96470  Biso   1.000  C
  C16      1.0000 0.11390  0.86410  0.21470  Biso   1.000  C
  C17      1.0000 0.56560  0.14810  0.99210  Biso   1.000  C
  C18      1.0000 0.60190  0.81560  0.24210  Biso   1.000  C
  C19      1.0000 0.93440  0.85190  0.49210  Biso   1.000  C
  C20      1.0000 0.89810  0.18440  0.74210  Biso   1.000  C
  C21      1.0000 0.06560  0.64810  0.49210  Biso   1.000  C
  C22      1.0000 0.10190  0.31560  0.74210  Biso   1.000  C
  C23      1.0000 0.43440  0.35190  0.99210  Biso   1.000  C
  C24      1.0000 0.39810  0.68440  0.24210  Biso   1.000  C
  C25      1.0000 0.43440  0.85190  0.00790  Biso   1.000  C
  C26      1.0000 0.89810  0.68440  0.25790  Biso   1.000  C
  C27      1.0000 0.06560  0.14810  0.50790  Biso   1.000  C
  C28      1.0000 0.60190  0.31560  0.75790  Biso   1.000  C
  C29      1.0000 0.93440  0.35190  0.50790  Biso   1.000  C
  C30      1.0000 0.39810  0.18440  0.75790  Biso   1.000  C
  C31      1.0000 0.56560  0.64810  0.00790  Biso   1.000  C
  C32      1.0000 0.10190  0.81560  0.25790  Biso   1.000  C
  C33      1.0000 0.60640  0.17900  0.95120  Biso   1.000  C
  C34      1.0000 0.57100  0.85640  0.20120  Biso   1.000  C
  C35      1.0000 0.89360  0.82100  0.45120  Biso   1.000  C
  C36      1.0000 0.92900  0.14360  0.70120  Biso   1.000  C
  C37      1.0000 0.10640  0.67900  0.45120  Biso   1.000  C
  C38      1.0000 0.07100  0.35640  0.70120  Biso   1.000  C
  C39      1.0000 0.39360  0.32100  0.95120  Biso   1.000  C
  C40      1.0000 0.42900  0.64360  0.20120  Biso   1.000  C
  C41      1.0000 0.39360  0.82100  0.04880  Biso   1.000  C
  C42      1.0000 0.92900  0.64360  0.29880  Biso   1.000  C
  C43      1.0000 0.10640  0.17900  0.54880  Biso   1.000  C
  C44      1.0000 0.57100  0.35640  0.79880  Biso   1.000  C
  C45      1.0000 0.89360  0.32100  0.54880  Biso   1.000  C
  C46      1.0000 0.42900  0.14360  0.79880  Biso   1.000  C
  C47      1.0000 0.60640  0.67900  0.04880  Biso   1.000  C
  C48      1.0000 0.07100  0.85640  0.29880  Biso   1.000  C
  C49      1.0000 0.68910  0.19810  0.95010  Biso   1.000  C
  C50      1.0000 0.55190  0.93910  0.20010  Biso   1.000  C
  C51      1.0000 0.81090  0.80190  0.45010  Biso   1.000  C
  C52      1.0000 0.94810  0.06090  0.70010  Biso   1.000  C
  C53      1.0000 0.18910  0.69810  0.45010  Biso   1.000  C
  C54      1.0000 0.05190  0.43910  0.70010  Biso   1.000  C
  C55      1.0000 0.31090  0.30190  0.95010  Biso   1.000  C
  C56      1.0000 0.44810  0.56090  0.20010  Biso   1.000  C
  C57      1.0000 0.31090  0.80190  0.04990  Biso   1.000  C
  C58      1.0000 0.94810  0.56090  0.29990  Biso   1.000  C
  C59      1.0000 0.18910  0.19810  0.54990  Biso   1.000  C
  C60      1.0000 0.55190  0.43910  0.79990  Biso   1.000  C
  C61      1.0000 0.81090  0.30190  0.54990  Biso   1.000  C
  C62      1.0000 0.44810  0.06090  0.79990  Biso   1.000  C
  C63      1.0000 0.68910  0.69810  0.04990  Biso   1.000  C
  C64      1.0000 0.05190  0.93910  0.29990  Biso   1.000  C
  C65      1.0000 0.73560  0.18560  0.99170  Biso   1.000  C
  C66      1.0000 0.56440  0.98560  0.24170  Biso   1.000  C
  C67      1.0000 0.76440  0.81440  0.49170  Biso   1.000  C
  C68      1.0000 0.93560  0.01440  0.74170  Biso   1.000  C
  C69      1.0000 0.23560  0.68560  0.49170  Biso   1.000  C
  C70      1.0000 0.06440  0.48560  0.74170  Biso   1.000  C
  C71      1.0000 0.26440  0.31440  0.99170  Biso   1.000  C
  C72      1.0000 0.43560  0.51440  0.24170  Biso   1.000  C
  C73      1.0000 0.26440  0.81440  0.00830  Biso   1.000  C
  C74      1.0000 0.93560  0.51440  0.25830  Biso   1.000  C
  C75      1.0000 0.23560  0.18560  0.50830  Biso   1.000  C
  C76      1.0000 0.56440  0.48560  0.75830  Biso   1.000  C
  C77      1.0000 0.76440  0.31440  0.50830  Biso   1.000  C
  C78      1.0000 0.43560  0.01440  0.75830  Biso   1.000  C
  C79      1.0000 0.73560  0.68560  0.00830  Biso   1.000  C
  C80      1.0000 0.06440  0.98560  0.25830  Biso   1.000  C
  C81      1.0000 0.69870  0.15550  0.03330  Biso   1.000  C
  C82      1.0000 0.59450  0.94870  0.28330  Biso   1.000  C
  C83      1.0000 0.80130  0.84450  0.53330  Biso   1.000  C
  C84      1.0000 0.90550  0.05130  0.78330  Biso   1.000  C
  C85      1.0000 0.19870  0.65550  0.53330  Biso   1.000  C
  C86      1.0000 0.09450  0.44870  0.78330  Biso   1.000  C
  C87      1.0000 0.30130  0.34450  0.03330  Biso   1.000  C
  C88      1.0000 0.40550  0.55130  0.28330  Biso   1.000  C
  C89      1.0000 0.30130  0.84450  0.96670  Biso   1.000  C
  C90      1.0000 0.90550  0.55130  0.21670  Biso   1.000  C
  C91      1.0000 0.19870  0.15550  0.46670  Biso   1.000  C
  C92      1.0000 0.59450  0.44870  0.71670  Biso   1.000  C
  C93      1.0000 0.80130  0.34450  0.46670  Biso   1.000  C
  C94      1.0000 0.40550  0.05130  0.71670  Biso   1.000  C
  C95      1.0000 0.69870  0.65550  0.96670  Biso   1.000  C
  C96      1.0000 0.09450  0.94870  0.21670  Biso   1.000  C
  C97      1.0000 0.47780  0.12820  0.98870  Biso   1.000  C
  C98      1.0000 0.62180  0.72780  0.23870  Biso   1.000  C
  C99      1.0000 0.02220  0.87180  0.48870  Biso   1.000  C
  C100     1.0000 0.87820  0.27220  0.73870  Biso   1.000  C
  C101     1.0000 0.97780  0.62820  0.48870  Biso   1.000  C
  C102     1.0000 0.12180  0.22780  0.73870  Biso   1.000  C
  C103     1.0000 0.52220  0.37180  0.98870  Biso   1.000  C
  C104     1.0000 0.37820  0.77220  0.23870  Biso   1.000  C
  C105     1.0000 0.52220  0.87180  0.01130  Biso   1.000  C
  C106     1.0000 0.87820  0.77220  0.26130  Biso   1.000  C
  C107     1.0000 0.97780  0.12820  0.51130  Biso   1.000  C
  C108     1.0000 0.62180  0.22780  0.76130  Biso   1.000  C
  C109     1.0000 0.02220  0.37180  0.51130  Biso   1.000  C
  C110     1.0000 0.37820  0.27220  0.76130  Biso   1.000  C
  C111     1.0000 0.47780  0.62820  0.01130  Biso   1.000  C
  C112     1.0000 0.12180  0.72780  0.26130  Biso   1.000  C
  C113     1.0000 0.72770  0.23080  0.90450  Biso   1.000  C
  C114     1.0000 0.51920  0.97770  0.15450  Biso   1.000  C
  C115     1.0000 0.77230  0.76920  0.40450  Biso   1.000  C
  C116     1.0000 0.98080  0.02230  0.65450  Biso   1.000  C
  C117     1.0000 0.22770  0.73080  0.40450  Biso   1.000  C
  C118     1.0000 0.01920  0.47770  0.65450  Biso   1.000  C
  C119     1.0000 0.27230  0.26920  0.90450  Biso   1.000  C
  C120     1.0000 0.48080  0.52230  0.15450  Biso   1.000  C
  C121     1.0000 0.27230  0.76920  0.09550  Biso   1.000  C
  C122     1.0000 0.98080  0.52230  0.34550  Biso   1.000  C
  C123     1.0000 0.22770  0.23080  0.59550  Biso   1.000  C
  C124     1.0000 0.51920  0.47770  0.84550  Biso   1.000  C
  C125     1.0000 0.77230  0.26920  0.59550  Biso   1.000  C
  C126     1.0000 0.48080  0.02230  0.84550  Biso   1.000  C
  C127     1.0000 0.72770  0.73080  0.09550  Biso   1.000  C
  C128     1.0000 0.01920  0.97770  0.34550  Biso   1.000  C
  C129     1.0000 0.34340  0.08700  0.01310  Biso   1.000  C
  C130     1.0000 0.66300  0.59340  0.26310  Biso   1.000  C
  C131     1.0000 0.15660  0.91300  0.51310  Biso   1.000  C
  C132     1.0000 0.83700  0.40660  0.76310  Biso   1.000  C
  C133     1.0000 0.84340  0.58700  0.51310  Biso   1.000  C
  C134     1.0000 0.16300  0.09340  0.76310  Biso   1.000  C
  C135     1.0000 0.65660  0.41300  0.01310  Biso   1.000  C
  C136     1.0000 0.33700  0.90660  0.26310  Biso   1.000  C
  C137     1.0000 0.65660  0.91300  0.98690  Biso   1.000  C
  C138     1.0000 0.83700  0.90660  0.23690  Biso   1.000  C
  C139     1.0000 0.84340  0.08700  0.48690  Biso   1.000  C
  C140     1.0000 0.66300  0.09340  0.73690  Biso   1.000  C
  C141     1.0000 0.15660  0.41300  0.48690  Biso   1.000  C
  C142     1.0000 0.33700  0.40660  0.73690  Biso   1.000  C
  C143     1.0000 0.34340  0.58700  0.98690  Biso   1.000  C
  C144     1.0000 0.16300  0.59340  0.23690  Biso   1.000  C
  C145     1.0000 0.30880  0.03410  0.05170  Biso   1.000  C
  C146     1.0000 0.71590  0.55880  0.30170  Biso   1.000  C
  C147     1.0000 0.19120  0.96590  0.55170  Biso   1.000  C
  C148     1.0000 0.78410  0.44120  0.80170  Biso   1.000  C
  C149     1.0000 0.80880  0.53410  0.55170  Biso   1.000  C
  C150     1.0000 0.21590  0.05880  0.80170  Biso   1.000  C
  C151     1.0000 0.69120  0.46590  0.05170  Biso   1.000  C
  C152     1.0000 0.28410  0.94120  0.30170  Biso   1.000  C
  C153     1.0000 0.69120  0.96590  0.94830  Biso   1.000  C
  C154     1.0000 0.78410  0.94120  0.19830  Biso   1.000  C
  C155     1.0000 0.80880  0.03410  0.44830  Biso   1.000  C
  C156     1.0000 0.71590  0.05880  0.69830  Biso   1.000  C
  C157     1.0000 0.19120  0.46590  0.44830  Biso   1.000  C
  C158     1.0000 0.28410  0.44120  0.69830  Biso   1.000  C
  C159     1.0000 0.30880  0.53410  0.94830  Biso   1.000  C
  C160     1.0000 0.21590  0.55880  0.19830  Biso   1.000  C
  C161     1.0000 0.30700  0.14100  0.11340  Biso   1.000  C
  C162     1.0000 0.60900  0.55700  0.36340  Biso   1.000  C
  C163     1.0000 0.19300  0.85900  0.61340  Biso   1.000  C
  C164     1.0000 0.89100  0.44300  0.86340  Biso   1.000  C
  C165     1.0000 0.80700  0.64100  0.61340  Biso   1.000  C
  C166     1.0000 0.10900  0.05700  0.86340  Biso   1.000  C
  C167     1.0000 0.69300  0.35900  0.11340  Biso   1.000  C
  C168     1.0000 0.39100  0.94300  0.36340  Biso   1.000  C
  C169     1.0000 0.69300  0.85900  0.88660  Biso   1.000  C
  C170     1.0000 0.89100  0.94300  0.13660  Biso   1.000  C
  C171     1.0000 0.80700  0.14100  0.38660  Biso   1.000  C
  C172     1.0000 0.60900  0.05700  0.63660  Biso   1.000  C
  C173     1.0000 0.19300  0.35900  0.38660  Biso   1.000  C
  C174     1.0000 0.39100  0.44300  0.63660  Biso   1.000  C
  C175     1.0000 0.30700  0.64100  0.88660  Biso   1.000  C
  C176     1.0000 0.10900  0.55700  0.13660  Biso   1.000  C
  C177     1.0000 0.31690  0.99900  0.13520  Biso   1.000  C
  C178     1.0000 0.75100  0.56690  0.38520  Biso   1.000  C
  C179     1.0000 0.18310  0.00100  0.63520  Biso   1.000  C
  C180     1.0000 0.74900  0.43310  0.88520  Biso   1.000  C
  C181     1.0000 0.81690  0.49900  0.63520  Biso   1.000  C
  C182     1.0000 0.25100  0.06690  0.88520  Biso   1.000  C
  C183     1.0000 0.68310  0.50100  0.13520  Biso   1.000  C
  C184     1.0000 0.24900  0.93310  0.38520  Biso   1.000  C
  C185     1.0000 0.68310  0.00100  0.86480  Biso   1.000  C
  C186     1.0000 0.74900  0.93310  0.11480  Biso   1.000  C
  C187     1.0000 0.81690  0.99900  0.36480  Biso   1.000  C
  C188     1.0000 0.75100  0.06690  0.61480  Biso   1.000  C
  C189     1.0000 0.18310  0.50100  0.36480  Biso   1.000  C
  C190     1.0000 0.24900  0.43310  0.61480  Biso   1.000  C
  C191     1.0000 0.31690  0.49900  0.86480  Biso   1.000  C
  C192     1.0000 0.25100  0.56690  0.11480  Biso   1.000  C
  O49      1.0000 0.09700  0.47700  0.01010  Biso   1.000  O
  O50      1.0000 0.27300  0.34700  0.26010  Biso   1.000  O
  O51      1.0000 0.40300  0.52300  0.51010  Biso   1.000  O
  O52      1.0000 0.22700  0.65300  0.76010  Biso   1.000  O
  O53      1.0000 0.59700  0.97700  0.51010  Biso   1.000  O
  O54      1.0000 0.77300  0.84700  0.76010  Biso   1.000  O
  O55      1.0000 0.90300  0.02300  0.01010  Biso   1.000  O
  O56      1.0000 0.72700  0.15300  0.26010  Biso   1.000  O
  O57      1.0000 0.90300  0.52300  0.98990  Biso   1.000  O
  O58      1.0000 0.22700  0.15300  0.23990  Biso   1.000  O
  O59      1.0000 0.59700  0.47700  0.48990  Biso   1.000  O
  O60      1.0000 0.27300  0.84700  0.73990  Biso   1.000  O
  O61      1.0000 0.40300  0.02300  0.48990  Biso   1.000  O
  O62      1.0000 0.72700  0.65300  0.73990  Biso   1.000  O
  O63      1.0000 0.09700  0.97700  0.98990  Biso   1.000  O
  O64      1.0000 0.77300  0.34700  0.23990  Biso   1.000  O
  O65      1.0000 0.06700  0.08200  0.10400  Biso   1.000  O
  O66      1.0000 0.66800  0.31700  0.35400  Biso   1.000  O
  O67      1.0000 0.43300  0.91800  0.60400  Biso   1.000  O
  O68      1.0000 0.83200  0.68300  0.85400  Biso   1.000  O
  O69      1.0000 0.56700  0.58200  0.60400  Biso   1.000  O
  O70      1.0000 0.16800  0.81700  0.85400  Biso   1.000  O
  O71      1.0000 0.93300  0.41800  0.10400  Biso   1.000  O
  O72      1.0000 0.33200  0.18300  0.35400  Biso   1.000  O
  O73      1.0000 0.93300  0.91800  0.89600  Biso   1.000  O
  O74      1.0000 0.83200  0.18300  0.14600  Biso   1.000  O
  O75      1.0000 0.56700  0.08200  0.39600  Biso   1.000  O
  O76      1.0000 0.66800  0.81700  0.64600  Biso   1.000  O
  O77      1.0000 0.43300  0.41800  0.39600  Biso   1.000  O
  O78      1.0000 0.33200  0.68300  0.64600  Biso   1.000  O
  O79      1.0000 0.06700  0.58200  0.89600  Biso   1.000  O
  O80      1.0000 0.16800  0.31700  0.14600  Biso   1.000  O
  O81      1.0000 0.40240  0.07800  0.58700  Biso   1.000  O
  O82      1.0000 0.67200  0.65240  0.83700  Biso   1.000  O
  O83      1.0000 0.09760  0.92200  0.08700  Biso   1.000  O
  O84      1.0000 0.82800  0.34760  0.33700  Biso   1.000  O
  O85      1.0000 0.90240  0.57800  0.08700  Biso   1.000  O
  O86      1.0000 0.17200  0.15240  0.33700  Biso   1.000  O
  O87      1.0000 0.59760  0.42200  0.58700  Biso   1.000  O
  O88      1.0000 0.32800  0.84760  0.83700  Biso   1.000  O
  O89      1.0000 0.59760  0.92200  0.41300  Biso   1.000  O
  O90      1.0000 0.82800  0.84760  0.66300  Biso   1.000  O
  O91      1.0000 0.90240  0.07800  0.91300  Biso   1.000  O
  O92      1.0000 0.67200  0.15240  0.16300  Biso   1.000  O
  O93      1.0000 0.09760  0.42200  0.91300  Biso   1.000  O
  O94      1.0000 0.32800  0.34760  0.16300  Biso   1.000  O
  O95      1.0000 0.40240  0.57800  0.41300  Biso   1.000  O
  O96      1.0000 0.17200  0.65240  0.66300  Biso   1.000  O
  O97      1.0000 0.60300  0.16400  0.52100  Biso   1.000  O
  O98      1.0000 0.58600  0.85300  0.77100  Biso   1.000  O
  O99      1.0000 0.89700  0.83600  0.02100  Biso   1.000  O
  O100     1.0000 0.91400  0.14700  0.27100  Biso   1.000  O
  O101     1.0000 0.10300  0.66400  0.02100  Biso   1.000  O
  O102     1.0000 0.08600  0.35300  0.27100  Biso   1.000  O
  O103     1.0000 0.39700  0.33600  0.52100  Biso   1.000  O
  O104     1.0000 0.41400  0.64700  0.77100  Biso   1.000  O
  O105     1.0000 0.39700  0.83600  0.47900  Biso   1.000  O
  O106     1.0000 0.91400  0.64700  0.72900  Biso   1.000  O
  O107     1.0000 0.10300  0.16400  0.97900  Biso   1.000  O
  O108     1.0000 0.58600  0.35300  0.22900  Biso   1.000  O
  O109     1.0000 0.89700  0.33600  0.97900  Biso   1.000  O
  O110     1.0000 0.41400  0.14700  0.22900  Biso   1.000  O
  O111     1.0000 0.60300  0.66400  0.47900  Biso   1.000  O
  O112     1.0000 0.08600  0.85300  0.72900  Biso   1.000  O
  O113     1.0000 0.91400  0.16200  0.06400  Biso   1.000  O
  O114     1.0000 0.58800  0.16400  0.31400  Biso   1.000  O
  O115     1.0000 0.58600  0.83800  0.56400  Biso   1.000  O
  O116     1.0000 0.91200  0.83600  0.81400  Biso   1.000  O
  O117     1.0000 0.41400  0.66200  0.56400  Biso   1.000  O
  O118     1.0000 0.08800  0.66400  0.81400  Biso   1.000  O
  O119     1.0000 0.08600  0.33800  0.06400  Biso   1.000  O
  O120     1.0000 0.41200  0.33600  0.31400  Biso   1.000  O
  O121     1.0000 0.08600  0.83800  0.93600  Biso   1.000  O
  O122     1.0000 0.91200  0.33600  0.18600  Biso   1.000  O
  O123     1.0000 0.41400  0.16200  0.43600  Biso   1.000  O
  O124     1.0000 0.58800  0.66400  0.68600  Biso   1.000  O
  O125     1.0000 0.58600  0.33800  0.43600  Biso   1.000  O
  O126     1.0000 0.41200  0.83600  0.68600  Biso   1.000  O
  O127     1.0000 0.91400  0.66200  0.93600  Biso   1.000  O
  O128     1.0000 0.08800  0.16400  0.18600  Biso   1.000  O
