data_image0
_cell_length_a       9.149
_cell_length_b       17.566
_cell_length_c       11.004
_cell_angle_alpha    90
_cell_angle_beta     110.03
_cell_angle_gamma    90

_symmetry_space_group_name_H-M    "P 1"
_symmetry_int_tables_number       1

loop_
  _symmetry_equiv_pos_as_xyz
  'x, y, z'

loop_
  _atom_site_label
  _atom_site_occupancy
  _atom_site_fract_x
  _atom_site_fract_y
  _atom_site_fract_z
  _atom_site_thermal_displace_type
  _atom_site_B_iso_or_equiv
  _atom_site_type_symbol
  Cu1      1.0000 0.11600  0.72958  0.12770  Biso   1.000  Cu
  Cu2      1.0000 0.88400  0.22958  0.37230  Biso   1.000  Cu
  Cu3      1.0000 0.88400  0.27042  0.87230  Biso   1.000  Cu
  Cu4      1.0000 0.11600  0.77042  0.62770  Biso   1.000  Cu
  O1       1.0000 0.17900  0.63430  0.21840  Biso   1.000  O
  O2       1.0000 0.82100  0.13430  0.28160  Biso   1.000  O
  O3       1.0000 0.82100  0.36570  0.78160  Biso   1.000  O
  O4       1.0000 0.17900  0.86570  0.71840  Biso   1.000  O
  O5       1.0000 0.95000  0.29570  0.22410  Biso   1.000  O
  O6       1.0000 0.05000  0.79570  0.27590  Biso   1.000  O
  O7       1.0000 0.05000  0.70430  0.77590  Biso   1.000  O
  O8       1.0000 0.95000  0.20430  0.72410  Biso   1.000  O
  O9       1.0000 0.74100  0.34190  0.07400  Biso   1.000  O
  O10      1.0000 0.25900  0.84190  0.42600  Biso   1.000  O
  O11      1.0000 0.25900  0.65810  0.92600  Biso   1.000  O
  O12      1.0000 0.74100  0.15810  0.57400  Biso   1.000  O
  N1       1.0000 0.89800  0.69400  0.05610  Biso   1.000  N
  N2       1.0000 0.10200  0.19400  0.44390  Biso   1.000  N
  N3       1.0000 0.10200  0.30600  0.94390  Biso   1.000  N
  N4       1.0000 0.89800  0.80600  0.55610  Biso   1.000  N
  N5       1.0000 0.08600  0.81720  0.99550  Biso   1.000  N
  N6       1.0000 0.91400  0.31720  0.50450  Biso   1.000  N
  N7       1.0000 0.91400  0.18280  0.00450  Biso   1.000  N
  N8       1.0000 0.08600  0.68280  0.49550  Biso   1.000  N
  N9       1.0000 0.34900  0.75110  0.21100  Biso   1.000  N
  N10      1.0000 0.65100  0.25110  0.28900  Biso   1.000  N
  N11      1.0000 0.65100  0.24890  0.78900  Biso   1.000  N
  N12      1.0000 0.34900  0.74890  0.71100  Biso   1.000  N
  C1       1.0000 0.10900  0.56800  0.19800  Biso   1.000  C
  C2       1.0000 0.89100  0.06800  0.30200  Biso   1.000  C
  C3       1.0000 0.89100  0.43200  0.80200  Biso   1.000  C
  C4       1.0000 0.10900  0.93200  0.69800  Biso   1.000  C
  C5       1.0000 0.95000  0.55960  0.11900  Biso   1.000  C
  C6       1.0000 0.05000  0.05960  0.38100  Biso   1.000  C
  C7       1.0000 0.05000  0.44040  0.88100  Biso   1.000  C
  C8       1.0000 0.95000  0.94040  0.61900  Biso   1.000  C
  C9       1.0000 0.88300  0.48750  0.10500  Biso   1.000  C
  C10      1.0000 0.11700  0.98750  0.39500  Biso   1.000  C
  C11      1.0000 0.11700  0.51250  0.89500  Biso   1.000  C
  C12      1.0000 0.88300  0.01250  0.60500  Biso   1.000  C
  C13      1.0000 0.95700  0.42430  0.16600  Biso   1.000  C
  C14      1.0000 0.04300  0.92430  0.33400  Biso   1.000  C
  C15      1.0000 0.04300  0.57570  0.83400  Biso   1.000  C
  C16      1.0000 0.95700  0.07570  0.66600  Biso   1.000  C
  C17      1.0000 0.11100  0.43220  0.24000  Biso   1.000  C
  C18      1.0000 0.88900  0.93220  0.26000  Biso   1.000  C
  C19      1.0000 0.88900  0.56780  0.76000  Biso   1.000  C
  C20      1.0000 0.11100  0.06780  0.74000  Biso   1.000  C
  C21      1.0000 0.18600  0.50100  0.25700  Biso   1.000  C
  C22      1.0000 0.81400  0.00100  0.24300  Biso   1.000  C
  C23      1.0000 0.81400  0.49900  0.74300  Biso   1.000  C
  C24      1.0000 0.18600  0.99900  0.75700  Biso   1.000  C
  C25      1.0000 0.85800  0.62470  0.06000  Biso   1.000  C
  C26      1.0000 0.14200  0.12470  0.44000  Biso   1.000  C
  C27      1.0000 0.14200  0.37530  0.94000  Biso   1.000  C
  C28      1.0000 0.85800  0.87530  0.56000  Biso   1.000  C
  C29      1.0000 0.87800  0.34850  0.15200  Biso   1.000  C
  C30      1.0000 0.12200  0.84850  0.34800  Biso   1.000  C
  C31      1.0000 0.12200  0.65150  0.84800  Biso   1.000  C
  C32      1.0000 0.87800  0.15150  0.65200  Biso   1.000  C
  C33      1.0000 0.77500  0.74960  0.00000  Biso   1.000  C
  C34      1.0000 0.22500  0.24960  0.50000  Biso   1.000  C
  C35      1.0000 0.22500  0.25040  0.00000  Biso   1.000  C
  C36      1.0000 0.77500  0.75040  0.50000  Biso   1.000  C
  C37      1.0000 0.80200  0.79690  0.89700  Biso   1.000  C
  C38      1.0000 0.19800  0.29690  0.60300  Biso   1.000  C
  C39      1.0000 0.19800  0.20310  0.10300  Biso   1.000  C
  C40      1.0000 0.80200  0.70310  0.39700  Biso   1.000  C
  C41      1.0000 0.93200  0.85370  0.94500  Biso   1.000  C
  C42      1.0000 0.06800  0.35370  0.55500  Biso   1.000  C
  C43      1.0000 0.06800  0.14630  0.05500  Biso   1.000  C
  C44      1.0000 0.93200  0.64630  0.44500  Biso   1.000  C
  C45      1.0000 0.20200  0.87860  0.03700  Biso   1.000  C
  C46      1.0000 0.79800  0.37860  0.46300  Biso   1.000  C
  C47      1.0000 0.79800  0.12140  0.96300  Biso   1.000  C
  C48      1.0000 0.20200  0.62140  0.53700  Biso   1.000  C
  C49      1.0000 0.37600  0.85120  0.06700  Biso   1.000  C
  C50      1.0000 0.62400  0.35120  0.43300  Biso   1.000  C
  C51      1.0000 0.62400  0.14880  0.93300  Biso   1.000  C
  C52      1.0000 0.37600  0.64880  0.56700  Biso   1.000  C
  C53      1.0000 0.44300  0.81530  0.19500  Biso   1.000  C
  C54      1.0000 0.55700  0.31530  0.30500  Biso   1.000  C
  C55      1.0000 0.55700  0.18470  0.80500  Biso   1.000  C
  C56      1.0000 0.44300  0.68470  0.69500  Biso   1.000  C
  O13      1.0000 0.47600  0.09200  0.36300  Biso   1.000  O
  O14      1.0000 0.52400  0.59200  0.13700  Biso   1.000  O
  O15      1.0000 0.52400  0.90800  0.63700  Biso   1.000  O
  O16      1.0000 0.47600  0.40800  0.86300  Biso   1.000  O
