data_image0
_cell_length_a       6.26
_cell_length_b       7.248
_cell_length_c       9.451
_cell_angle_alpha    105.29
_cell_angle_beta     100.19
_cell_angle_gamma    106.27

_symmetry_space_group_name_H-M    "P 1"
_symmetry_int_tables_number       1

loop_
  _symmetry_equiv_pos_as_xyz
  'x, y, z'

loop_
  _atom_site_label
  _atom_site_occupancy
  _atom_site_fract_x
  _atom_site_fract_y
  _atom_site_fract_z
  _atom_site_thermal_displace_type
  _atom_site_B_iso_or_equiv
  _atom_site_type_symbol
  Cu1      1.0000 0.00000  0.00000  0.00000  Biso   1.000  Cu
  N1       1.0000 0.19930  0.09580  0.21374  Biso   1.000  N
  N2       1.0000 0.80070  0.90420  0.78626  Biso   1.000  N
  N3       1.0000 0.57170  0.19270  0.38090  Biso   1.000  N
  N4       1.0000 0.42830  0.80730  0.61910  Biso   1.000  N
  C1       1.0000 0.42370  0.12210  0.24470  Biso   1.000  C
  C2       1.0000 0.57630  0.87790  0.75530  Biso   1.000  C
  H1       1.0000 0.48240  0.08700  0.16160  Biso   1.000  H
  H2       1.0000 0.51760  0.91300  0.83840  Biso   1.000  H
  C3       1.0000 0.11670  0.14590  0.33570  Biso   1.000  C
  C4       1.0000 0.88330  0.85410  0.66430  Biso   1.000  C
  H3       1.0000 0.96110  0.13140  0.31990  Biso   1.000  H
  H4       1.0000 0.03890  0.86860  0.68010  Biso   1.000  H
  C5       1.0000 0.48680  0.24040  0.50100  Biso   1.000  C
  C6       1.0000 0.51320  0.75960  0.49900  Biso   1.000  C
  C7       1.0000 0.25310  0.21640  0.48000  Biso   1.000  C
  C8       1.0000 0.74690  0.78360  0.52000  Biso   1.000  C
  H5       1.0000 0.19300  0.24800  0.56290  Biso   1.000  H
  H6       1.0000 0.80700  0.75200  0.43710  Biso   1.000  H
  N5       1.0000 0.63380  0.31020  0.63950  Biso   1.000  N
  N6       1.0000 0.36620  0.68980  0.36050  Biso   1.000  N
  H7       1.0000 0.77700  0.32320  0.64920  Biso   1.000  H
  H8       1.0000 0.22300  0.67680  0.35080  Biso   1.000  H
  H9       1.0000 0.58540  0.34230  0.71910  Biso   1.000  H
  H10      1.0000 0.41460  0.65770  0.28090  Biso   1.000  H
  N7       1.0000 0.12070  0.77550  0.94110  Biso   1.000  N
  N8       1.0000 0.87930  0.22450  0.05890  Biso   1.000  N
  N9       1.0000 0.15510  0.44960  0.81749  Biso   1.000  N
  N10      1.0000 0.84490  0.55040  0.18251  Biso   1.000  N
  C9       1.0000 0.14500  0.62320  0.89187  Biso   1.000  C
  C10      1.0000 0.85500  0.37680  0.10813  Biso   1.000  C
  C11      1.0000 0.25360  0.34590  0.88250  Biso   1.000  C
  C12      1.0000 0.74640  0.65410  0.11750  Biso   1.000  C
  N11      1.0000 0.32960  0.23600  0.92270  Biso   1.000  N
  N12      1.0000 0.67040  0.76400  0.07730  Biso   1.000  N
