data_image0
_cell_length_a       14.184
_cell_length_b       14.414
_cell_length_c       16.213
_cell_angle_alpha    90
_cell_angle_beta     90
_cell_angle_gamma    90

_symmetry_space_group_name_H-M    "P 1"
_symmetry_int_tables_number       1

loop_
  _symmetry_equiv_pos_as_xyz
  'x, y, z'

loop_
  _atom_site_label
  _atom_site_occupancy
  _atom_site_fract_x
  _atom_site_fract_y
  _atom_site_fract_z
  _atom_site_thermal_displace_type
  _atom_site_B_iso_or_equiv
  _atom_site_type_symbol
  Cu1      1.0000 0.60447  0.20371  0.80112  Biso   1.000  Cu
  Cu2      1.0000 0.89553  0.70371  0.80112  Biso   1.000  Cu
  Cu3      1.0000 0.60447  0.29629  0.30112  Biso   1.000  Cu
  Cu4      1.0000 0.89553  0.79629  0.30112  Biso   1.000  Cu
  Cu5      1.0000 0.39553  0.79629  0.19888  Biso   1.000  Cu
  Cu6      1.0000 0.10447  0.29629  0.19888  Biso   1.000  Cu
  Cu7      1.0000 0.39553  0.70371  0.69888  Biso   1.000  Cu
  Cu8      1.0000 0.10447  0.20371  0.69888  Biso   1.000  Cu
  N1       1.0000 0.64200  0.09852  0.72843  Biso   1.000  N
  N2       1.0000 0.85800  0.59852  0.72843  Biso   1.000  N
  N3       1.0000 0.64200  0.40148  0.22843  Biso   1.000  N
  N4       1.0000 0.85800  0.90148  0.22843  Biso   1.000  N
  N5       1.0000 0.35800  0.90148  0.27157  Biso   1.000  N
  N6       1.0000 0.14200  0.40148  0.27157  Biso   1.000  N
  N7       1.0000 0.35800  0.59852  0.77157  Biso   1.000  N
  N8       1.0000 0.14200  0.09852  0.77157  Biso   1.000  N
  C1       1.0000 0.60066  0.01337  0.76160  Biso   1.000  C
  C2       1.0000 0.89934  0.51337  0.76160  Biso   1.000  C
  C3       1.0000 0.60066  0.48663  0.26160  Biso   1.000  C
  C4       1.0000 0.89934  0.98663  0.26160  Biso   1.000  C
  C5       1.0000 0.39934  0.98663  0.23840  Biso   1.000  C
  C6       1.0000 0.10066  0.48663  0.23840  Biso   1.000  C
  C7       1.0000 0.39934  0.51337  0.73840  Biso   1.000  C
  C8       1.0000 0.10066  0.01337  0.73840  Biso   1.000  C
  C9       1.0000 0.62000  0.01612  0.85171  Biso   1.000  C
  C10      1.0000 0.88000  0.51612  0.85171  Biso   1.000  C
  C11      1.0000 0.62000  0.48388  0.35171  Biso   1.000  C
  C12      1.0000 0.88000  0.98388  0.35171  Biso   1.000  C
  C13      1.0000 0.38000  0.98388  0.14829  Biso   1.000  C
  C14      1.0000 0.12000  0.48388  0.14829  Biso   1.000  C
  C15      1.0000 0.38000  0.51612  0.64829  Biso   1.000  C
  C16      1.0000 0.12000  0.01612  0.64829  Biso   1.000  C
  N9       1.0000 0.58370  0.10454  0.88622  Biso   1.000  N
  N10      1.0000 0.91630  0.60454  0.88622  Biso   1.000  N
  N11      1.0000 0.58370  0.39546  0.38622  Biso   1.000  N
  N12      1.0000 0.91630  0.89546  0.38622  Biso   1.000  N
  N13      1.0000 0.41630  0.89546  0.11378  Biso   1.000  N
  N14      1.0000 0.08370  0.39546  0.11378  Biso   1.000  N
  N15      1.0000 0.41630  0.60454  0.61378  Biso   1.000  N
  N16      1.0000 0.08370  0.10454  0.61378  Biso   1.000  N
  C17      1.0000 0.61659  0.12405  0.64362  Biso   1.000  C
  C18      1.0000 0.88341  0.62405  0.64362  Biso   1.000  C
  C19      1.0000 0.61659  0.37595  0.14362  Biso   1.000  C
  C20      1.0000 0.88341  0.87595  0.14362  Biso   1.000  C
  C21      1.0000 0.38341  0.87595  0.35638  Biso   1.000  C
  C22      1.0000 0.11659  0.37595  0.35638  Biso   1.000  C
  C23      1.0000 0.38341  0.62405  0.85638  Biso   1.000  C
  C24      1.0000 0.11659  0.12405  0.85638  Biso   1.000  C
  C25      1.0000 0.64951  0.22264  0.63012  Biso   1.000  C
  C26      1.0000 0.85049  0.72264  0.63012  Biso   1.000  C
  C27      1.0000 0.64951  0.27736  0.13012  Biso   1.000  C
  C28      1.0000 0.85049  0.77736  0.13012  Biso   1.000  C
  C29      1.0000 0.35049  0.77736  0.36988  Biso   1.000  C
  C30      1.0000 0.14951  0.27736  0.36988  Biso   1.000  C
  C31      1.0000 0.35049  0.72264  0.86988  Biso   1.000  C
  C32      1.0000 0.14951  0.22264  0.86988  Biso   1.000  C
  N17      1.0000 0.61334  0.28018  0.69787  Biso   1.000  N
  N18      1.0000 0.88666  0.78018  0.69787  Biso   1.000  N
  N19      1.0000 0.61334  0.21982  0.19787  Biso   1.000  N
  N20      1.0000 0.88666  0.71982  0.19787  Biso   1.000  N
  N21      1.0000 0.38666  0.71982  0.30213  Biso   1.000  N
  N22      1.0000 0.11334  0.21982  0.30213  Biso   1.000  N
  N23      1.0000 0.38666  0.78018  0.80213  Biso   1.000  N
  N24      1.0000 0.11334  0.28018  0.80213  Biso   1.000  N
  N25      1.0000 0.56526  0.31063  0.87276  Biso   1.000  N
  N26      1.0000 0.93474  0.81063  0.87276  Biso   1.000  N
  N27      1.0000 0.56526  0.18937  0.37276  Biso   1.000  N
  N28      1.0000 0.93474  0.68937  0.37276  Biso   1.000  N
  N29      1.0000 0.43474  0.68937  0.12724  Biso   1.000  N
  N30      1.0000 0.06526  0.18937  0.12724  Biso   1.000  N
  N31      1.0000 0.43474  0.81063  0.62724  Biso   1.000  N
  N32      1.0000 0.06526  0.31063  0.62724  Biso   1.000  N
  C33      1.0000 0.48285  0.31149  0.91249  Biso   1.000  C
  C34      1.0000 0.01715  0.81149  0.91249  Biso   1.000  C
  C35      1.0000 0.48285  0.18851  0.41249  Biso   1.000  C
  C36      1.0000 0.01715  0.68851  0.41249  Biso   1.000  C
  C37      1.0000 0.51715  0.68851  0.08751  Biso   1.000  C
  C38      1.0000 0.98285  0.18851  0.08751  Biso   1.000  C
  C39      1.0000 0.51715  0.81149  0.58751  Biso   1.000  C
  C40      1.0000 0.98285  0.31149  0.58751  Biso   1.000  C
  C41      1.0000 0.45531  0.38414  0.96285  Biso   1.000  C
  C42      1.0000 0.04469  0.88414  0.96285  Biso   1.000  C
  C43      1.0000 0.45531  0.11586  0.46285  Biso   1.000  C
  C44      1.0000 0.04469  0.61586  0.46285  Biso   1.000  C
  C45      1.0000 0.54469  0.61586  0.03715  Biso   1.000  C
  C46      1.0000 0.95531  0.11586  0.03715  Biso   1.000  C
  C47      1.0000 0.54469  0.88414  0.53715  Biso   1.000  C
  C48      1.0000 0.95531  0.38414  0.53715  Biso   1.000  C
  C49      1.0000 0.51328  0.46037  0.97291  Biso   1.000  C
  C50      1.0000 0.98672  0.96037  0.97291  Biso   1.000  C
  C51      1.0000 0.51328  0.03963  0.47291  Biso   1.000  C
  C52      1.0000 0.98672  0.53963  0.47291  Biso   1.000  C
  C53      1.0000 0.48672  0.53963  0.02709  Biso   1.000  C
  C54      1.0000 0.01328  0.03963  0.02709  Biso   1.000  C
  C55      1.0000 0.48672  0.96037  0.52709  Biso   1.000  C
  C56      1.0000 0.01328  0.46037  0.52709  Biso   1.000  C
  C57      1.0000 0.59685  0.45977  0.92949  Biso   1.000  C
  C58      1.0000 0.90315  0.95977  0.92949  Biso   1.000  C
  C59      1.0000 0.59685  0.04023  0.42949  Biso   1.000  C
  C60      1.0000 0.90315  0.54023  0.42949  Biso   1.000  C
  C61      1.0000 0.40315  0.54023  0.07051  Biso   1.000  C
  C62      1.0000 0.09685  0.04023  0.07051  Biso   1.000  C
  C63      1.0000 0.40315  0.95977  0.57051  Biso   1.000  C
  C64      1.0000 0.09685  0.45977  0.57051  Biso   1.000  C
  C65      1.0000 0.61959  0.38394  0.88189  Biso   1.000  C
  C66      1.0000 0.88041  0.88394  0.88189  Biso   1.000  C
  C67      1.0000 0.61959  0.11606  0.38189  Biso   1.000  C
  C68      1.0000 0.88041  0.61606  0.38189  Biso   1.000  C
  C69      1.0000 0.38041  0.61606  0.11811  Biso   1.000  C
  C70      1.0000 0.11959  0.11606  0.11811  Biso   1.000  C
  C71      1.0000 0.38041  0.88394  0.61811  Biso   1.000  C
  C72      1.0000 0.11959  0.38394  0.61811  Biso   1.000  C
  Cl1      1.0000 0.35590  0.22818  0.68235  Biso   1.000  Cl
  Cl2      1.0000 0.14410  0.72818  0.68235  Biso   1.000  Cl
  Cl3      1.0000 0.35590  0.27182  0.18235  Biso   1.000  Cl
  Cl4      1.0000 0.14410  0.77182  0.18235  Biso   1.000  Cl
  Cl5      1.0000 0.64410  0.77182  0.31765  Biso   1.000  Cl
  Cl6      1.0000 0.85590  0.27182  0.31765  Biso   1.000  Cl
  Cl7      1.0000 0.64410  0.72818  0.81765  Biso   1.000  Cl
  Cl8      1.0000 0.85590  0.22818  0.81765  Biso   1.000  Cl
  O1       1.0000 0.41499  0.27155  0.62365  Biso   1.000  O
  O2       1.0000 0.08501  0.77155  0.62365  Biso   1.000  O
  O3       1.0000 0.41499  0.22845  0.12365  Biso   1.000  O
  O4       1.0000 0.08501  0.72845  0.12365  Biso   1.000  O
  O5       1.0000 0.58501  0.72845  0.37635  Biso   1.000  O
  O6       1.0000 0.91499  0.22845  0.37635  Biso   1.000  O
  O7       1.0000 0.58501  0.77155  0.87635  Biso   1.000  O
  O8       1.0000 0.91499  0.27155  0.87635  Biso   1.000  O
  O9       1.0000 0.41530  0.17923  0.74103  Biso   1.000  O
  O10      1.0000 0.08470  0.67923  0.74103  Biso   1.000  O
  O11      1.0000 0.41530  0.32077  0.24103  Biso   1.000  O
  O12      1.0000 0.08470  0.82077  0.24103  Biso   1.000  O
  O13      1.0000 0.58470  0.82077  0.25897  Biso   1.000  O
  O14      1.0000 0.91530  0.32077  0.25897  Biso   1.000  O
  O15      1.0000 0.58470  0.67923  0.75897  Biso   1.000  O
  O16      1.0000 0.91530  0.17923  0.75897  Biso   1.000  O
  O17      1.0000 0.30508  0.29560  0.72701  Biso   1.000  O
  O18      1.0000 0.19492  0.79560  0.72701  Biso   1.000  O
  O19      1.0000 0.30508  0.20440  0.22701  Biso   1.000  O
  O20      1.0000 0.19492  0.70440  0.22701  Biso   1.000  O
  O21      1.0000 0.69492  0.70440  0.27299  Biso   1.000  O
  O22      1.0000 0.80508  0.20440  0.27299  Biso   1.000  O
  O23      1.0000 0.69492  0.79560  0.77299  Biso   1.000  O
  O24      1.0000 0.80508  0.29560  0.77299  Biso   1.000  O
  O25      1.0000 0.27997  0.17900  0.64530  Biso   1.000  O
  O26      1.0000 0.22003  0.67900  0.64530  Biso   1.000  O
  O27      1.0000 0.27997  0.32100  0.14530  Biso   1.000  O
  O28      1.0000 0.22003  0.82100  0.14530  Biso   1.000  O
  O29      1.0000 0.72003  0.82100  0.35470  Biso   1.000  O
  O30      1.0000 0.77997  0.32100  0.35470  Biso   1.000  O
  O31      1.0000 0.72003  0.67900  0.85470  Biso   1.000  O
  O32      1.0000 0.77997  0.17900  0.85470  Biso   1.000  O
  Cl9      1.0000 0.33818  0.99141  0.90768  Biso   1.000  Cl
  Cl10     1.0000 0.16182  0.49141  0.90768  Biso   1.000  Cl
  Cl11     1.0000 0.33818  0.50859  0.40768  Biso   1.000  Cl
  Cl12     1.0000 0.16182  0.00859  0.40768  Biso   1.000  Cl
  Cl13     1.0000 0.66182  0.00859  0.09232  Biso   1.000  Cl
  Cl14     1.0000 0.83818  0.50859  0.09232  Biso   1.000  Cl
  Cl15     1.0000 0.66182  0.49141  0.59232  Biso   1.000  Cl
  Cl16     1.0000 0.83818  0.99141  0.59232  Biso   1.000  Cl
  O33      1.0000 0.42455  0.94413  0.92066  Biso   1.000  O
  O34      1.0000 0.07545  0.44413  0.92066  Biso   1.000  O
  O35      1.0000 0.42455  0.55587  0.42066  Biso   1.000  O
  O36      1.0000 0.07545  0.05587  0.42066  Biso   1.000  O
  O37      1.0000 0.57545  0.05587  0.07934  Biso   1.000  O
  O38      1.0000 0.92455  0.55587  0.07934  Biso   1.000  O
  O39      1.0000 0.57545  0.44413  0.57934  Biso   1.000  O
  O40      1.0000 0.92455  0.94413  0.57934  Biso   1.000  O
  O41      1.0000 0.27032  0.95277  0.96125  Biso   1.000  O
  O42      1.0000 0.22968  0.45277  0.96125  Biso   1.000  O
  O43      1.0000 0.27032  0.54723  0.46125  Biso   1.000  O
  O44      1.0000 0.22968  0.04723  0.46125  Biso   1.000  O
  O45      1.0000 0.72968  0.04723  0.03875  Biso   1.000  O
  O46      1.0000 0.77032  0.54723  0.03875  Biso   1.000  O
  O47      1.0000 0.72968  0.45277  0.53875  Biso   1.000  O
  O48      1.0000 0.77032  0.95277  0.53875  Biso   1.000  O
  O49      1.0000 0.30726  0.97668  0.82493  Biso   1.000  O
  O50      1.0000 0.19274  0.47668  0.82493  Biso   1.000  O
  O51      1.0000 0.30726  0.52332  0.32493  Biso   1.000  O
  O52      1.0000 0.19274  0.02332  0.32493  Biso   1.000  O
  O53      1.0000 0.69274  0.02332  0.17507  Biso   1.000  O
  O54      1.0000 0.80726  0.52332  0.17507  Biso   1.000  O
  O55      1.0000 0.69274  0.47668  0.67507  Biso   1.000  O
  O56      1.0000 0.80726  0.97668  0.67507  Biso   1.000  O
  O57      1.0000 0.35117  0.08842  0.91802  Biso   1.000  O
  O58      1.0000 0.14883  0.58842  0.91802  Biso   1.000  O
  O59      1.0000 0.35117  0.41158  0.41802  Biso   1.000  O
  O60      1.0000 0.14883  0.91158  0.41802  Biso   1.000  O
  O61      1.0000 0.64883  0.91158  0.08198  Biso   1.000  O
  O62      1.0000 0.85117  0.41158  0.08198  Biso   1.000  O
  O63      1.0000 0.64883  0.58842  0.58198  Biso   1.000  O
  O64      1.0000 0.85117  0.08842  0.58198  Biso   1.000  O
  H1       1.0000 0.71200  0.08700  0.72600  Biso   1.000  H
  H2       1.0000 0.78800  0.58700  0.72600  Biso   1.000  H
  H3       1.0000 0.71200  0.41300  0.22600  Biso   1.000  H
  H4       1.0000 0.78800  0.91300  0.22600  Biso   1.000  H
  H5       1.0000 0.28800  0.91300  0.27400  Biso   1.000  H
  H6       1.0000 0.21200  0.41300  0.27400  Biso   1.000  H
  H7       1.0000 0.28800  0.58700  0.77400  Biso   1.000  H
  H8       1.0000 0.21200  0.08700  0.77400  Biso   1.000  H
  H9       1.0000 0.62400  0.95600  0.73400  Biso   1.000  H
  H10      1.0000 0.87600  0.45600  0.73400  Biso   1.000  H
  H11      1.0000 0.62400  0.54400  0.23400  Biso   1.000  H
  H12      1.0000 0.87600  0.04400  0.23400  Biso   1.000  H
  H13      1.0000 0.37600  0.04400  0.26600  Biso   1.000  H
  H14      1.0000 0.12400  0.54400  0.26600  Biso   1.000  H
  H15      1.0000 0.37600  0.45600  0.76600  Biso   1.000  H
  H16      1.0000 0.12400  0.95600  0.76600  Biso   1.000  H
  H17      1.0000 0.53100  0.00700  0.74900  Biso   1.000  H
  H18      1.0000 0.96900  0.50700  0.74900  Biso   1.000  H
  H19      1.0000 0.53100  0.49300  0.24900  Biso   1.000  H
  H20      1.0000 0.96900  0.99300  0.24900  Biso   1.000  H
  H21      1.0000 0.46900  0.99300  0.25100  Biso   1.000  H
  H22      1.0000 0.03100  0.49300  0.25100  Biso   1.000  H
  H23      1.0000 0.46900  0.50700  0.75100  Biso   1.000  H
  H24      1.0000 0.03100  0.00700  0.75100  Biso   1.000  H
  H25      1.0000 0.69000  0.00700  0.86500  Biso   1.000  H
  H26      1.0000 0.81000  0.50700  0.86500  Biso   1.000  H
  H27      1.0000 0.69000  0.49300  0.36500  Biso   1.000  H
  H28      1.0000 0.81000  0.99300  0.36500  Biso   1.000  H
  H29      1.0000 0.31000  0.99300  0.13500  Biso   1.000  H
  H30      1.0000 0.19000  0.49300  0.13500  Biso   1.000  H
  H31      1.0000 0.31000  0.50700  0.63500  Biso   1.000  H
  H32      1.0000 0.19000  0.00700  0.63500  Biso   1.000  H
  H33      1.0000 0.59500  0.95900  0.88200  Biso   1.000  H
  H34      1.0000 0.90500  0.45900  0.88200  Biso   1.000  H
  H35      1.0000 0.59500  0.54100  0.38200  Biso   1.000  H
  H36      1.0000 0.90500  0.04100  0.38200  Biso   1.000  H
  H37      1.0000 0.40500  0.04100  0.11800  Biso   1.000  H
  H38      1.0000 0.09500  0.54100  0.11800  Biso   1.000  H
  H39      1.0000 0.40500  0.45900  0.61800  Biso   1.000  H
  H40      1.0000 0.09500  0.95900  0.61800  Biso   1.000  H
  H41      1.0000 0.51500  0.09900  0.90300  Biso   1.000  H
  H42      1.0000 0.98500  0.59900  0.90300  Biso   1.000  H
  H43      1.0000 0.51500  0.40100  0.40300  Biso   1.000  H
  H44      1.0000 0.98500  0.90100  0.40300  Biso   1.000  H
  H45      1.0000 0.48500  0.90100  0.09700  Biso   1.000  H
  H46      1.0000 0.01500  0.40100  0.09700  Biso   1.000  H
  H47      1.0000 0.48500  0.59900  0.59700  Biso   1.000  H
  H48      1.0000 0.01500  0.09900  0.59700  Biso   1.000  H
  H49      1.0000 0.61100  0.12100  0.94200  Biso   1.000  H
  H50      1.0000 0.88900  0.62100  0.94200  Biso   1.000  H
  H51      1.0000 0.61100  0.37900  0.44200  Biso   1.000  H
  H52      1.0000 0.88900  0.87900  0.44200  Biso   1.000  H
  H53      1.0000 0.38900  0.87900  0.05800  Biso   1.000  H
  H54      1.0000 0.11100  0.37900  0.05800  Biso   1.000  H
  H55      1.0000 0.38900  0.62100  0.55800  Biso   1.000  H
  H56      1.0000 0.11100  0.12100  0.55800  Biso   1.000  H
  H57      1.0000 0.54700  0.11600  0.63300  Biso   1.000  H
  H58      1.0000 0.95300  0.61600  0.63300  Biso   1.000  H
  H59      1.0000 0.54700  0.38400  0.13300  Biso   1.000  H
  H60      1.0000 0.95300  0.88400  0.13300  Biso   1.000  H
  H61      1.0000 0.45300  0.88400  0.36700  Biso   1.000  H
  H62      1.0000 0.04700  0.38400  0.36700  Biso   1.000  H
  H63      1.0000 0.45300  0.61600  0.86700  Biso   1.000  H
  H64      1.0000 0.04700  0.11600  0.86700  Biso   1.000  H
  H65      1.0000 0.64100  0.07900  0.60100  Biso   1.000  H
  H66      1.0000 0.85900  0.57900  0.60100  Biso   1.000  H
  H67      1.0000 0.64100  0.42100  0.10100  Biso   1.000  H
  H68      1.0000 0.85900  0.92100  0.10100  Biso   1.000  H
  H69      1.0000 0.35900  0.92100  0.39900  Biso   1.000  H
  H70      1.0000 0.14100  0.42100  0.39900  Biso   1.000  H
  H71      1.0000 0.35900  0.57900  0.89900  Biso   1.000  H
  H72      1.0000 0.14100  0.07900  0.89900  Biso   1.000  H
  H73      1.0000 0.63100  0.24700  0.57400  Biso   1.000  H
  H74      1.0000 0.86900  0.74700  0.57400  Biso   1.000  H
  H75      1.0000 0.63100  0.25300  0.07400  Biso   1.000  H
  H76      1.0000 0.86900  0.75300  0.07400  Biso   1.000  H
  H77      1.0000 0.36900  0.75300  0.42600  Biso   1.000  H
  H78      1.0000 0.13100  0.25300  0.42600  Biso   1.000  H
  H79      1.0000 0.36900  0.74700  0.92600  Biso   1.000  H
  H80      1.0000 0.13100  0.24700  0.92600  Biso   1.000  H
  H81      1.0000 0.72000  0.22600  0.62400  Biso   1.000  H
  H82      1.0000 0.78000  0.72600  0.62400  Biso   1.000  H
  H83      1.0000 0.72000  0.27400  0.12400  Biso   1.000  H
  H84      1.0000 0.78000  0.77400  0.12400  Biso   1.000  H
  H85      1.0000 0.28000  0.77400  0.37600  Biso   1.000  H
  H86      1.0000 0.22000  0.27400  0.37600  Biso   1.000  H
  H87      1.0000 0.28000  0.72600  0.87600  Biso   1.000  H
  H88      1.0000 0.22000  0.22600  0.87600  Biso   1.000  H
  H89      1.0000 0.65300  0.33800  0.70600  Biso   1.000  H
  H90      1.0000 0.84700  0.83800  0.70600  Biso   1.000  H
  H91      1.0000 0.65300  0.16200  0.20600  Biso   1.000  H
  H92      1.0000 0.84700  0.66200  0.20600  Biso   1.000  H
  H93      1.0000 0.34700  0.66200  0.29400  Biso   1.000  H
  H94      1.0000 0.15300  0.16200  0.29400  Biso   1.000  H
  H95      1.0000 0.34700  0.83800  0.79400  Biso   1.000  H
  H96      1.0000 0.15300  0.33800  0.79400  Biso   1.000  H
  H97      1.0000 0.55200  0.31100  0.68300  Biso   1.000  H
  H98      1.0000 0.94800  0.81100  0.68300  Biso   1.000  H
  H99      1.0000 0.55200  0.18900  0.18300  Biso   1.000  H
  H100     1.0000 0.94800  0.68900  0.18300  Biso   1.000  H
  H101     1.0000 0.44800  0.68900  0.31700  Biso   1.000  H
  H102     1.0000 0.05200  0.18900  0.31700  Biso   1.000  H
  H103     1.0000 0.44800  0.81100  0.81700  Biso   1.000  H
  H104     1.0000 0.05200  0.31100  0.81700  Biso   1.000  H
  H105     1.0000 0.44000  0.25600  0.90700  Biso   1.000  H
  H106     1.0000 0.06000  0.75600  0.90700  Biso   1.000  H
  H107     1.0000 0.44000  0.24400  0.40700  Biso   1.000  H
  H108     1.0000 0.06000  0.74400  0.40700  Biso   1.000  H
  H109     1.0000 0.56000  0.74400  0.09300  Biso   1.000  H
  H110     1.0000 0.94000  0.24400  0.09300  Biso   1.000  H
  H111     1.0000 0.56000  0.75600  0.59300  Biso   1.000  H
  H112     1.0000 0.94000  0.25600  0.59300  Biso   1.000  H
  H113     1.0000 0.39300  0.38300  0.99200  Biso   1.000  H
  H114     1.0000 0.10700  0.88300  0.99200  Biso   1.000  H
  H115     1.0000 0.39300  0.11700  0.49200  Biso   1.000  H
  H116     1.0000 0.10700  0.61700  0.49200  Biso   1.000  H
  H117     1.0000 0.60700  0.61700  0.00800  Biso   1.000  H
  H118     1.0000 0.89300  0.11700  0.00800  Biso   1.000  H
  H119     1.0000 0.60700  0.88300  0.50800  Biso   1.000  H
  H120     1.0000 0.89300  0.38300  0.50800  Biso   1.000  H
  H121     1.0000 0.64100  0.51400  0.93200  Biso   1.000  H
  H122     1.0000 0.85900  0.01400  0.93200  Biso   1.000  H
  H123     1.0000 0.64100  0.98600  0.43200  Biso   1.000  H
  H124     1.0000 0.85900  0.48600  0.43200  Biso   1.000  H
  H125     1.0000 0.35900  0.48600  0.06800  Biso   1.000  H
  H126     1.0000 0.14100  0.98600  0.06800  Biso   1.000  H
  H127     1.0000 0.35900  0.01400  0.56800  Biso   1.000  H
  H128     1.0000 0.14100  0.51400  0.56800  Biso   1.000  H
  H129     1.0000 0.68200  0.38500  0.85300  Biso   1.000  H
  H130     1.0000 0.81800  0.88500  0.85300  Biso   1.000  H
  H131     1.0000 0.68200  0.11500  0.35300  Biso   1.000  H
  H132     1.0000 0.81800  0.61500  0.35300  Biso   1.000  H
  H133     1.0000 0.31800  0.61500  0.14700  Biso   1.000  H
  H134     1.0000 0.18200  0.11500  0.14700  Biso   1.000  H
  H135     1.0000 0.31800  0.88500  0.64700  Biso   1.000  H
  H136     1.0000 0.18200  0.38500  0.64700  Biso   1.000  H
