data_image0
_cell_length_a       6.6435
_cell_length_b       7.1686
_cell_length_c       12.076
_cell_angle_alpha    104.205
_cell_angle_beta     91.214
_cell_angle_gamma    115.964

_symmetry_space_group_name_H-M    "P 1"
_symmetry_int_tables_number       1

loop_
  _symmetry_equiv_pos_as_xyz
  'x, y, z'

loop_
  _atom_site_label
  _atom_site_occupancy
  _atom_site_fract_x
  _atom_site_fract_y
  _atom_site_fract_z
  _atom_site_thermal_displace_type
  _atom_site_B_iso_or_equiv
  _atom_site_type_symbol
  C1       1.0000 0.52030  0.43000  0.03074  Biso   1.000  C
  C2       1.0000 0.47970  0.57000  0.96926  Biso   1.000  C
  C3       1.0000 0.73620  0.44870  0.05041  Biso   1.000  C
  C4       1.0000 0.26380  0.55130  0.94959  Biso   1.000  C
  H1       1.0000 0.85730  0.54780  0.02490  Biso   1.000  H
  H2       1.0000 0.14270  0.45220  0.97510  Biso   1.000  H
  C5       1.0000 0.76810  0.31700  0.10867  Biso   1.000  C
  C6       1.0000 0.23190  0.68300  0.89133  Biso   1.000  C
  H3       1.0000 0.91090  0.32650  0.12290  Biso   1.000  H
  H4       1.0000 0.08910  0.67350  0.87710  Biso   1.000  H
  C7       1.0000 0.58340  0.17120  0.14530  Biso   1.000  C
  C8       1.0000 0.41660  0.82880  0.85470  Biso   1.000  C
  H5       1.0000 0.60010  0.08160  0.18500  Biso   1.000  H
  H6       1.0000 0.39990  0.91840  0.81500  Biso   1.000  H
  C9       1.0000 0.37250  0.16140  0.12152  Biso   1.000  C
  C10      1.0000 0.62750  0.83860  0.87848  Biso   1.000  C
  C11      1.0000 0.16740  0.00430  0.15857  Biso   1.000  C
  C12      1.0000 0.83260  0.99570  0.84143  Biso   1.000  C
  H7       1.0000 0.18420  0.87580  0.15670  Biso   1.000  H
  H8       1.0000 0.81580  0.12420  0.84330  Biso   1.000  H
  H9       1.0000 0.03510  0.96110  0.10390  Biso   1.000  H
  H10      1.0000 0.96490  0.03890  0.89610  Biso   1.000  H
  N1       1.0000 0.33950  0.28777  0.06509  Biso   1.000  N
  N2       1.0000 0.66050  0.71223  0.93491  Biso   1.000  N
  N3       1.0000 0.24860  0.78930  0.50095  Biso   1.000  N
  N4       1.0000 0.75140  0.21070  0.49905  Biso   1.000  N
  N5       1.0000 0.21830  0.44290  0.58847  Biso   1.000  N
  N6       1.0000 0.78170  0.55710  0.41153  Biso   1.000  N
  O1       1.0000 0.09667  0.30522  0.30039  Biso   1.000  O
  O2       1.0000 0.90333  0.69478  0.69961  Biso   1.000  O
  O3       1.0000 0.32063  0.16471  0.37908  Biso   1.000  O
  O4       1.0000 0.67937  0.83529  0.62092  Biso   1.000  O
  O5       1.0000 0.91701  0.93985  0.31937  Biso   1.000  O
  O6       1.0000 0.08299  0.06015  0.68063  Biso   1.000  O
  S1       1.0000 0.12225  0.11286  0.30000  Biso   1.000  S
  S2       1.0000 0.87775  0.88714  0.70000  Biso   1.000  S
  Cu1      1.0000 0.00000  0.50000  0.50000  Biso   1.000  Cu
  H11      1.0000 0.29700  0.79200  0.43800  Biso   1.000  H
  H12      1.0000 0.70300  0.20800  0.56200  Biso   1.000  H
  H13      1.0000 0.36600  0.83100  0.54800  Biso   1.000  H
  H14      1.0000 0.63400  0.16900  0.45200  Biso   1.000  H
  H15      1.0000 0.20800  0.88700  0.52900  Biso   1.000  H
  H16      1.0000 0.79200  0.11300  0.47100  Biso   1.000  H
  H17      1.0000 0.27600  0.37800  0.53900  Biso   1.000  H
  H18      1.0000 0.72400  0.62200  0.46100  Biso   1.000  H
  H19      1.0000 0.15500  0.37000  0.63800  Biso   1.000  H
  H20      1.0000 0.84500  0.63000  0.36200  Biso   1.000  H
  H21      1.0000 0.34000  0.56000  0.62300  Biso   1.000  H
  H22      1.0000 0.66000  0.44000  0.37700  Biso   1.000  H
  O7       1.0000 0.41750  0.72830  0.27138  Biso   1.000  O
  O8       1.0000 0.58250  0.27170  0.72862  Biso   1.000  O
  H23      1.0000 0.37000  0.60600  0.26500  Biso   1.000  H
  H24      1.0000 0.63000  0.39400  0.73500  Biso   1.000  H
  H25      1.0000 0.55800  0.76900  0.27100  Biso   1.000  H
  H26      1.0000 0.44200  0.23100  0.72900  Biso   1.000  H
