data_image0
_cell_length_a       17.1085
_cell_length_b       21.8112
_cell_length_c       12.977
_cell_angle_alpha    90
_cell_angle_beta     101.288
_cell_angle_gamma    90

_symmetry_space_group_name_H-M    "P 1"
_symmetry_int_tables_number       1

loop_
  _symmetry_equiv_pos_as_xyz
  'x, y, z'

loop_
  _atom_site_label
  _atom_site_occupancy
  _atom_site_fract_x
  _atom_site_fract_y
  _atom_site_fract_z
  _atom_site_thermal_displace_type
  _atom_site_B_iso_or_equiv
  _atom_site_type_symbol
  Mo1      1.0000 0.26866  0.64064  0.13642  Biso   1.000  Mo
  Mo2      1.0000 0.73134  0.14064  0.36358  Biso   1.000  Mo
  Mo3      1.0000 0.73134  0.35936  0.86358  Biso   1.000  Mo
  Mo4      1.0000 0.26866  0.85936  0.63642  Biso   1.000  Mo
  Mo5      1.0000 0.13256  0.58197  0.43735  Biso   1.000  Mo
  Mo6      1.0000 0.86744  0.08197  0.06265  Biso   1.000  Mo
  Mo7      1.0000 0.86744  0.41803  0.56265  Biso   1.000  Mo
  Mo8      1.0000 0.13256  0.91803  0.93735  Biso   1.000  Mo
  Mo9      1.0000 0.07741  0.59251  0.14275  Biso   1.000  Mo
  Mo10     1.0000 0.92259  0.09251  0.35725  Biso   1.000  Mo
  Mo11     1.0000 0.92259  0.40749  0.85725  Biso   1.000  Mo
  Mo12     1.0000 0.07741  0.90749  0.64275  Biso   1.000  Mo
  Mo13     1.0000 0.04808  0.44664  0.27371  Biso   1.000  Mo
  Mo14     1.0000 0.95192  0.94664  0.22629  Biso   1.000  Mo
  Mo15     1.0000 0.95192  0.55336  0.72629  Biso   1.000  Mo
  Mo16     1.0000 0.04808  0.05336  0.77371  Biso   1.000  Mo
  Mo17     1.0000 0.21032  0.36675  0.40361  Biso   1.000  Mo
  Mo18     1.0000 0.78968  0.86675  0.09639  Biso   1.000  Mo
  Mo19     1.0000 0.78968  0.63325  0.59639  Biso   1.000  Mo
  Mo20     1.0000 0.21032  0.13325  0.90361  Biso   1.000  Mo
  Mo21     1.0000 0.16638  0.37058  0.13282  Biso   1.000  Mo
  Mo22     1.0000 0.83362  0.87058  0.36718  Biso   1.000  Mo
  Mo23     1.0000 0.83362  0.62942  0.86718  Biso   1.000  Mo
  Mo24     1.0000 0.16638  0.12942  0.63282  Biso   1.000  Mo
  Mo25     1.0000 0.18837  0.51659  0.99224  Biso   1.000  Mo
  Mo26     1.0000 0.81163  0.01659  0.50776  Biso   1.000  Mo
  Mo27     1.0000 0.81163  0.48341  0.00776  Biso   1.000  Mo
  Mo28     1.0000 0.18837  0.98341  0.49224  Biso   1.000  Mo
  Mo29     1.0000 0.31723  0.63228  0.42825  Biso   1.000  Mo
  Mo30     1.0000 0.68277  0.13228  0.07175  Biso   1.000  Mo
  Mo31     1.0000 0.68277  0.36772  0.57175  Biso   1.000  Mo
  Mo32     1.0000 0.31723  0.86772  0.92825  Biso   1.000  Mo
  Mo33     1.0000 0.36680  0.42747  0.11941  Biso   1.000  Mo
  Mo34     1.0000 0.63320  0.92747  0.38059  Biso   1.000  Mo
  Mo35     1.0000 0.63320  0.57253  0.88059  Biso   1.000  Mo
  Mo36     1.0000 0.36680  0.07253  0.61941  Biso   1.000  Mo
  Mo37     1.0000 0.41503  0.41417  0.38487  Biso   1.000  Mo
  Mo38     1.0000 0.58497  0.91417  0.11513  Biso   1.000  Mo
  Mo39     1.0000 0.58497  0.58583  0.61513  Biso   1.000  Mo
  Mo40     1.0000 0.41503  0.08583  0.88487  Biso   1.000  Mo
  Mo41     1.0000 0.44074  0.55094  0.26844  Biso   1.000  Mo
  Mo42     1.0000 0.55926  0.05094  0.23156  Biso   1.000  Mo
  Mo43     1.0000 0.55926  0.44906  0.73156  Biso   1.000  Mo
  Mo44     1.0000 0.44074  0.94906  0.76844  Biso   1.000  Mo
  P1       1.0000 0.24291  0.50424  0.27039  Biso   1.000  P
  P2       1.0000 0.75709  0.00424  0.22961  Biso   1.000  P
  P3       1.0000 0.75709  0.49576  0.72961  Biso   1.000  P
  P4       1.0000 0.24291  0.99576  0.77039  Biso   1.000  P
  O1       1.0000 0.20760  0.64659  0.44630  Biso   1.000  O
  O2       1.0000 0.79240  0.14659  0.05370  Biso   1.000  O
  O3       1.0000 0.79240  0.35341  0.55370  Biso   1.000  O
  O4       1.0000 0.20760  0.85341  0.94630  Biso   1.000  O
  O5       1.0000 0.39690  0.59513  0.36830  Biso   1.000  O
  O6       1.0000 0.60310  0.09513  0.13170  Biso   1.000  O
  O7       1.0000 0.60310  0.40487  0.63170  Biso   1.000  O
  O8       1.0000 0.39690  0.90487  0.86830  Biso   1.000  O
  O9       1.0000 0.04180  0.51095  0.17720  Biso   1.000  O
  O10      1.0000 0.95820  0.01095  0.32280  Biso   1.000  O
  O11      1.0000 0.95820  0.48905  0.82280  Biso   1.000  O
  O12      1.0000 0.04180  0.98905  0.67720  Biso   1.000  O
  O13      1.0000 0.15510  0.44016  0.04230  Biso   1.000  O
  O14      1.0000 0.84490  0.94016  0.45770  Biso   1.000  O
  O15      1.0000 0.84490  0.55984  0.95770  Biso   1.000  O
  O16      1.0000 0.15510  0.05984  0.54230  Biso   1.000  O
  O17      1.0000 0.27310  0.65752  0.27670  Biso   1.000  O
  O18      1.0000 0.72690  0.15752  0.22330  Biso   1.000  O
  O19      1.0000 0.72690  0.34248  0.72330  Biso   1.000  O
  O20      1.0000 0.27310  0.84248  0.77670  Biso   1.000  O
  O21      1.0000 0.99060  0.62839  0.10080  Biso   1.000  O
  O22      1.0000 0.00940  0.12839  0.39920  Biso   1.000  O
  O23      1.0000 0.00940  0.37161  0.89920  Biso   1.000  O
  O24      1.0000 0.99060  0.87161  0.60080  Biso   1.000  O
  O25      1.0000 0.23980  0.59353  0.00510  Biso   1.000  O
  O26      1.0000 0.76020  0.09353  0.49490  Biso   1.000  O
  O27      1.0000 0.76020  0.40647  0.99490  Biso   1.000  O
  O28      1.0000 0.23980  0.90647  0.50510  Biso   1.000  O
  O29      1.0000 0.33640  0.58386  0.54580  Biso   1.000  O
  O30      1.0000 0.66360  0.08386  0.95420  Biso   1.000  O
  O31      1.0000 0.66360  0.41614  0.45420  Biso   1.000  O
  O32      1.0000 0.33640  0.91614  0.04580  Biso   1.000  O
  O33      1.0000 0.09220  0.55332  0.00920  Biso   1.000  O
  O34      1.0000 0.90780  0.05332  0.49080  Biso   1.000  O
  O35      1.0000 0.90780  0.44668  0.99080  Biso   1.000  O
  O36      1.0000 0.09220  0.94668  0.50920  Biso   1.000  O
  O37      1.0000 0.38260  0.46601  0.49840  Biso   1.000  O
  O38      1.0000 0.61740  0.96601  0.00160  Biso   1.000  O
  O39      1.0000 0.61740  0.53399  0.50160  Biso   1.000  O
  O40      1.0000 0.38260  0.03399  0.99840  Biso   1.000  O
  O41      1.0000 0.20920  0.54468  0.17480  Biso   1.000  O
  O42      1.0000 0.79080  0.04468  0.32520  Biso   1.000  O
  O43      1.0000 0.79080  0.45532  0.82520  Biso   1.000  O
  O44      1.0000 0.20920  0.95532  0.67480  Biso   1.000  O
  O45      1.0000 0.19120  0.32982  0.26310  Biso   1.000  O
  O46      1.0000 0.80880  0.82982  0.23690  Biso   1.000  O
  O47      1.0000 0.80880  0.67018  0.73690  Biso   1.000  O
  O48      1.0000 0.19120  0.17018  0.76310  Biso   1.000  O
  O49      1.0000 0.32720  0.48292  0.26450  Biso   1.000  O
  O50      1.0000 0.67280  0.98292  0.23550  Biso   1.000  O
  O51      1.0000 0.67280  0.51708  0.73550  Biso   1.000  O
  O52      1.0000 0.32720  0.01708  0.76450  Biso   1.000  O
  O53      1.0000 0.06270  0.38924  0.16790  Biso   1.000  O
  O54      1.0000 0.93730  0.88924  0.33210  Biso   1.000  O
  O55      1.0000 0.93730  0.61076  0.83210  Biso   1.000  O
  O56      1.0000 0.06270  0.11076  0.66790  Biso   1.000  O
  O57      1.0000 0.40990  0.38990  0.02920  Biso   1.000  O
  O58      1.0000 0.59010  0.88990  0.47080  Biso   1.000  O
  O59      1.0000 0.59010  0.61010  0.97080  Biso   1.000  O
  O60      1.0000 0.40990  0.11010  0.52920  Biso   1.000  O
  O61      1.0000 0.32080  0.37152  0.38690  Biso   1.000  O
  O62      1.0000 0.67920  0.87152  0.11310  Biso   1.000  O
  O63      1.0000 0.67920  0.62848  0.61310  Biso   1.000  O
  O64      1.0000 0.32080  0.12848  0.88690  Biso   1.000  O
  O65      1.0000 0.18860  0.54208  0.54980  Biso   1.000  O
  O66      1.0000 0.81140  0.04208  0.95020  Biso   1.000  O
  O67      1.0000 0.81140  0.45792  0.45020  Biso   1.000  O
  O68      1.0000 0.18860  0.95792  0.04980  Biso   1.000  O
  O69      1.0000 0.09820  0.60747  0.28480  Biso   1.000  O
  O70      1.0000 0.90180  0.10747  0.21520  Biso   1.000  O
  O71      1.0000 0.90180  0.39253  0.71520  Biso   1.000  O
  O72      1.0000 0.09820  0.89253  0.78480  Biso   1.000  O
  O73      1.0000 0.14980  0.65340  0.11490  Biso   1.000  O
  O74      1.0000 0.85020  0.15340  0.38510  Biso   1.000  O
  O75      1.0000 0.85020  0.34660  0.88510  Biso   1.000  O
  O76      1.0000 0.14980  0.84660  0.61490  Biso   1.000  O
  O77      1.0000 0.42210  0.38908  0.24960  Biso   1.000  O
  O78      1.0000 0.57790  0.88908  0.25040  Biso   1.000  O
  O79      1.0000 0.57790  0.61092  0.75040  Biso   1.000  O
  O80      1.0000 0.42210  0.11092  0.74960  Biso   1.000  O
  O81      1.0000 0.44230  0.49380  0.15500  Biso   1.000  O
  O82      1.0000 0.55770  0.99380  0.34500  Biso   1.000  O
  O83      1.0000 0.55770  0.50620  0.84500  Biso   1.000  O
  O84      1.0000 0.44230  0.00620  0.65500  Biso   1.000  O
  O85      1.0000 0.23140  0.42783  0.50060  Biso   1.000  O
  O86      1.0000 0.76860  0.92783  0.99940  Biso   1.000  O
  O87      1.0000 0.76860  0.57217  0.49940  Biso   1.000  O
  O88      1.0000 0.23140  0.07217  0.00060  Biso   1.000  O
  O89      1.0000 0.24340  0.54150  0.37080  Biso   1.000  O
  O90      1.0000 0.75660  0.04150  0.12920  Biso   1.000  O
  O91      1.0000 0.75660  0.45850  0.62920  Biso   1.000  O
  O92      1.0000 0.24340  0.95850  0.87080  Biso   1.000  O
  O93      1.0000 0.29590  0.47997  0.03510  Biso   1.000  O
  O94      1.0000 0.70410  0.97997  0.46490  Biso   1.000  O
  O95      1.0000 0.70410  0.52003  0.96490  Biso   1.000  O
  O96      1.0000 0.29590  0.02003  0.53510  Biso   1.000  O
  O97      1.0000 0.14020  0.31080  0.04990  Biso   1.000  O
  O98      1.0000 0.85980  0.81080  0.45010  Biso   1.000  O
  O99      1.0000 0.85980  0.68920  0.95010  Biso   1.000  O
  O100     1.0000 0.14020  0.18920  0.54990  Biso   1.000  O
  O101     1.0000 0.35850  0.69962  0.47300  Biso   1.000  O
  O102     1.0000 0.64150  0.19962  0.02700  Biso   1.000  O
  O103     1.0000 0.64150  0.30038  0.52700  Biso   1.000  O
  O104     1.0000 0.35850  0.80038  0.97300  Biso   1.000  O
  O105     1.0000 0.07680  0.50756  0.38330  Biso   1.000  O
  O106     1.0000 0.92320  0.00756  0.11670  Biso   1.000  O
  O107     1.0000 0.92320  0.49244  0.61670  Biso   1.000  O
  O108     1.0000 0.07680  0.99244  0.88330  Biso   1.000  O
  O109     1.0000 0.29380  0.70805  0.08750  Biso   1.000  O
  O110     1.0000 0.70620  0.20805  0.41250  Biso   1.000  O
  O111     1.0000 0.70620  0.29195  0.91250  Biso   1.000  O
  O112     1.0000 0.29380  0.79195  0.58750  Biso   1.000  O
  O113     1.0000 0.05790  0.61581  0.48530  Biso   1.000  O
  O114     1.0000 0.94210  0.11581  0.01470  Biso   1.000  O
  O115     1.0000 0.94210  0.38419  0.51470  Biso   1.000  O
  O116     1.0000 0.05790  0.88419  0.98530  Biso   1.000  O
  O117     1.0000 0.95230  0.43420  0.28200  Biso   1.000  O
  O118     1.0000 0.04770  0.93420  0.21800  Biso   1.000  O
  O119     1.0000 0.04770  0.56580  0.71800  Biso   1.000  O
  O120     1.0000 0.95230  0.06580  0.78200  Biso   1.000  O
  O121     1.0000 0.21210  0.30319  0.47790  Biso   1.000  O
  O122     1.0000 0.78790  0.80319  0.02210  Biso   1.000  O
  O123     1.0000 0.78790  0.69681  0.52210  Biso   1.000  O
  O124     1.0000 0.21210  0.19681  0.97790  Biso   1.000  O
  O125     1.0000 0.09820  0.38520  0.37650  Biso   1.000  O
  O126     1.0000 0.90180  0.88520  0.12350  Biso   1.000  O
  O127     1.0000 0.90180  0.61480  0.62350  Biso   1.000  O
  O128     1.0000 0.09820  0.11480  0.87650  Biso   1.000  O
  O129     1.0000 0.27890  0.37631  0.12940  Biso   1.000  O
  O130     1.0000 0.72110  0.87631  0.37060  Biso   1.000  O
  O131     1.0000 0.72110  0.62369  0.87060  Biso   1.000  O
  O132     1.0000 0.27890  0.12369  0.62940  Biso   1.000  O
  O133     1.0000 0.18900  0.44748  0.27020  Biso   1.000  O
  O134     1.0000 0.81100  0.94748  0.22980  Biso   1.000  O
  O135     1.0000 0.81100  0.55252  0.72980  Biso   1.000  O
  O136     1.0000 0.18900  0.05252  0.77020  Biso   1.000  O
  O137     1.0000 0.47810  0.48665  0.36460  Biso   1.000  O
  O138     1.0000 0.52190  0.98665  0.13540  Biso   1.000  O
  O139     1.0000 0.52190  0.51335  0.63540  Biso   1.000  O
  O140     1.0000 0.47810  0.01335  0.86460  Biso   1.000  O
  O141     1.0000 0.52860  0.59300  0.27160  Biso   1.000  O
  O142     1.0000 0.47140  0.09300  0.22840  Biso   1.000  O
  O143     1.0000 0.47140  0.40700  0.72840  Biso   1.000  O
  O144     1.0000 0.52860  0.90700  0.77160  Biso   1.000  O
  O145     1.0000 0.36490  0.60021  0.16610  Biso   1.000  O
  O146     1.0000 0.63510  0.10021  0.33390  Biso   1.000  O
  O147     1.0000 0.63510  0.39979  0.83390  Biso   1.000  O
  O148     1.0000 0.36490  0.89979  0.66610  Biso   1.000  O
  O149     1.0000 0.17550  0.50545  0.86230  Biso   1.000  O
  O150     1.0000 0.82450  0.00545  0.63770  Biso   1.000  O
  O151     1.0000 0.82450  0.49455  0.13770  Biso   1.000  O
  O152     1.0000 0.17550  0.99455  0.36230  Biso   1.000  O
  O153     1.0000 0.48280  0.36730  0.45740  Biso   1.000  O
  O154     1.0000 0.51720  0.86730  0.04260  Biso   1.000  O
  O155     1.0000 0.51720  0.63270  0.54260  Biso   1.000  O
  O156     1.0000 0.48280  0.13270  0.95740  Biso   1.000  O
  Cu1      1.0000 0.29362  0.50057  0.54286  Biso   1.000  Cu
  Cu2      1.0000 0.70638  0.00057  0.95714  Biso   1.000  Cu
  Cu3      1.0000 0.70638  0.49943  0.45714  Biso   1.000  Cu
  Cu4      1.0000 0.29362  0.99943  0.04286  Biso   1.000  Cu
  O157     1.0000 0.32000  0.47290  0.69720  Biso   1.000  O
  O158     1.0000 0.68000  0.97290  0.80280  Biso   1.000  O
  O159     1.0000 0.68000  0.52710  0.30280  Biso   1.000  O
  O160     1.0000 0.32000  0.02710  0.19720  Biso   1.000  O
  Cu5      1.0000 0.44969  0.28173  0.98710  Biso   1.000  Cu
  Cu6      1.0000 0.55031  0.78173  0.51290  Biso   1.000  Cu
  Cu7      1.0000 0.55031  0.71827  0.01290  Biso   1.000  Cu
  Cu8      1.0000 0.44969  0.21827  0.48710  Biso   1.000  Cu
  Cu9      1.0000 0.44891  0.26057  0.73409  Biso   1.000  Cu
  Cu10     1.0000 0.55109  0.76057  0.76591  Biso   1.000  Cu
  Cu11     1.0000 0.55109  0.73943  0.26591  Biso   1.000  Cu
  Cu12     1.0000 0.44891  0.23943  0.23409  Biso   1.000  Cu
  C1       1.0000 0.22690  0.30040  0.79830  Biso   1.000  C
  C2       1.0000 0.77310  0.80040  0.70170  Biso   1.000  C
  C3       1.0000 0.77310  0.69960  0.20170  Biso   1.000  C
  C4       1.0000 0.22690  0.19960  0.29830  Biso   1.000  C
  N1       1.0000 0.54390  0.29980  0.09890  Biso   1.000  N
  N2       1.0000 0.45610  0.79980  0.40110  Biso   1.000  N
  N3       1.0000 0.45610  0.70020  0.90110  Biso   1.000  N
  N4       1.0000 0.54390  0.20020  0.59890  Biso   1.000  N
  C5       1.0000 0.64850  0.33780  0.20120  Biso   1.000  C
  C6       1.0000 0.35150  0.83780  0.29880  Biso   1.000  C
  C7       1.0000 0.35150  0.66220  0.79880  Biso   1.000  C
  C8       1.0000 0.64850  0.16220  0.70120  Biso   1.000  C
  N5       1.0000 0.34810  0.28930  0.88280  Biso   1.000  N
  N6       1.0000 0.65190  0.78930  0.61720  Biso   1.000  N
  N7       1.0000 0.65190  0.71070  0.11720  Biso   1.000  N
  N8       1.0000 0.34810  0.21070  0.38280  Biso   1.000  N
  N9       1.0000 0.34720  0.27980  0.77820  Biso   1.000  N
  N10      1.0000 0.65280  0.77980  0.72180  Biso   1.000  N
  N11      1.0000 0.65280  0.72020  0.22180  Biso   1.000  N
  N12      1.0000 0.34720  0.22020  0.27820  Biso   1.000  N
  C9       1.0000 0.60700  0.33260  0.10250  Biso   1.000  C
  C10      1.0000 0.39300  0.83260  0.39750  Biso   1.000  C
  C11      1.0000 0.39300  0.66740  0.89750  Biso   1.000  C
  C12      1.0000 0.60700  0.16740  0.60250  Biso   1.000  C
  H1       1.0000 0.62190  0.35030  0.04420  Biso   1.000  H
  H2       1.0000 0.37810  0.85030  0.45580  Biso   1.000  H
  H3       1.0000 0.37810  0.64970  0.95580  Biso   1.000  H
  H4       1.0000 0.62190  0.14970  0.54420  Biso   1.000  H
  C13      1.0000 0.72410  0.37090  0.23880  Biso   1.000  C
  C14      1.0000 0.27590  0.87090  0.26120  Biso   1.000  C
  C15      1.0000 0.27590  0.62910  0.76120  Biso   1.000  C
  C16      1.0000 0.72410  0.12910  0.73880  Biso   1.000  C
  H5       1.0000 0.71890  0.39650  0.29820  Biso   1.000  H
  H6       1.0000 0.28110  0.89650  0.20180  Biso   1.000  H
  H7       1.0000 0.28110  0.60350  0.70180  Biso   1.000  H
  H8       1.0000 0.71890  0.10350  0.79820  Biso   1.000  H
  H9       1.0000 0.73540  0.39730  0.18330  Biso   1.000  H
  H10      1.0000 0.26460  0.89730  0.31670  Biso   1.000  H
  H11      1.0000 0.26460  0.60270  0.81670  Biso   1.000  H
  H12      1.0000 0.73540  0.10270  0.68330  Biso   1.000  H
  C17      1.0000 0.27610  0.30220  0.89250  Biso   1.000  C
  C18      1.0000 0.72390  0.80220  0.60750  Biso   1.000  C
  C19      1.0000 0.72390  0.69780  0.10750  Biso   1.000  C
  C20      1.0000 0.27610  0.19780  0.39250  Biso   1.000  C
  H13      1.0000 0.26060  0.31130  0.95550  Biso   1.000  H
  H14      1.0000 0.73940  0.81130  0.54450  Biso   1.000  H
  H15      1.0000 0.73940  0.68870  0.04450  Biso   1.000  H
  H16      1.0000 0.26060  0.18870  0.45550  Biso   1.000  H
  C21      1.0000 0.27340  0.28530  0.72910  Biso   1.000  C
  C22      1.0000 0.72660  0.78530  0.77090  Biso   1.000  C
  C23      1.0000 0.72660  0.71470  0.27090  Biso   1.000  C
  C24      1.0000 0.27340  0.21470  0.22910  Biso   1.000  C
  H17      1.0000 0.25550  0.27960  0.65740  Biso   1.000  H
  H18      1.0000 0.74450  0.77960  0.84260  Biso   1.000  H
  H19      1.0000 0.74450  0.72040  0.34260  Biso   1.000  H
  H20      1.0000 0.25550  0.22040  0.15740  Biso   1.000  H
  N13      1.0000 0.54230  0.28200  0.20050  Biso   1.000  N
  N14      1.0000 0.45770  0.78200  0.29950  Biso   1.000  N
  N15      1.0000 0.45770  0.71800  0.79950  Biso   1.000  N
  N16      1.0000 0.54230  0.21800  0.70050  Biso   1.000  N
  C25      1.0000 0.60460  0.30620  0.26000  Biso   1.000  C
  C26      1.0000 0.39540  0.80620  0.24000  Biso   1.000  C
  C27      1.0000 0.39540  0.69380  0.74000  Biso   1.000  C
  C28      1.0000 0.60460  0.19380  0.76000  Biso   1.000  C
  H21      1.0000 0.61740  0.30240  0.33280  Biso   1.000  H
  H22      1.0000 0.38260  0.80240  0.16720  Biso   1.000  H
  H23      1.0000 0.38260  0.69760  0.66720  Biso   1.000  H
  H24      1.0000 0.61740  0.19760  0.83280  Biso   1.000  H
  C29      1.0000 0.87350  0.24580  0.20650  Biso   1.000  C
  C30      1.0000 0.12650  0.74580  0.29350  Biso   1.000  C
  C31      1.0000 0.12650  0.75420  0.79350  Biso   1.000  C
  C32      1.0000 0.87350  0.25420  0.70650  Biso   1.000  C
  H25      1.0000 0.88600  0.22780  0.14410  Biso   1.000  H
  H26      1.0000 0.11400  0.72780  0.35590  Biso   1.000  H
  H27      1.0000 0.11400  0.77220  0.85590  Biso   1.000  H
  H28      1.0000 0.88600  0.27220  0.64410  Biso   1.000  H
  H29      1.0000 0.85180  0.21500  0.24560  Biso   1.000  H
  H30      1.0000 0.14820  0.71500  0.25440  Biso   1.000  H
  H31      1.0000 0.14820  0.78500  0.75440  Biso   1.000  H
  H32      1.0000 0.85180  0.28500  0.74560  Biso   1.000  H
  H33      1.0000 0.92110  0.26240  0.24890  Biso   1.000  H
  H34      1.0000 0.07890  0.76240  0.25110  Biso   1.000  H
  H35      1.0000 0.07890  0.73760  0.75110  Biso   1.000  H
  H36      1.0000 0.92110  0.23760  0.74890  Biso   1.000  H
  C33      1.0000 0.13900  0.30430  0.78000  Biso   1.000  C
  C34      1.0000 0.86100  0.80430  0.72000  Biso   1.000  C
  C35      1.0000 0.86100  0.69570  0.22000  Biso   1.000  C
  C36      1.0000 0.13900  0.19570  0.28000  Biso   1.000  C
  H37      1.0000 0.12340  0.32150  0.84190  Biso   1.000  H
  H38      1.0000 0.87660  0.82150  0.65810  Biso   1.000  H
  H39      1.0000 0.87660  0.67850  0.15810  Biso   1.000  H
  H40      1.0000 0.12340  0.17850  0.34190  Biso   1.000  H
  H41      1.0000 0.11700  0.26320  0.77010  Biso   1.000  H
  H42      1.0000 0.88300  0.76320  0.72990  Biso   1.000  H
  H43      1.0000 0.88300  0.73680  0.22990  Biso   1.000  H
  H44      1.0000 0.11700  0.23680  0.27010  Biso   1.000  H
  C37      1.0000 0.09360  0.44710  0.60670  Biso   1.000  C
  C38      1.0000 0.90640  0.94710  0.89330  Biso   1.000  C
  C39      1.0000 0.90640  0.55290  0.39330  Biso   1.000  C
  C40      1.0000 0.09360  0.05290  0.10670  Biso   1.000  C
  H45      1.0000 0.11300  0.48800  0.62180  Biso   1.000  H
  H46      1.0000 0.88700  0.98800  0.87820  Biso   1.000  H
  H47      1.0000 0.88700  0.51200  0.37820  Biso   1.000  H
  H48      1.0000 0.11300  0.01200  0.12180  Biso   1.000  H
  H49      1.0000 0.03660  0.44680  0.59820  Biso   1.000  H
  H50      1.0000 0.96340  0.94680  0.90180  Biso   1.000  H
  H51      1.0000 0.96340  0.55320  0.40180  Biso   1.000  H
  H52      1.0000 0.03660  0.05320  0.09820  Biso   1.000  H
  H53      1.0000 0.10850  0.43300  0.54320  Biso   1.000  H
  H54      1.0000 0.89150  0.93300  0.95680  Biso   1.000  H
  H55      1.0000 0.89150  0.56700  0.45680  Biso   1.000  H
  H56      1.0000 0.10850  0.06700  0.04320  Biso   1.000  H
  C41      1.0000 0.79270  0.32620  0.27160  Biso   1.000  C
  C42      1.0000 0.20730  0.82620  0.22840  Biso   1.000  C
  C43      1.0000 0.20730  0.67380  0.72840  Biso   1.000  C
  C44      1.0000 0.79270  0.17380  0.77160  Biso   1.000  C
  H57      1.0000 0.83870  0.34800  0.31000  Biso   1.000  H
  H58      1.0000 0.16130  0.84800  0.19000  Biso   1.000  H
  H59      1.0000 0.16130  0.65200  0.69000  Biso   1.000  H
  H60      1.0000 0.83870  0.15200  0.81000  Biso   1.000  H
  H61      1.0000 0.77760  0.29530  0.31780  Biso   1.000  H
  H62      1.0000 0.22240  0.79530  0.18220  Biso   1.000  H
  H63      1.0000 0.22240  0.70470  0.68220  Biso   1.000  H
  H64      1.0000 0.77760  0.20470  0.81780  Biso   1.000  H
  C45      1.0000 0.10300  0.34380  0.68340  Biso   1.000  C
  C46      1.0000 0.89700  0.84380  0.81660  Biso   1.000  C
  C47      1.0000 0.89700  0.65620  0.31660  Biso   1.000  C
  C48      1.0000 0.10300  0.15620  0.18340  Biso   1.000  C
  H65      1.0000 0.11820  0.32620  0.62160  Biso   1.000  H
  H66      1.0000 0.88180  0.82620  0.87840  Biso   1.000  H
  H67      1.0000 0.88180  0.67380  0.37840  Biso   1.000  H
  H68      1.0000 0.11820  0.17380  0.12160  Biso   1.000  H
  H69      1.0000 0.04530  0.34190  0.67320  Biso   1.000  H
  H70      1.0000 0.95470  0.84190  0.82680  Biso   1.000  H
  H71      1.0000 0.95470  0.65810  0.32680  Biso   1.000  H
  H72      1.0000 0.04530  0.15810  0.17320  Biso   1.000  H
  C49      1.0000 0.81420  0.29550  0.17690  Biso   1.000  C
  C50      1.0000 0.18580  0.79550  0.32310  Biso   1.000  C
  C51      1.0000 0.18580  0.70450  0.82310  Biso   1.000  C
  C52      1.0000 0.81420  0.20450  0.67690  Biso   1.000  C
  H73      1.0000 0.76640  0.27850  0.13360  Biso   1.000  H
  H74      1.0000 0.23360  0.77850  0.36640  Biso   1.000  H
  H75      1.0000 0.23360  0.72150  0.86640  Biso   1.000  H
  H76      1.0000 0.76640  0.22150  0.63360  Biso   1.000  H
  H77      1.0000 0.83570  0.32590  0.13540  Biso   1.000  H
  H78      1.0000 0.16430  0.82590  0.36460  Biso   1.000  H
  H79      1.0000 0.16430  0.67410  0.86460  Biso   1.000  H
  H80      1.0000 0.83570  0.17410  0.63540  Biso   1.000  H
  C53      1.0000 0.12720  0.40760  0.69130  Biso   1.000  C
  C54      1.0000 0.87280  0.90760  0.80870  Biso   1.000  C
  C55      1.0000 0.87280  0.59240  0.30870  Biso   1.000  C
  C56      1.0000 0.12720  0.09240  0.19130  Biso   1.000  C
  H81      1.0000 0.18470  0.40910  0.69900  Biso   1.000  H
  H82      1.0000 0.81530  0.90910  0.80100  Biso   1.000  H
  H83      1.0000 0.81530  0.59090  0.30100  Biso   1.000  H
  H84      1.0000 0.18470  0.09090  0.19900  Biso   1.000  H
  H85      1.0000 0.11430  0.42420  0.75530  Biso   1.000  H
  H86      1.0000 0.88570  0.92420  0.74470  Biso   1.000  H
  H87      1.0000 0.88570  0.57580  0.24470  Biso   1.000  H
  H88      1.0000 0.11430  0.07580  0.25530  Biso   1.000  H
  O161     1.0000 0.50330  0.28330  0.87170  Biso   1.000  O
  O162     1.0000 0.49670  0.78330  0.62830  Biso   1.000  O
  O163     1.0000 0.49670  0.71670  0.12830  Biso   1.000  O
  O164     1.0000 0.50330  0.21670  0.37170  Biso   1.000  O
  O165     1.0000 0.39800  0.25370  0.59050  Biso   1.000  O
  O166     1.0000 0.60200  0.75370  0.90950  Biso   1.000  O
  O167     1.0000 0.60200  0.74630  0.40950  Biso   1.000  O
  O168     1.0000 0.39800  0.24630  0.09050  Biso   1.000  O
  O169     1.0000 0.00260  0.77980  0.13000  Biso   1.000  O
  O170     1.0000 0.99740  0.27980  0.37000  Biso   1.000  O
  O171     1.0000 0.99740  0.22020  0.87000  Biso   1.000  O
  O172     1.0000 0.00260  0.72020  0.63000  Biso   1.000  O
  O173     1.0000 0.40080  0.52930  0.88970  Biso   1.000  O
  O174     1.0000 0.59920  0.02930  0.61030  Biso   1.000  O
  O175     1.0000 0.59920  0.47070  0.11030  Biso   1.000  O
  O176     1.0000 0.40080  0.97070  0.38970  Biso   1.000  O
  O177     1.0000 0.03960  0.78050  0.44590  Biso   1.000  O
  O178     1.0000 0.96040  0.28050  0.05410  Biso   1.000  O
  O179     1.0000 0.96040  0.21950  0.55410  Biso   1.000  O
  O180     1.0000 0.03960  0.71950  0.94590  Biso   1.000  O
