data_image0
_cell_length_a       9.731
_cell_length_b       14.351
_cell_length_c       10.302
_cell_angle_alpha    90
_cell_angle_beta     90
_cell_angle_gamma    90

_symmetry_space_group_name_H-M    "P 1"
_symmetry_int_tables_number       1

loop_
  _symmetry_equiv_pos_as_xyz
  'x, y, z'

loop_
  _atom_site_label
  _atom_site_occupancy
  _atom_site_fract_x
  _atom_site_fract_y
  _atom_site_fract_z
  _atom_site_thermal_displace_type
  _atom_site_B_iso_or_equiv
  _atom_site_type_symbol
  Cu1      1.0000 0.11500  0.25000  0.14374  Biso   1.000  Cu
  Cu2      1.0000 0.38500  0.75000  0.64374  Biso   1.000  Cu
  Cu3      1.0000 0.88500  0.75000  0.85626  Biso   1.000  Cu
  Cu4      1.0000 0.61500  0.25000  0.35626  Biso   1.000  Cu
  C1       1.0000 0.06150  0.44100  0.23030  Biso   1.000  C
  C2       1.0000 0.43850  0.94100  0.73030  Biso   1.000  C
  C3       1.0000 0.06150  0.05900  0.23030  Biso   1.000  C
  C4       1.0000 0.43850  0.55900  0.73030  Biso   1.000  C
  C5       1.0000 0.93850  0.55900  0.76970  Biso   1.000  C
  C6       1.0000 0.56150  0.05900  0.26970  Biso   1.000  C
  C7       1.0000 0.93850  0.94100  0.76970  Biso   1.000  C
  C8       1.0000 0.56150  0.44100  0.26970  Biso   1.000  C
  C9       1.0000 0.07280  0.53630  0.23880  Biso   1.000  C
  C10      1.0000 0.42720  0.03630  0.73880  Biso   1.000  C
  C11      1.0000 0.07280  0.96370  0.23880  Biso   1.000  C
  C12      1.0000 0.42720  0.46370  0.73880  Biso   1.000  C
  C13      1.0000 0.92720  0.46370  0.76120  Biso   1.000  C
  C14      1.0000 0.57280  0.96370  0.26120  Biso   1.000  C
  C15      1.0000 0.92720  0.03630  0.76120  Biso   1.000  C
  C16      1.0000 0.57280  0.53630  0.26120  Biso   1.000  C
  C17      1.0000 0.15940  0.58250  0.15590  Biso   1.000  C
  C18      1.0000 0.34060  0.08250  0.65590  Biso   1.000  C
  C19      1.0000 0.15940  0.91750  0.15590  Biso   1.000  C
  C20      1.0000 0.34060  0.41750  0.65590  Biso   1.000  C
  C21      1.0000 0.84060  0.41750  0.84410  Biso   1.000  C
  C22      1.0000 0.65940  0.91750  0.34410  Biso   1.000  C
  C23      1.0000 0.84060  0.08250  0.84410  Biso   1.000  C
  C24      1.0000 0.65940  0.58250  0.34410  Biso   1.000  C
  C25      1.0000 0.23100  0.53090  0.06620  Biso   1.000  C
  C26      1.0000 0.26900  0.03090  0.56620  Biso   1.000  C
  C27      1.0000 0.23100  0.96910  0.06620  Biso   1.000  C
  C28      1.0000 0.26900  0.46910  0.56620  Biso   1.000  C
  C29      1.0000 0.76900  0.46910  0.93380  Biso   1.000  C
  C30      1.0000 0.73100  0.96910  0.43380  Biso   1.000  C
  C31      1.0000 0.76900  0.03090  0.93380  Biso   1.000  C
  C32      1.0000 0.73100  0.53090  0.43380  Biso   1.000  C
  C33      1.0000 0.21420  0.43540  0.06210  Biso   1.000  C
  C34      1.0000 0.28580  0.93540  0.56210  Biso   1.000  C
  C35      1.0000 0.21420  0.06460  0.06210  Biso   1.000  C
  C36      1.0000 0.28580  0.56460  0.56210  Biso   1.000  C
  C37      1.0000 0.78580  0.56460  0.93790  Biso   1.000  C
  C38      1.0000 0.71420  0.06460  0.43790  Biso   1.000  C
  C39      1.0000 0.78580  0.93540  0.93790  Biso   1.000  C
  C40      1.0000 0.71420  0.43540  0.43790  Biso   1.000  C
  C41      1.0000 0.13900  0.25000  0.87090  Biso   1.000  C
  C42      1.0000 0.36100  0.75000  0.37090  Biso   1.000  C
  C43      1.0000 0.86100  0.75000  0.12910  Biso   1.000  C
  C44      1.0000 0.63900  0.25000  0.62910  Biso   1.000  C
  C45      1.0000 0.80000  0.25000  0.14710  Biso   1.000  C
  C46      1.0000 0.70000  0.75000  0.64710  Biso   1.000  C
  C47      1.0000 0.20000  0.75000  0.85290  Biso   1.000  C
  C48      1.0000 0.30000  0.25000  0.35290  Biso   1.000  C
  N1       1.0000 0.13160  0.39060  0.14380  Biso   1.000  N
  N2       1.0000 0.36840  0.89060  0.64380  Biso   1.000  N
  N3       1.0000 0.13160  0.10940  0.14380  Biso   1.000  N
  N4       1.0000 0.36840  0.60940  0.64380  Biso   1.000  N
  N5       1.0000 0.86840  0.60940  0.85620  Biso   1.000  N
  N6       1.0000 0.63160  0.10940  0.35620  Biso   1.000  N
  N7       1.0000 0.86840  0.89060  0.85620  Biso   1.000  N
  N8       1.0000 0.63160  0.39060  0.35620  Biso   1.000  N
  O1       1.0000 0.89370  0.25000  0.22570  Biso   1.000  O
  O2       1.0000 0.60630  0.75000  0.72570  Biso   1.000  O
  O3       1.0000 0.10630  0.75000  0.77430  Biso   1.000  O
  O4       1.0000 0.39370  0.25000  0.27430  Biso   1.000  O
  O5       1.0000 0.05350  0.25000  0.96350  Biso   1.000  O
  O6       1.0000 0.44650  0.75000  0.46350  Biso   1.000  O
  O7       1.0000 0.94650  0.75000  0.03650  Biso   1.000  O
  O8       1.0000 0.55350  0.25000  0.53650  Biso   1.000  O
  O9       1.0000 0.26360  0.25000  0.87910  Biso   1.000  O
  O10      1.0000 0.23640  0.75000  0.37910  Biso   1.000  O
  O11      1.0000 0.73640  0.75000  0.12090  Biso   1.000  O
  O12      1.0000 0.76360  0.25000  0.62090  Biso   1.000  O
  O13      1.0000 0.17300  0.25000  0.32670  Biso   1.000  O
  O14      1.0000 0.32700  0.75000  0.82670  Biso   1.000  O
  O15      1.0000 0.82700  0.75000  0.67330  Biso   1.000  O
  O16      1.0000 0.67300  0.25000  0.17330  Biso   1.000  O
  H1       1.0000 0.99200  0.40000  0.29600  Biso   1.000  H
  H2       1.0000 0.50800  0.90000  0.79600  Biso   1.000  H
  H3       1.0000 0.99200  0.10000  0.29600  Biso   1.000  H
  H4       1.0000 0.50800  0.60000  0.79600  Biso   1.000  H
  H5       1.0000 0.00800  0.60000  0.70400  Biso   1.000  H
  H6       1.0000 0.49200  0.10000  0.20400  Biso   1.000  H
  H7       1.0000 0.00800  0.90000  0.70400  Biso   1.000  H
  H8       1.0000 0.49200  0.40000  0.20400  Biso   1.000  H
  H9       1.0000 0.98700  0.55700  0.30800  Biso   1.000  H
  H10      1.0000 0.51300  0.05700  0.80800  Biso   1.000  H
  H11      1.0000 0.98700  0.94300  0.30800  Biso   1.000  H
  H12      1.0000 0.51300  0.44300  0.80800  Biso   1.000  H
  H13      1.0000 0.01300  0.44300  0.69200  Biso   1.000  H
  H14      1.0000 0.48700  0.94300  0.19200  Biso   1.000  H
  H15      1.0000 0.01300  0.05700  0.69200  Biso   1.000  H
  H16      1.0000 0.48700  0.55700  0.19200  Biso   1.000  H
  H17      1.0000 0.17900  0.65300  0.16300  Biso   1.000  H
  H18      1.0000 0.32100  0.15300  0.66300  Biso   1.000  H
  H19      1.0000 0.17900  0.84700  0.16300  Biso   1.000  H
  H20      1.0000 0.32100  0.34700  0.66300  Biso   1.000  H
  H21      1.0000 0.82100  0.34700  0.83700  Biso   1.000  H
  H22      1.0000 0.67900  0.84700  0.33700  Biso   1.000  H
  H23      1.0000 0.82100  0.15300  0.83700  Biso   1.000  H
  H24      1.0000 0.67900  0.65300  0.33700  Biso   1.000  H
  H25      1.0000 0.29600  0.56000  0.00000  Biso   1.000  H
  H26      1.0000 0.20400  0.06000  0.50000  Biso   1.000  H
  H27      1.0000 0.29600  0.94000  0.00000  Biso   1.000  H
  H28      1.0000 0.20400  0.44000  0.50000  Biso   1.000  H
  H29      1.0000 0.70400  0.44000  0.00000  Biso   1.000  H
  H30      1.0000 0.79600  0.94000  0.50000  Biso   1.000  H
  H31      1.0000 0.70400  0.06000  0.00000  Biso   1.000  H
  H32      1.0000 0.79600  0.56000  0.50000  Biso   1.000  H
  H33      1.0000 0.27900  0.38700  0.00400  Biso   1.000  H
  H34      1.0000 0.22100  0.88700  0.50400  Biso   1.000  H
  H35      1.0000 0.27900  0.11300  0.00400  Biso   1.000  H
  H36      1.0000 0.22100  0.61300  0.50400  Biso   1.000  H
  H37      1.0000 0.72100  0.61300  0.99600  Biso   1.000  H
  H38      1.0000 0.77900  0.11300  0.49600  Biso   1.000  H
  H39      1.0000 0.72100  0.88700  0.99600  Biso   1.000  H
  H40      1.0000 0.77900  0.38700  0.49600  Biso   1.000  H
  H41      1.0000 0.10000  0.25000  0.77900  Biso   1.000  H
  H42      1.0000 0.40000  0.75000  0.27900  Biso   1.000  H
  H43      1.0000 0.90000  0.75000  0.22100  Biso   1.000  H
  H44      1.0000 0.60000  0.25000  0.72100  Biso   1.000  H
  H45      1.0000 0.82500  0.25000  0.05800  Biso   1.000  H
  H46      1.0000 0.67500  0.75000  0.55800  Biso   1.000  H
  H47      1.0000 0.17500  0.75000  0.94200  Biso   1.000  H
  H48      1.0000 0.32500  0.25000  0.44200  Biso   1.000  H
