data_image0
_cell_length_a       16.5319
_cell_length_b       9.3947
_cell_length_c       19.0116
_cell_angle_alpha    90
_cell_angle_beta     95.338
_cell_angle_gamma    90

_symmetry_space_group_name_H-M    "P 1"
_symmetry_int_tables_number       1

loop_
  _symmetry_equiv_pos_as_xyz
  'x, y, z'

loop_
  _atom_site_label
  _atom_site_occupancy
  _atom_site_fract_x
  _atom_site_fract_y
  _atom_site_fract_z
  _atom_site_thermal_displace_type
  _atom_site_B_iso_or_equiv
  _atom_site_type_symbol
  Cu1      1.0000 0.35298  0.07206  0.30884  Biso   1.000  Cu
  Cu2      1.0000 0.14702  0.57206  0.19116  Biso   1.000  Cu
  Cu3      1.0000 0.64702  0.92794  0.69116  Biso   1.000  Cu
  Cu4      1.0000 0.85298  0.42794  0.80884  Biso   1.000  Cu
  Cu5      1.0000 0.41315  0.22631  0.17992  Biso   1.000  Cu
  Cu6      1.0000 0.08685  0.72631  0.32008  Biso   1.000  Cu
  Cu7      1.0000 0.58685  0.77369  0.82008  Biso   1.000  Cu
  Cu8      1.0000 0.91315  0.27369  0.67992  Biso   1.000  Cu
  O1       1.0000 0.28060  0.98010  0.38730  Biso   1.000  O
  O2       1.0000 0.21940  0.48010  0.11270  Biso   1.000  O
  O3       1.0000 0.71940  0.01990  0.61270  Biso   1.000  O
  O4       1.0000 0.78060  0.51990  0.88730  Biso   1.000  O
  O5       1.0000 0.42450  0.39650  0.09925  Biso   1.000  O
  O6       1.0000 0.07550  0.89650  0.40075  Biso   1.000  O
  O7       1.0000 0.57550  0.60350  0.90075  Biso   1.000  O
  O8       1.0000 0.92450  0.10350  0.59925  Biso   1.000  O
  N1       1.0000 0.42540  0.06750  0.11160  Biso   1.000  N
  N2       1.0000 0.07460  0.56750  0.38840  Biso   1.000  N
  N3       1.0000 0.57460  0.93250  0.88840  Biso   1.000  N
  N4       1.0000 0.92540  0.43250  0.61160  Biso   1.000  N
  N5       1.0000 0.53010  0.18090  0.20590  Biso   1.000  N
  N6       1.0000 0.96990  0.68090  0.29410  Biso   1.000  N
  N7       1.0000 0.46990  0.81910  0.79410  Biso   1.000  N
  N8       1.0000 0.03010  0.31910  0.70590  Biso   1.000  N
  C1       1.0000 0.36780  0.01620  0.06350  Biso   1.000  C
  C2       1.0000 0.13220  0.51620  0.43650  Biso   1.000  C
  C3       1.0000 0.63220  0.98380  0.93650  Biso   1.000  C
  C4       1.0000 0.86780  0.48380  0.56350  Biso   1.000  C
  C5       1.0000 0.38060  0.89890  0.02290  Biso   1.000  C
  C6       1.0000 0.11940  0.39890  0.47710  Biso   1.000  C
  C7       1.0000 0.61940  0.10110  0.97710  Biso   1.000  C
  C8       1.0000 0.88060  0.60110  0.52290  Biso   1.000  C
  C9       1.0000 0.45460  0.83200  0.03100  Biso   1.000  C
  C10      1.0000 0.04540  0.33200  0.46900  Biso   1.000  C
  C11      1.0000 0.54540  0.16800  0.96900  Biso   1.000  C
  C12      1.0000 0.95460  0.66800  0.53100  Biso   1.000  C
  C13      1.0000 0.51390  0.88470  0.07870  Biso   1.000  C
  C14      1.0000 0.98610  0.38470  0.42130  Biso   1.000  C
  C15      1.0000 0.48610  0.11530  0.92130  Biso   1.000  C
  C16      1.0000 0.01390  0.61530  0.57870  Biso   1.000  C
  C17      1.0000 0.49880  0.00350  0.11840  Biso   1.000  C
  C18      1.0000 0.00120  0.50350  0.38160  Biso   1.000  C
  C19      1.0000 0.50120  0.99650  0.88160  Biso   1.000  C
  C20      1.0000 0.99880  0.49650  0.61840  Biso   1.000  C
  C21      1.0000 0.55870  0.07270  0.16960  Biso   1.000  C
  C22      1.0000 0.94130  0.57270  0.33040  Biso   1.000  C
  C23      1.0000 0.44130  0.92730  0.83040  Biso   1.000  C
  C24      1.0000 0.05870  0.42730  0.66960  Biso   1.000  C
  C25      1.0000 0.63970  0.03230  0.18030  Biso   1.000  C
  C26      1.0000 0.86030  0.53230  0.31970  Biso   1.000  C
  C27      1.0000 0.36030  0.96770  0.81970  Biso   1.000  C
  C28      1.0000 0.13970  0.46770  0.68030  Biso   1.000  C
  C29      1.0000 0.68970  0.10300  0.23000  Biso   1.000  C
  C30      1.0000 0.81030  0.60300  0.27000  Biso   1.000  C
  C31      1.0000 0.31030  0.89700  0.77000  Biso   1.000  C
  C32      1.0000 0.18970  0.39700  0.73000  Biso   1.000  C
  C33      1.0000 0.66070  0.21270  0.26720  Biso   1.000  C
  C34      1.0000 0.83930  0.71270  0.23280  Biso   1.000  C
  C35      1.0000 0.33930  0.78730  0.73280  Biso   1.000  C
  C36      1.0000 0.16070  0.28730  0.76720  Biso   1.000  C
  C37      1.0000 0.58030  0.25090  0.25420  Biso   1.000  C
  C38      1.0000 0.91970  0.75090  0.24580  Biso   1.000  C
  C39      1.0000 0.41970  0.74910  0.74580  Biso   1.000  C
  C40      1.0000 0.08030  0.24910  0.75420  Biso   1.000  C
  N9       1.0000 0.40890  0.90180  0.27380  Biso   1.000  N
  N10      1.0000 0.09110  0.40180  0.22620  Biso   1.000  N
  N11      1.0000 0.59110  0.09820  0.72620  Biso   1.000  N
  N12      1.0000 0.90890  0.59820  0.77380  Biso   1.000  N
  N13      1.0000 0.45420  0.08160  0.37400  Biso   1.000  N
  N14      1.0000 0.04580  0.58160  0.12600  Biso   1.000  N
  N15      1.0000 0.54580  0.91840  0.62600  Biso   1.000  N
  N16      1.0000 0.95420  0.41840  0.87400  Biso   1.000  N
  C41      1.0000 0.37860  0.81090  0.22310  Biso   1.000  C
  C42      1.0000 0.12140  0.31090  0.27690  Biso   1.000  C
  C43      1.0000 0.62140  0.18910  0.77690  Biso   1.000  C
  C44      1.0000 0.87860  0.68910  0.72310  Biso   1.000  C
  C45      1.0000 0.42240  0.69770  0.20240  Biso   1.000  C
  C46      1.0000 0.07760  0.19770  0.29760  Biso   1.000  C
  C47      1.0000 0.57760  0.30230  0.79760  Biso   1.000  C
  C48      1.0000 0.92240  0.80230  0.70240  Biso   1.000  C
  C49      1.0000 0.49950  0.67560  0.23330  Biso   1.000  C
  C50      1.0000 0.00050  0.17560  0.26670  Biso   1.000  C
  C51      1.0000 0.50050  0.32440  0.76670  Biso   1.000  C
  C52      1.0000 0.99950  0.82440  0.73330  Biso   1.000  C
  C53      1.0000 0.53130  0.76700  0.28480  Biso   1.000  C
  C54      1.0000 0.96870  0.26700  0.21520  Biso   1.000  C
  C55      1.0000 0.46870  0.23300  0.71520  Biso   1.000  C
  C56      1.0000 0.03130  0.73300  0.78480  Biso   1.000  C
  C57      1.0000 0.48470  0.88050  0.30520  Biso   1.000  C
  C58      1.0000 0.01530  0.38050  0.19480  Biso   1.000  C
  C59      1.0000 0.51530  0.11950  0.69480  Biso   1.000  C
  C60      1.0000 0.98470  0.61950  0.80520  Biso   1.000  C
  C61      1.0000 0.51090  0.98340  0.36160  Biso   1.000  C
  C62      1.0000 0.98910  0.48340  0.13840  Biso   1.000  C
  C63      1.0000 0.48910  0.01660  0.63840  Biso   1.000  C
  C64      1.0000 0.01090  0.51660  0.86160  Biso   1.000  C
  C65      1.0000 0.58560  0.98330  0.40000  Biso   1.000  C
  C66      1.0000 0.91440  0.48330  0.10000  Biso   1.000  C
  C67      1.0000 0.41440  0.01670  0.60000  Biso   1.000  C
  C68      1.0000 0.08560  0.51670  0.90000  Biso   1.000  C
  C69      1.0000 0.60250  0.08500  0.45080  Biso   1.000  C
  C70      1.0000 0.89750  0.58500  0.04920  Biso   1.000  C
  C71      1.0000 0.39750  0.91500  0.54920  Biso   1.000  C
  C72      1.0000 0.10250  0.41500  0.95080  Biso   1.000  C
  C73      1.0000 0.54400  0.18020  0.46520  Biso   1.000  C
  C74      1.0000 0.95600  0.68020  0.03480  Biso   1.000  C
  C75      1.0000 0.45600  0.81980  0.53480  Biso   1.000  C
  C76      1.0000 0.04400  0.31980  0.96520  Biso   1.000  C
  C77      1.0000 0.46950  0.17570  0.42650  Biso   1.000  C
  C78      1.0000 0.03050  0.67570  0.07350  Biso   1.000  C
  C79      1.0000 0.53050  0.82430  0.57350  Biso   1.000  C
  C80      1.0000 0.96950  0.32430  0.92650  Biso   1.000  C
  O9       1.0000 0.26236  0.05150  0.23652  Biso   1.000  O
  O10      1.0000 0.23764  0.55150  0.26348  Biso   1.000  O
  O11      1.0000 0.73764  0.94850  0.76348  Biso   1.000  O
  O12      1.0000 0.76236  0.44850  0.73652  Biso   1.000  O
  O13      1.0000 0.29418  0.22420  0.16182  Biso   1.000  O
  O14      1.0000 0.20582  0.72420  0.33818  Biso   1.000  O
  O15      1.0000 0.70582  0.77580  0.83818  Biso   1.000  O
  O16      1.0000 0.79418  0.27580  0.66182  Biso   1.000  O
  O17      1.0000 0.08855  0.87070  0.24577  Biso   1.000  O
  O18      1.0000 0.41145  0.37070  0.25423  Biso   1.000  O
  O19      1.0000 0.91145  0.12930  0.75423  Biso   1.000  O
  O20      1.0000 0.58855  0.62930  0.74577  Biso   1.000  O
  O21      1.0000 0.17187  0.77480  0.17211  Biso   1.000  O
  O22      1.0000 0.32813  0.27480  0.32789  Biso   1.000  O
  O23      1.0000 0.82813  0.22520  0.82789  Biso   1.000  O
  O24      1.0000 0.67187  0.72520  0.67211  Biso   1.000  O
  C81      1.0000 0.24630  0.13020  0.18330  Biso   1.000  C
  C82      1.0000 0.25370  0.63020  0.31670  Biso   1.000  C
  C83      1.0000 0.75370  0.86980  0.81670  Biso   1.000  C
  C84      1.0000 0.74630  0.36980  0.68330  Biso   1.000  C
  C85      1.0000 0.16760  0.11220  0.14180  Biso   1.000  C
  C86      1.0000 0.33240  0.61220  0.35820  Biso   1.000  C
  C87      1.0000 0.83240  0.88780  0.85820  Biso   1.000  C
  C88      1.0000 0.66760  0.38780  0.64180  Biso   1.000  C
  C89      1.0000 0.11810  0.00330  0.14710  Biso   1.000  C
  C90      1.0000 0.38190  0.50330  0.35290  Biso   1.000  C
  C91      1.0000 0.88190  0.99670  0.85290  Biso   1.000  C
  C92      1.0000 0.61810  0.49670  0.64710  Biso   1.000  C
  C93      1.0000 0.12920  0.87400  0.19330  Biso   1.000  C
  C94      1.0000 0.37080  0.37400  0.30670  Biso   1.000  C
  C95      1.0000 0.87080  0.12600  0.80670  Biso   1.000  C
  C96      1.0000 0.62920  0.62600  0.69330  Biso   1.000  C
  Cl1      1.0000 0.85180  0.03344  0.07162  Biso   1.000  Cl
  Cl2      1.0000 0.64820  0.53344  0.42838  Biso   1.000  Cl
  Cl3      1.0000 0.14820  0.96656  0.92838  Biso   1.000  Cl
  Cl4      1.0000 0.35180  0.46656  0.57162  Biso   1.000  Cl
  O25      1.0000 0.81150  0.15250  0.08580  Biso   1.000  O
  O26      1.0000 0.68850  0.65250  0.41420  Biso   1.000  O
  O27      1.0000 0.18850  0.84750  0.91420  Biso   1.000  O
  O28      1.0000 0.31150  0.34750  0.58580  Biso   1.000  O
  O29      1.0000 0.80220  0.92910  0.03890  Biso   1.000  O
  O30      1.0000 0.69780  0.42910  0.46110  Biso   1.000  O
  O31      1.0000 0.19780  0.07090  0.96110  Biso   1.000  O
  O32      1.0000 0.30220  0.57090  0.53890  Biso   1.000  O
  O33      1.0000 0.91240  0.06160  0.03600  Biso   1.000  O
  O34      1.0000 0.58760  0.56160  0.46400  Biso   1.000  O
  O35      1.0000 0.08760  0.93840  0.96400  Biso   1.000  O
  O36      1.0000 0.41240  0.43840  0.53600  Biso   1.000  O
  O37      1.0000 0.88960  0.98890  0.13170  Biso   1.000  O
  O38      1.0000 0.61040  0.48890  0.36830  Biso   1.000  O
  O39      1.0000 0.11040  0.01110  0.86830  Biso   1.000  O
  O40      1.0000 0.38960  0.51110  0.63170  Biso   1.000  O
  Cl5      1.0000 0.84756  0.03169  0.41445  Biso   1.000  Cl
  Cl6      1.0000 0.65244  0.53169  0.08555  Biso   1.000  Cl
  Cl7      1.0000 0.15244  0.96831  0.58555  Biso   1.000  Cl
  Cl8      1.0000 0.34756  0.46831  0.91445  Biso   1.000  Cl
  O41      1.0000 0.80390  0.92550  0.39510  Biso   1.000  O
  O42      1.0000 0.69610  0.42550  0.10490  Biso   1.000  O
  O43      1.0000 0.19610  0.07450  0.60490  Biso   1.000  O
  O44      1.0000 0.30390  0.57450  0.89510  Biso   1.000  O
  O45      1.0000 0.82130  0.09190  0.47100  Biso   1.000  O
  O46      1.0000 0.67870  0.59190  0.02900  Biso   1.000  O
  O47      1.0000 0.17870  0.90810  0.52900  Biso   1.000  O
  O48      1.0000 0.32130  0.40810  0.97100  Biso   1.000  O
  O49      1.0000 0.92830  0.01040  0.42990  Biso   1.000  O
  O50      1.0000 0.57170  0.51040  0.07010  Biso   1.000  O
  O51      1.0000 0.07170  0.98960  0.57010  Biso   1.000  O
  O52      1.0000 0.42830  0.48960  0.92990  Biso   1.000  O
  O53      1.0000 0.83480  0.12680  0.35790  Biso   1.000  O
  O54      1.0000 0.66520  0.62680  0.14210  Biso   1.000  O
  O55      1.0000 0.16520  0.87320  0.64210  Biso   1.000  O
  O56      1.0000 0.33480  0.37320  0.85790  Biso   1.000  O
  O57      1.0000 0.25120  0.18510  0.46410  Biso   1.000  O
  O58      1.0000 0.24880  0.68510  0.03590  Biso   1.000  O
  O59      1.0000 0.74880  0.81490  0.53590  Biso   1.000  O
  O60      1.0000 0.75120  0.31490  0.96410  Biso   1.000  O
  H1       1.0000 0.27200  0.03500  0.41300  Biso   1.000  H
  H2       1.0000 0.22800  0.53500  0.08700  Biso   1.000  H
  H3       1.0000 0.72800  0.96500  0.58700  Biso   1.000  H
  H4       1.0000 0.77200  0.46500  0.91300  Biso   1.000  H
  H5       1.0000 0.25100  0.94100  0.37400  Biso   1.000  H
  H6       1.0000 0.24900  0.44100  0.12600  Biso   1.000  H
  H7       1.0000 0.74900  0.05900  0.62600  Biso   1.000  H
  H8       1.0000 0.75100  0.55900  0.87400  Biso   1.000  H
  H9       1.0000 0.31700  0.06400  0.06200  Biso   1.000  H
  H10      1.0000 0.18300  0.56400  0.43800  Biso   1.000  H
  H11      1.0000 0.68300  0.93600  0.93800  Biso   1.000  H
  H12      1.0000 0.81700  0.43600  0.56200  Biso   1.000  H
  H13      1.0000 0.33700  0.86300  0.99300  Biso   1.000  H
  H14      1.0000 0.16300  0.36300  0.50700  Biso   1.000  H
  H15      1.0000 0.66300  0.13700  0.00700  Biso   1.000  H
  H16      1.0000 0.83700  0.63700  0.49300  Biso   1.000  H
  H17      1.0000 0.45300  0.75700  0.00100  Biso   1.000  H
  H18      1.0000 0.04700  0.25700  0.49900  Biso   1.000  H
  H19      1.0000 0.54700  0.24300  0.99900  Biso   1.000  H
  H20      1.0000 0.95300  0.74300  0.50100  Biso   1.000  H
  H21      1.0000 0.57000  0.86100  0.08300  Biso   1.000  H
  H22      1.0000 0.93000  0.36100  0.41700  Biso   1.000  H
  H23      1.0000 0.43000  0.13900  0.91700  Biso   1.000  H
  H24      1.0000 0.07000  0.63900  0.58300  Biso   1.000  H
  H25      1.0000 0.65600  0.96000  0.15700  Biso   1.000  H
  H26      1.0000 0.84400  0.46000  0.34300  Biso   1.000  H
  H27      1.0000 0.34400  0.04000  0.84300  Biso   1.000  H
  H28      1.0000 0.15600  0.54000  0.65700  Biso   1.000  H
  H29      1.0000 0.75200  0.07700  0.24400  Biso   1.000  H
  H30      1.0000 0.74800  0.57700  0.25600  Biso   1.000  H
  H31      1.0000 0.24800  0.92300  0.75600  Biso   1.000  H
  H32      1.0000 0.25200  0.42300  0.74400  Biso   1.000  H
  H33      1.0000 0.69500  0.26700  0.30200  Biso   1.000  H
  H34      1.0000 0.80500  0.76700  0.19800  Biso   1.000  H
  H35      1.0000 0.30500  0.73300  0.69800  Biso   1.000  H
  H36      1.0000 0.19500  0.23300  0.80200  Biso   1.000  H
  H37      1.0000 0.56200  0.32400  0.27500  Biso   1.000  H
  H38      1.0000 0.93800  0.82400  0.22500  Biso   1.000  H
  H39      1.0000 0.43800  0.67600  0.72500  Biso   1.000  H
  H40      1.0000 0.06200  0.17600  0.77500  Biso   1.000  H
  H41      1.0000 0.33300  0.83000  0.20100  Biso   1.000  H
  H42      1.0000 0.16700  0.33000  0.29900  Biso   1.000  H
  H43      1.0000 0.66700  0.17000  0.79900  Biso   1.000  H
  H44      1.0000 0.83300  0.67000  0.70100  Biso   1.000  H
  H45      1.0000 0.40000  0.64300  0.17300  Biso   1.000  H
  H46      1.0000 0.10000  0.14300  0.32700  Biso   1.000  H
  H47      1.0000 0.60000  0.35700  0.82700  Biso   1.000  H
  H48      1.0000 0.90000  0.85700  0.67300  Biso   1.000  H
  H49      1.0000 0.53400  0.59200  0.22000  Biso   1.000  H
  H50      1.0000 0.96600  0.09200  0.28000  Biso   1.000  H
  H51      1.0000 0.46600  0.40800  0.78000  Biso   1.000  H
  H52      1.0000 0.03400  0.90800  0.72000  Biso   1.000  H
  H53      1.0000 0.57700  0.76500  0.30200  Biso   1.000  H
  H54      1.0000 0.92300  0.26500  0.19800  Biso   1.000  H
  H55      1.0000 0.42300  0.23500  0.69800  Biso   1.000  H
  H56      1.0000 0.07700  0.73500  0.80200  Biso   1.000  H
  H57      1.0000 0.61700  0.91900  0.38800  Biso   1.000  H
  H58      1.0000 0.88300  0.41900  0.11200  Biso   1.000  H
  H59      1.0000 0.38300  0.08100  0.61200  Biso   1.000  H
  H60      1.0000 0.11700  0.58100  0.88800  Biso   1.000  H
  H61      1.0000 0.66800  0.11200  0.47800  Biso   1.000  H
  H62      1.0000 0.83200  0.61200  0.02200  Biso   1.000  H
  H63      1.0000 0.33200  0.88800  0.52200  Biso   1.000  H
  H64      1.0000 0.16800  0.38800  0.97800  Biso   1.000  H
  H65      1.0000 0.55400  0.24100  0.49400  Biso   1.000  H
  H66      1.0000 0.94600  0.74100  0.00600  Biso   1.000  H
  H67      1.0000 0.44600  0.75900  0.50600  Biso   1.000  H
  H68      1.0000 0.05400  0.25900  0.99400  Biso   1.000  H
  H69      1.0000 0.42700  0.24200  0.43800  Biso   1.000  H
  H70      1.0000 0.07300  0.74200  0.06200  Biso   1.000  H
  H71      1.0000 0.57300  0.75800  0.56200  Biso   1.000  H
  H72      1.0000 0.92700  0.25800  0.93800  Biso   1.000  H
  H73      1.0000 0.15500  0.18400  0.10700  Biso   1.000  H
  H74      1.0000 0.34500  0.68400  0.39300  Biso   1.000  H
  H75      1.0000 0.84500  0.81600  0.89300  Biso   1.000  H
  H76      1.0000 0.65500  0.31600  0.60700  Biso   1.000  H
  H77      1.0000 0.06400  0.99700  0.12000  Biso   1.000  H
  H78      1.0000 0.43600  0.49700  0.38000  Biso   1.000  H
  H79      1.0000 0.93600  0.00300  0.88000  Biso   1.000  H
  H80      1.0000 0.56400  0.50300  0.62000  Biso   1.000  H
