data_image0
_cell_length_a       14.4714
_cell_length_b       14.0581
_cell_length_c       21.3166
_cell_angle_alpha    90
_cell_angle_beta     90
_cell_angle_gamma    90

_symmetry_space_group_name_H-M    "P 1"
_symmetry_int_tables_number       1

loop_
  _symmetry_equiv_pos_as_xyz
  'x, y, z'

loop_
  _atom_site_label
  _atom_site_occupancy
  _atom_site_fract_x
  _atom_site_fract_y
  _atom_site_fract_z
  _atom_site_thermal_displace_type
  _atom_site_B_iso_or_equiv
  _atom_site_type_symbol
  Cu1      1.0000 0.64557  0.62637  0.88865  Biso   1.000  Cu
  Cu2      1.0000 0.85443  0.87363  0.38865  Biso   1.000  Cu
  Cu3      1.0000 0.14557  0.87363  0.11135  Biso   1.000  Cu
  Cu4      1.0000 0.35443  0.62637  0.61135  Biso   1.000  Cu
  Cu5      1.0000 0.35443  0.37363  0.11135  Biso   1.000  Cu
  Cu6      1.0000 0.14557  0.12637  0.61135  Biso   1.000  Cu
  Cu7      1.0000 0.85443  0.12637  0.88865  Biso   1.000  Cu
  Cu8      1.0000 0.64557  0.37363  0.38865  Biso   1.000  Cu
  O1       1.0000 0.59150  0.50160  0.90702  Biso   1.000  O
  O2       1.0000 0.90850  0.99840  0.40702  Biso   1.000  O
  O3       1.0000 0.09150  0.99840  0.09298  Biso   1.000  O
  O4       1.0000 0.40850  0.50160  0.59298  Biso   1.000  O
  O5       1.0000 0.40850  0.49840  0.09298  Biso   1.000  O
  O6       1.0000 0.09150  0.00160  0.59298  Biso   1.000  O
  O7       1.0000 0.90850  0.00160  0.90702  Biso   1.000  O
  O8       1.0000 0.59150  0.49840  0.40702  Biso   1.000  O
  O9       1.0000 0.62990  0.35290  0.93253  Biso   1.000  O
  O10      1.0000 0.87010  0.14710  0.43253  Biso   1.000  O
  O11      1.0000 0.12990  0.14710  0.06747  Biso   1.000  O
  O12      1.0000 0.37010  0.35290  0.56747  Biso   1.000  O
  O13      1.0000 0.37010  0.64710  0.06747  Biso   1.000  O
  O14      1.0000 0.12990  0.85290  0.56747  Biso   1.000  O
  O15      1.0000 0.87010  0.85290  0.93253  Biso   1.000  O
  O16      1.0000 0.62990  0.64710  0.43253  Biso   1.000  O
  O17      1.0000 0.80170  0.25690  0.88740  Biso   1.000  O
  O18      1.0000 0.69830  0.24310  0.38740  Biso   1.000  O
  O19      1.0000 0.30170  0.24310  0.11260  Biso   1.000  O
  O20      1.0000 0.19830  0.25690  0.61260  Biso   1.000  O
  O21      1.0000 0.19830  0.74310  0.11260  Biso   1.000  O
  O22      1.0000 0.30170  0.75690  0.61260  Biso   1.000  O
  O23      1.0000 0.69830  0.75690  0.88740  Biso   1.000  O
  O24      1.0000 0.80170  0.74310  0.38740  Biso   1.000  O
  O25      1.0000 0.83300  0.26220  0.98987  Biso   1.000  O
  O26      1.0000 0.66700  0.23780  0.48987  Biso   1.000  O
  O27      1.0000 0.33300  0.23780  0.01013  Biso   1.000  O
  O28      1.0000 0.16700  0.26220  0.51013  Biso   1.000  O
  O29      1.0000 0.16700  0.73780  0.01013  Biso   1.000  O
  O30      1.0000 0.33300  0.76220  0.51013  Biso   1.000  O
  O31      1.0000 0.66700  0.76220  0.98987  Biso   1.000  O
  O32      1.0000 0.83300  0.73780  0.48987  Biso   1.000  O
  N1       1.0000 0.76130  0.56210  0.91391  Biso   1.000  N
  N2       1.0000 0.73870  0.93790  0.41391  Biso   1.000  N
  N3       1.0000 0.26130  0.93790  0.08609  Biso   1.000  N
  N4       1.0000 0.23870  0.56210  0.58609  Biso   1.000  N
  N5       1.0000 0.23870  0.43790  0.08609  Biso   1.000  N
  N6       1.0000 0.26130  0.06210  0.58609  Biso   1.000  N
  N7       1.0000 0.73870  0.06210  0.91391  Biso   1.000  N
  N8       1.0000 0.76130  0.43790  0.41391  Biso   1.000  N
  N9       1.0000 0.67290  0.60420  0.78610  Biso   1.000  N
  N10      1.0000 0.82710  0.89580  0.28610  Biso   1.000  N
  N11      1.0000 0.17290  0.89580  0.21390  Biso   1.000  N
  N12      1.0000 0.32710  0.60420  0.71390  Biso   1.000  N
  N13      1.0000 0.32710  0.39580  0.21390  Biso   1.000  N
  N14      1.0000 0.17290  0.10420  0.71390  Biso   1.000  N
  N15      1.0000 0.82710  0.10420  0.78610  Biso   1.000  N
  N16      1.0000 0.67290  0.39580  0.28610  Biso   1.000  N
  N17      1.0000 0.02180  0.18790  0.61670  Biso   1.000  N
  N18      1.0000 0.47820  0.31210  0.11670  Biso   1.000  N
  N19      1.0000 0.52180  0.31210  0.38330  Biso   1.000  N
  N20      1.0000 0.97820  0.18790  0.88330  Biso   1.000  N
  N21      1.0000 0.97820  0.81210  0.38330  Biso   1.000  N
  N22      1.0000 0.52180  0.68790  0.88330  Biso   1.000  N
  N23      1.0000 0.47820  0.68790  0.61670  Biso   1.000  N
  N24      1.0000 0.02180  0.81210  0.11670  Biso   1.000  N
  C1       1.0000 0.74950  0.46760  0.92290  Biso   1.000  C
  C2       1.0000 0.75050  0.03240  0.42290  Biso   1.000  C
  C3       1.0000 0.24950  0.03240  0.07710  Biso   1.000  C
  C4       1.0000 0.25050  0.46760  0.57710  Biso   1.000  C
  C5       1.0000 0.25050  0.53240  0.07710  Biso   1.000  C
  C6       1.0000 0.24950  0.96760  0.57710  Biso   1.000  C
  C7       1.0000 0.75050  0.96760  0.92290  Biso   1.000  C
  C8       1.0000 0.74950  0.53240  0.42290  Biso   1.000  C
  C9       1.0000 0.82330  0.40750  0.93360  Biso   1.000  C
  C10      1.0000 0.67670  0.09250  0.43360  Biso   1.000  C
  C11      1.0000 0.32330  0.09250  0.06640  Biso   1.000  C
  C12      1.0000 0.17670  0.40750  0.56640  Biso   1.000  C
  C13      1.0000 0.17670  0.59250  0.06640  Biso   1.000  C
  C14      1.0000 0.32330  0.90750  0.56640  Biso   1.000  C
  C15      1.0000 0.67670  0.90750  0.93360  Biso   1.000  C
  C16      1.0000 0.82330  0.59250  0.43360  Biso   1.000  C
  C17      1.0000 0.91200  0.44700  0.93580  Biso   1.000  C
  C18      1.0000 0.58800  0.05300  0.43580  Biso   1.000  C
  C19      1.0000 0.41200  0.05300  0.06420  Biso   1.000  C
  C20      1.0000 0.08800  0.44700  0.56420  Biso   1.000  C
  C21      1.0000 0.08800  0.55300  0.06420  Biso   1.000  C
  C22      1.0000 0.41200  0.94700  0.56420  Biso   1.000  C
  C23      1.0000 0.58800  0.94700  0.93580  Biso   1.000  C
  C24      1.0000 0.91200  0.55300  0.43580  Biso   1.000  C
  H1       1.0000 0.96310  0.40840  0.94300  Biso   1.000  H
  H2       1.0000 0.53690  0.09160  0.44300  Biso   1.000  H
  H3       1.0000 0.46310  0.09160  0.05700  Biso   1.000  H
  H4       1.0000 0.03690  0.40840  0.55700  Biso   1.000  H
  H5       1.0000 0.03690  0.59160  0.05700  Biso   1.000  H
  H6       1.0000 0.46310  0.90840  0.55700  Biso   1.000  H
  H7       1.0000 0.53690  0.90840  0.94300  Biso   1.000  H
  H8       1.0000 0.96310  0.59160  0.44300  Biso   1.000  H
  C25      1.0000 0.92330  0.54390  0.92720  Biso   1.000  C
  C26      1.0000 0.57670  0.95610  0.42720  Biso   1.000  C
  C27      1.0000 0.42330  0.95610  0.07280  Biso   1.000  C
  C28      1.0000 0.07670  0.54390  0.57280  Biso   1.000  C
  C29      1.0000 0.07670  0.45610  0.07280  Biso   1.000  C
  C30      1.0000 0.42330  0.04390  0.57280  Biso   1.000  C
  C31      1.0000 0.57670  0.04390  0.92720  Biso   1.000  C
  C32      1.0000 0.92330  0.45610  0.42720  Biso   1.000  C
  H9       1.0000 0.98190  0.57110  0.92860  Biso   1.000  H
  H10      1.0000 0.51810  0.92890  0.42860  Biso   1.000  H
  H11      1.0000 0.48190  0.92890  0.07140  Biso   1.000  H
  H12      1.0000 0.01810  0.57110  0.57140  Biso   1.000  H
  H13      1.0000 0.01810  0.42890  0.07140  Biso   1.000  H
  H14      1.0000 0.48190  0.07110  0.57140  Biso   1.000  H
  H15      1.0000 0.51810  0.07110  0.92860  Biso   1.000  H
  H16      1.0000 0.98190  0.42890  0.42860  Biso   1.000  H
  C33      1.0000 0.84610  0.59990  0.91650  Biso   1.000  C
  C34      1.0000 0.65390  0.90010  0.41650  Biso   1.000  C
  C35      1.0000 0.34610  0.90010  0.08350  Biso   1.000  C
  C36      1.0000 0.15390  0.59990  0.58350  Biso   1.000  C
  C37      1.0000 0.15390  0.40010  0.08350  Biso   1.000  C
  C38      1.0000 0.34610  0.09990  0.58350  Biso   1.000  C
  C39      1.0000 0.65390  0.09990  0.91650  Biso   1.000  C
  C40      1.0000 0.84610  0.40010  0.41650  Biso   1.000  C
  H17      1.0000 0.85330  0.66510  0.91100  Biso   1.000  H
  H18      1.0000 0.64670  0.83490  0.41100  Biso   1.000  H
  H19      1.0000 0.35330  0.83490  0.08900  Biso   1.000  H
  H20      1.0000 0.14670  0.66510  0.58900  Biso   1.000  H
  H21      1.0000 0.14670  0.33490  0.08900  Biso   1.000  H
  H22      1.0000 0.35330  0.16510  0.58900  Biso   1.000  H
  H23      1.0000 0.64670  0.16510  0.91100  Biso   1.000  H
  H24      1.0000 0.85330  0.33490  0.41100  Biso   1.000  H
  C41      1.0000 0.64930  0.43640  0.92090  Biso   1.000  C
  C42      1.0000 0.85070  0.06360  0.42090  Biso   1.000  C
  C43      1.0000 0.14930  0.06360  0.07910  Biso   1.000  C
  C44      1.0000 0.35070  0.43640  0.57910  Biso   1.000  C
  C45      1.0000 0.35070  0.56360  0.07910  Biso   1.000  C
  C46      1.0000 0.14930  0.93640  0.57910  Biso   1.000  C
  C47      1.0000 0.85070  0.93640  0.92090  Biso   1.000  C
  C48      1.0000 0.64930  0.56360  0.42090  Biso   1.000  C
  C49      1.0000 0.81600  0.29990  0.93910  Biso   1.000  C
  C50      1.0000 0.68400  0.20010  0.43910  Biso   1.000  C
  C51      1.0000 0.31600  0.20010  0.06090  Biso   1.000  C
  C52      1.0000 0.18400  0.29990  0.56090  Biso   1.000  C
  C53      1.0000 0.18400  0.70010  0.06090  Biso   1.000  C
  C54      1.0000 0.31600  0.79990  0.56090  Biso   1.000  C
  C55      1.0000 0.68400  0.79990  0.93910  Biso   1.000  C
  C56      1.0000 0.81600  0.70010  0.43910  Biso   1.000  C
  C57      1.0000 0.74400  0.64430  0.75590  Biso   1.000  C
  C58      1.0000 0.75600  0.85570  0.25590  Biso   1.000  C
  C59      1.0000 0.24400  0.85570  0.24410  Biso   1.000  C
  C60      1.0000 0.25600  0.64430  0.74410  Biso   1.000  C
  C61      1.0000 0.25600  0.35570  0.24410  Biso   1.000  C
  C62      1.0000 0.24400  0.14430  0.74410  Biso   1.000  C
  C63      1.0000 0.75600  0.14430  0.75590  Biso   1.000  C
  C64      1.0000 0.74400  0.35570  0.25590  Biso   1.000  C
  H25      1.0000 0.78100  0.68690  0.77790  Biso   1.000  H
  H26      1.0000 0.71900  0.81310  0.27790  Biso   1.000  H
  H27      1.0000 0.28100  0.81310  0.22210  Biso   1.000  H
  H28      1.0000 0.21900  0.68690  0.72210  Biso   1.000  H
  H29      1.0000 0.21900  0.31310  0.22210  Biso   1.000  H
  H30      1.0000 0.28100  0.18690  0.72210  Biso   1.000  H
  H31      1.0000 0.71900  0.18690  0.77790  Biso   1.000  H
  H32      1.0000 0.78100  0.31310  0.27790  Biso   1.000  H
  C65      1.0000 0.76540  0.62610  0.69460  Biso   1.000  C
  C66      1.0000 0.73460  0.87390  0.19460  Biso   1.000  C
  C67      1.0000 0.26540  0.87390  0.30540  Biso   1.000  C
  C68      1.0000 0.23460  0.62610  0.80540  Biso   1.000  C
  C69      1.0000 0.23460  0.37390  0.30540  Biso   1.000  C
  C70      1.0000 0.26540  0.12610  0.80540  Biso   1.000  C
  C71      1.0000 0.73460  0.12610  0.69460  Biso   1.000  C
  C72      1.0000 0.76540  0.37390  0.19460  Biso   1.000  C
  H33      1.0000 0.81710  0.65400  0.67630  Biso   1.000  H
  H34      1.0000 0.68290  0.84600  0.17630  Biso   1.000  H
  H35      1.0000 0.31710  0.84600  0.32370  Biso   1.000  H
  H36      1.0000 0.18290  0.65400  0.82370  Biso   1.000  H
  H37      1.0000 0.18290  0.34600  0.32370  Biso   1.000  H
  H38      1.0000 0.31710  0.15400  0.82370  Biso   1.000  H
  H39      1.0000 0.68290  0.15400  0.67630  Biso   1.000  H
  H40      1.0000 0.81710  0.34600  0.17630  Biso   1.000  H
  C73      1.0000 0.61990  0.54620  0.75300  Biso   1.000  C
  C74      1.0000 0.88010  0.95380  0.25300  Biso   1.000  C
  C75      1.0000 0.11990  0.95380  0.24700  Biso   1.000  C
  C76      1.0000 0.38010  0.54620  0.74700  Biso   1.000  C
  C77      1.0000 0.38010  0.45380  0.24700  Biso   1.000  C
  C78      1.0000 0.11990  0.04620  0.74700  Biso   1.000  C
  C79      1.0000 0.88010  0.04620  0.75300  Biso   1.000  C
  C80      1.0000 0.61990  0.45380  0.25300  Biso   1.000  C
  H41      1.0000 0.57020  0.51700  0.77280  Biso   1.000  H
  H42      1.0000 0.92980  0.98300  0.27280  Biso   1.000  H
  H43      1.0000 0.07020  0.98300  0.22720  Biso   1.000  H
  H44      1.0000 0.42980  0.51700  0.72720  Biso   1.000  H
  H45      1.0000 0.42980  0.48300  0.22720  Biso   1.000  H
  H46      1.0000 0.07020  0.01700  0.72720  Biso   1.000  H
  H47      1.0000 0.92980  0.01700  0.77280  Biso   1.000  H
  H48      1.0000 0.57020  0.48300  0.27280  Biso   1.000  H
  C81      1.0000 0.63500  0.52680  0.68950  Biso   1.000  C
  C82      1.0000 0.86500  0.97320  0.18950  Biso   1.000  C
  C83      1.0000 0.13500  0.97320  0.31050  Biso   1.000  C
  C84      1.0000 0.36500  0.52680  0.81050  Biso   1.000  C
  C85      1.0000 0.36500  0.47320  0.31050  Biso   1.000  C
  C86      1.0000 0.13500  0.02680  0.81050  Biso   1.000  C
  C87      1.0000 0.86500  0.02680  0.68950  Biso   1.000  C
  C88      1.0000 0.63500  0.47320  0.18950  Biso   1.000  C
  H49      1.0000 0.59470  0.48750  0.66750  Biso   1.000  H
  H50      1.0000 0.90530  0.01250  0.16750  Biso   1.000  H
  H51      1.0000 0.09470  0.01250  0.33250  Biso   1.000  H
  H52      1.0000 0.40530  0.48750  0.83250  Biso   1.000  H
  H53      1.0000 0.40530  0.51250  0.33250  Biso   1.000  H
  H54      1.0000 0.09470  0.98750  0.83250  Biso   1.000  H
  H55      1.0000 0.90530  0.98750  0.66750  Biso   1.000  H
  H56      1.0000 0.59470  0.51250  0.16750  Biso   1.000  H
  C89      1.0000 0.70990  0.56610  0.66010  Biso   1.000  C
  C90      1.0000 0.79010  0.93390  0.16010  Biso   1.000  C
  C91      1.0000 0.20990  0.93390  0.33990  Biso   1.000  C
  C92      1.0000 0.29010  0.56610  0.83990  Biso   1.000  C
  C93      1.0000 0.29010  0.43390  0.33990  Biso   1.000  C
  C94      1.0000 0.20990  0.06610  0.83990  Biso   1.000  C
  C95      1.0000 0.79010  0.06610  0.66010  Biso   1.000  C
  C96      1.0000 0.70990  0.43390  0.16010  Biso   1.000  C
  C97      1.0000 0.73360  0.54040  0.59320  Biso   1.000  C
  C98      1.0000 0.76640  0.95960  0.09320  Biso   1.000  C
  C99      1.0000 0.23360  0.95960  0.40680  Biso   1.000  C
  C100     1.0000 0.26640  0.54040  0.90680  Biso   1.000  C
  C101     1.0000 0.26640  0.45960  0.40680  Biso   1.000  C
  C102     1.0000 0.23360  0.04040  0.90680  Biso   1.000  C
  C103     1.0000 0.76640  0.04040  0.59320  Biso   1.000  C
  C104     1.0000 0.73360  0.45960  0.09320  Biso   1.000  C
  H57      1.0000 0.75260  0.59720  0.57080  Biso   1.000  H
  H58      1.0000 0.74740  0.90280  0.07080  Biso   1.000  H
  H59      1.0000 0.25260  0.90280  0.42920  Biso   1.000  H
  H60      1.0000 0.24740  0.59720  0.92920  Biso   1.000  H
  H61      1.0000 0.24740  0.40280  0.42920  Biso   1.000  H
  H62      1.0000 0.25260  0.09720  0.92920  Biso   1.000  H
  H63      1.0000 0.74740  0.09720  0.57080  Biso   1.000  H
  H64      1.0000 0.75260  0.40280  0.07080  Biso   1.000  H
  H65      1.0000 0.67920  0.51500  0.57250  Biso   1.000  H
  H66      1.0000 0.82080  0.98500  0.07250  Biso   1.000  H
  H67      1.0000 0.17920  0.98500  0.42750  Biso   1.000  H
  H68      1.0000 0.32080  0.51500  0.92750  Biso   1.000  H
  H69      1.0000 0.32080  0.48500  0.42750  Biso   1.000  H
  H70      1.0000 0.17920  0.01500  0.92750  Biso   1.000  H
  H71      1.0000 0.82080  0.01500  0.57250  Biso   1.000  H
  H72      1.0000 0.67920  0.48500  0.07250  Biso   1.000  H
  C105     1.0000 0.81160  0.46650  0.59060  Biso   1.000  C
  C106     1.0000 0.68840  0.03350  0.09060  Biso   1.000  C
  C107     1.0000 0.31160  0.03350  0.40940  Biso   1.000  C
  C108     1.0000 0.18840  0.46650  0.90940  Biso   1.000  C
  C109     1.0000 0.18840  0.53350  0.40940  Biso   1.000  C
  C110     1.0000 0.31160  0.96650  0.90940  Biso   1.000  C
  C111     1.0000 0.68840  0.96650  0.59060  Biso   1.000  C
  C112     1.0000 0.81160  0.53350  0.09060  Biso   1.000  C
  H73      1.0000 0.86330  0.48920  0.61540  Biso   1.000  H
  H74      1.0000 0.63670  0.01080  0.11540  Biso   1.000  H
  H75      1.0000 0.36330  0.01080  0.38460  Biso   1.000  H
  H76      1.0000 0.13670  0.48920  0.88460  Biso   1.000  H
  H77      1.0000 0.13670  0.51080  0.38460  Biso   1.000  H
  H78      1.0000 0.36330  0.98920  0.88460  Biso   1.000  H
  H79      1.0000 0.63670  0.98920  0.61540  Biso   1.000  H
  H80      1.0000 0.86330  0.51080  0.11540  Biso   1.000  H
  H81      1.0000 0.83250  0.46030  0.54750  Biso   1.000  H
  H82      1.0000 0.66750  0.03970  0.04750  Biso   1.000  H
  H83      1.0000 0.33250  0.03970  0.45250  Biso   1.000  H
  H84      1.0000 0.16750  0.46030  0.95250  Biso   1.000  H
  H85      1.0000 0.16750  0.53970  0.45250  Biso   1.000  H
  H86      1.0000 0.33250  0.96030  0.95250  Biso   1.000  H
  H87      1.0000 0.66750  0.96030  0.54750  Biso   1.000  H
  H88      1.0000 0.83250  0.53970  0.04750  Biso   1.000  H
  C113     1.0000 0.78210  0.36780  0.61500  Biso   1.000  C
  C114     1.0000 0.71790  0.13220  0.11500  Biso   1.000  C
  C115     1.0000 0.28210  0.13220  0.38500  Biso   1.000  C
  C116     1.0000 0.21790  0.36780  0.88500  Biso   1.000  C
  C117     1.0000 0.21790  0.63220  0.38500  Biso   1.000  C
  C118     1.0000 0.28210  0.86780  0.88500  Biso   1.000  C
  C119     1.0000 0.71790  0.86780  0.61500  Biso   1.000  C
  C120     1.0000 0.78210  0.63220  0.11500  Biso   1.000  C
  H89      1.0000 0.75710  0.37380  0.65710  Biso   1.000  H
  H90      1.0000 0.74290  0.12620  0.15710  Biso   1.000  H
  H91      1.0000 0.25710  0.12620  0.34290  Biso   1.000  H
  H92      1.0000 0.24290  0.37380  0.84290  Biso   1.000  H
  H93      1.0000 0.24290  0.62620  0.34290  Biso   1.000  H
  H94      1.0000 0.25710  0.87380  0.84290  Biso   1.000  H
  H95      1.0000 0.74290  0.87380  0.65710  Biso   1.000  H
  H96      1.0000 0.75710  0.62620  0.15710  Biso   1.000  H
  H97      1.0000 0.73430  0.34170  0.58820  Biso   1.000  H
  H98      1.0000 0.76570  0.15830  0.08820  Biso   1.000  H
  H99      1.0000 0.23430  0.15830  0.41180  Biso   1.000  H
  H100     1.0000 0.26570  0.34170  0.91180  Biso   1.000  H
  H101     1.0000 0.26570  0.65830  0.41180  Biso   1.000  H
  H102     1.0000 0.23430  0.84170  0.91180  Biso   1.000  H
  H103     1.0000 0.76570  0.84170  0.58820  Biso   1.000  H
  H104     1.0000 0.73430  0.65830  0.08820  Biso   1.000  H
  C121     1.0000 0.86380  0.30240  0.61580  Biso   1.000  C
  C122     1.0000 0.63620  0.19760  0.11580  Biso   1.000  C
  C123     1.0000 0.36380  0.19760  0.38420  Biso   1.000  C
  C124     1.0000 0.13620  0.30240  0.88420  Biso   1.000  C
  C125     1.0000 0.13620  0.69760  0.38420  Biso   1.000  C
  C126     1.0000 0.36380  0.80240  0.88420  Biso   1.000  C
  C127     1.0000 0.63620  0.80240  0.61580  Biso   1.000  C
  C128     1.0000 0.86380  0.69760  0.11580  Biso   1.000  C
  C129     1.0000 0.88460  0.24320  0.56590  Biso   1.000  C
  C130     1.0000 0.61540  0.25680  0.06590  Biso   1.000  C
  C131     1.0000 0.38460  0.25680  0.43410  Biso   1.000  C
  C132     1.0000 0.11540  0.24320  0.93410  Biso   1.000  C
  C133     1.0000 0.11540  0.75680  0.43410  Biso   1.000  C
  C134     1.0000 0.38460  0.74320  0.93410  Biso   1.000  C
  C135     1.0000 0.61540  0.74320  0.56590  Biso   1.000  C
  C136     1.0000 0.88460  0.75680  0.06590  Biso   1.000  C
  H105     1.0000 0.84610  0.24120  0.53100  Biso   1.000  H
  H106     1.0000 0.65390  0.25880  0.03100  Biso   1.000  H
  H107     1.0000 0.34610  0.25880  0.46900  Biso   1.000  H
  H108     1.0000 0.15390  0.24120  0.96900  Biso   1.000  H
  H109     1.0000 0.15390  0.75880  0.46900  Biso   1.000  H
  H110     1.0000 0.34610  0.74120  0.96900  Biso   1.000  H
  H111     1.0000 0.65390  0.74120  0.53100  Biso   1.000  H
  H112     1.0000 0.84610  0.75880  0.03100  Biso   1.000  H
  C137     1.0000 0.96370  0.18640  0.56840  Biso   1.000  C
  C138     1.0000 0.53630  0.31360  0.06840  Biso   1.000  C
  C139     1.0000 0.46370  0.31360  0.43160  Biso   1.000  C
  C140     1.0000 0.03630  0.18640  0.93160  Biso   1.000  C
  C141     1.0000 0.03630  0.81360  0.43160  Biso   1.000  C
  C142     1.0000 0.46370  0.68640  0.93160  Biso   1.000  C
  C143     1.0000 0.53630  0.68640  0.56840  Biso   1.000  C
  C144     1.0000 0.96370  0.81360  0.06840  Biso   1.000  C
  H113     1.0000 0.97620  0.14590  0.53490  Biso   1.000  H
  H114     1.0000 0.52380  0.35410  0.03490  Biso   1.000  H
  H115     1.0000 0.47620  0.35410  0.46510  Biso   1.000  H
  H116     1.0000 0.02380  0.14590  0.96510  Biso   1.000  H
  H117     1.0000 0.02380  0.85410  0.46510  Biso   1.000  H
  H118     1.0000 0.47620  0.64590  0.96510  Biso   1.000  H
  H119     1.0000 0.52380  0.64590  0.53490  Biso   1.000  H
  H120     1.0000 0.97620  0.85410  0.03490  Biso   1.000  H
  C145     1.0000 0.92490  0.30210  0.66670  Biso   1.000  C
  C146     1.0000 0.57510  0.19790  0.16670  Biso   1.000  C
  C147     1.0000 0.42490  0.19790  0.33330  Biso   1.000  C
  C148     1.0000 0.07510  0.30210  0.83330  Biso   1.000  C
  C149     1.0000 0.07510  0.69790  0.33330  Biso   1.000  C
  C150     1.0000 0.42490  0.80210  0.83330  Biso   1.000  C
  C151     1.0000 0.57510  0.80210  0.66670  Biso   1.000  C
  C152     1.0000 0.92490  0.69790  0.16670  Biso   1.000  C
  H121     1.0000 0.91300  0.33980  0.70160  Biso   1.000  H
  H122     1.0000 0.58700  0.16020  0.20160  Biso   1.000  H
  H123     1.0000 0.41300  0.16020  0.29840  Biso   1.000  H
  H124     1.0000 0.08700  0.33980  0.79840  Biso   1.000  H
  H125     1.0000 0.08700  0.66020  0.29840  Biso   1.000  H
  H126     1.0000 0.41300  0.83980  0.79840  Biso   1.000  H
  H127     1.0000 0.58700  0.83980  0.70160  Biso   1.000  H
  H128     1.0000 0.91300  0.66020  0.20160  Biso   1.000  H
  C153     1.0000 0.00260  0.24560  0.66490  Biso   1.000  C
  C154     1.0000 0.49740  0.25440  0.16490  Biso   1.000  C
  C155     1.0000 0.50260  0.25440  0.33510  Biso   1.000  C
  C156     1.0000 0.99740  0.24560  0.83510  Biso   1.000  C
  C157     1.0000 0.99740  0.75440  0.33510  Biso   1.000  C
  C158     1.0000 0.50260  0.74560  0.83510  Biso   1.000  C
  C159     1.0000 0.49740  0.74560  0.66490  Biso   1.000  C
  C160     1.0000 0.00260  0.75440  0.16490  Biso   1.000  C
  H129     1.0000 0.04340  0.24760  0.69850  Biso   1.000  H
  H130     1.0000 0.45660  0.25240  0.19850  Biso   1.000  H
  H131     1.0000 0.54340  0.25240  0.30150  Biso   1.000  H
  H132     1.0000 0.95660  0.24760  0.80150  Biso   1.000  H
  H133     1.0000 0.95660  0.75240  0.30150  Biso   1.000  H
  H134     1.0000 0.54340  0.74760  0.80150  Biso   1.000  H
  H135     1.0000 0.45660  0.74760  0.69850  Biso   1.000  H
  H136     1.0000 0.04340  0.75240  0.19850  Biso   1.000  H
  O33      1.0000 0.45850  0.26020  0.90620  Biso   1.000  O
  O34      1.0000 0.04150  0.23980  0.40620  Biso   1.000  O
  O35      1.0000 0.95850  0.23980  0.09380  Biso   1.000  O
  O36      1.0000 0.54150  0.26020  0.59380  Biso   1.000  O
  O37      1.0000 0.54150  0.73980  0.09380  Biso   1.000  O
  O38      1.0000 0.95850  0.76020  0.59380  Biso   1.000  O
  O39      1.0000 0.04150  0.76020  0.90620  Biso   1.000  O
  O40      1.0000 0.45850  0.73980  0.40620  Biso   1.000  O
  O41      1.0000 0.74980  0.37150  0.78240  Biso   1.000  O
  O42      1.0000 0.75020  0.12850  0.28240  Biso   1.000  O
  O43      1.0000 0.24980  0.12850  0.21760  Biso   1.000  O
  O44      1.0000 0.25020  0.37150  0.71760  Biso   1.000  O
  O45      1.0000 0.25020  0.62850  0.21760  Biso   1.000  O
  O46      1.0000 0.24980  0.87150  0.71760  Biso   1.000  O
  O47      1.0000 0.75020  0.87150  0.78240  Biso   1.000  O
  O48      1.0000 0.74980  0.62850  0.28240  Biso   1.000  O
  O49      1.0000 0.58180  0.30450  0.72370  Biso   1.000  O
  O50      1.0000 0.91820  0.19550  0.22370  Biso   1.000  O
  O51      1.0000 0.08180  0.19550  0.27630  Biso   1.000  O
  O52      1.0000 0.41820  0.30450  0.77630  Biso   1.000  O
  O53      1.0000 0.41820  0.69550  0.27630  Biso   1.000  O
  O54      1.0000 0.08180  0.80450  0.77630  Biso   1.000  O
  O55      1.0000 0.91820  0.80450  0.72370  Biso   1.000  O
  O56      1.0000 0.58180  0.69550  0.22370  Biso   1.000  O
  O57      1.0000 0.91120  0.48580  0.77340  Biso   1.000  O
  O58      1.0000 0.58880  0.01420  0.27340  Biso   1.000  O
  O59      1.0000 0.41120  0.01420  0.22660  Biso   1.000  O
  O60      1.0000 0.08880  0.48580  0.72660  Biso   1.000  O
  O61      1.0000 0.08880  0.51420  0.22660  Biso   1.000  O
  O62      1.0000 0.41120  0.98580  0.72660  Biso   1.000  O
  O63      1.0000 0.58880  0.98580  0.77340  Biso   1.000  O
  O64      1.0000 0.91120  0.51420  0.27340  Biso   1.000  O
