data_image0
_cell_length_a       8.235
_cell_length_b       19.565
_cell_length_c       7.994
_cell_angle_alpha    90
_cell_angle_beta     90
_cell_angle_gamma    90

_symmetry_space_group_name_H-M    "P 1"
_symmetry_int_tables_number       1

loop_
  _symmetry_equiv_pos_as_xyz
  'x, y, z'

loop_
  _atom_site_label
  _atom_site_occupancy
  _atom_site_fract_x
  _atom_site_fract_y
  _atom_site_fract_z
  _atom_site_thermal_displace_type
  _atom_site_B_iso_or_equiv
  _atom_site_type_symbol
  Cu1      1.0000 0.21890  0.15741  0.25000  Biso   1.000  Cu
  Cu2      1.0000 0.78110  0.84259  0.75000  Biso   1.000  Cu
  Cu3      1.0000 0.78110  0.65741  0.25000  Biso   1.000  Cu
  Cu4      1.0000 0.21890  0.34259  0.75000  Biso   1.000  Cu
  O1       1.0000 0.40820  0.12120  0.12430  Biso   1.000  O
  O2       1.0000 0.59180  0.87880  0.62430  Biso   1.000  O
  O3       1.0000 0.59180  0.62120  0.12430  Biso   1.000  O
  O4       1.0000 0.40820  0.37880  0.62430  Biso   1.000  O
  O5       1.0000 0.21940  0.22600  0.07130  Biso   1.000  O
  O6       1.0000 0.78060  0.77400  0.57130  Biso   1.000  O
  O7       1.0000 0.78060  0.72600  0.07130  Biso   1.000  O
  O8       1.0000 0.21940  0.27400  0.57130  Biso   1.000  O
  O9       1.0000 0.39060  0.23020  0.38400  Biso   1.000  O
  O10      1.0000 0.60940  0.76980  0.88400  Biso   1.000  O
  O11      1.0000 0.60940  0.73020  0.38400  Biso   1.000  O
  O12      1.0000 0.39060  0.26980  0.88400  Biso   1.000  O
  O13      1.0000 0.58590  0.15660  0.93380  Biso   1.000  O
  O14      1.0000 0.41410  0.84340  0.43380  Biso   1.000  O
  O15      1.0000 0.41410  0.65660  0.93380  Biso   1.000  O
  O16      1.0000 0.58590  0.34340  0.43380  Biso   1.000  O
  N1       1.0000 0.98630  0.17260  0.30210  Biso   1.000  N
  N2       1.0000 0.01370  0.82740  0.80210  Biso   1.000  N
  N3       1.0000 0.01370  0.67260  0.30210  Biso   1.000  N
  N4       1.0000 0.98630  0.32740  0.80210  Biso   1.000  N
  N5       1.0000 0.74350  0.21470  0.34140  Biso   1.000  N
  N6       1.0000 0.25650  0.78530  0.84140  Biso   1.000  N
  N7       1.0000 0.25650  0.71470  0.34140  Biso   1.000  N
  N8       1.0000 0.74350  0.28530  0.84140  Biso   1.000  N
  N9       1.0000 0.24820  0.08140  0.41170  Biso   1.000  N
  N10      1.0000 0.75180  0.91860  0.91170  Biso   1.000  N
  N11      1.0000 0.75180  0.58140  0.41170  Biso   1.000  N
  N12      1.0000 0.24820  0.41860  0.91170  Biso   1.000  N
  N13      1.0000 0.31090  0.98020  0.50480  Biso   1.000  N
  N14      1.0000 0.68910  0.01980  0.00480  Biso   1.000  N
  N15      1.0000 0.68910  0.48020  0.50480  Biso   1.000  N
  N16      1.0000 0.31090  0.51980  0.00480  Biso   1.000  N
  C1       1.0000 0.46000  0.16290  0.01470  Biso   1.000  C
  C2       1.0000 0.54000  0.83710  0.51470  Biso   1.000  C
  C3       1.0000 0.54000  0.66290  0.01470  Biso   1.000  C
  C4       1.0000 0.46000  0.33710  0.51470  Biso   1.000  C
  C5       1.0000 0.34950  0.22550  0.98650  Biso   1.000  C
  C6       1.0000 0.65050  0.77450  0.48650  Biso   1.000  C
  C7       1.0000 0.65050  0.72550  0.98650  Biso   1.000  C
  C8       1.0000 0.34950  0.27450  0.48650  Biso   1.000  C
  C9       1.0000 0.89840  0.22950  0.30370  Biso   1.000  C
  C10      1.0000 0.10160  0.77050  0.80370  Biso   1.000  C
  C11      1.0000 0.10160  0.72950  0.30370  Biso   1.000  C
  C12      1.0000 0.89840  0.27050  0.80370  Biso   1.000  C
  C13      1.0000 0.87910  0.12000  0.34100  Biso   1.000  C
  C14      1.0000 0.12090  0.88000  0.84100  Biso   1.000  C
  C15      1.0000 0.12090  0.62000  0.34100  Biso   1.000  C
  C16      1.0000 0.87910  0.38000  0.84100  Biso   1.000  C
  C17      1.0000 0.73070  0.14550  0.36380  Biso   1.000  C
  C18      1.0000 0.26930  0.85450  0.86380  Biso   1.000  C
  C19      1.0000 0.26930  0.64550  0.36380  Biso   1.000  C
  C20      1.0000 0.73070  0.35450  0.86380  Biso   1.000  C
  C21      1.0000 0.95550  0.30050  0.27400  Biso   1.000  C
  C22      1.0000 0.04450  0.69950  0.77400  Biso   1.000  C
  C23      1.0000 0.04450  0.80050  0.27400  Biso   1.000  C
  C24      1.0000 0.95550  0.19950  0.77400  Biso   1.000  C
  C25      1.0000 0.25550  0.01540  0.37540  Biso   1.000  C
  C26      1.0000 0.74450  0.98460  0.87540  Biso   1.000  C
  C27      1.0000 0.74450  0.51540  0.37540  Biso   1.000  C
  C28      1.0000 0.25550  0.48460  0.87540  Biso   1.000  C
  C29      1.0000 0.30160  0.08760  0.57430  Biso   1.000  C
  C30      1.0000 0.69840  0.91240  0.07430  Biso   1.000  C
  C31      1.0000 0.69840  0.58760  0.57430  Biso   1.000  C
  C32      1.0000 0.30160  0.41240  0.07430  Biso   1.000  C
  C33      1.0000 0.34040  0.02460  0.63000  Biso   1.000  C
  C34      1.0000 0.65960  0.97540  0.13000  Biso   1.000  C
  C35      1.0000 0.65960  0.52460  0.63000  Biso   1.000  C
  C36      1.0000 0.34040  0.47540  0.13000  Biso   1.000  C
  C37      1.0000 0.20910  0.98450  0.21290  Biso   1.000  C
  C38      1.0000 0.79090  0.01550  0.71290  Biso   1.000  C
  C39      1.0000 0.79090  0.48450  0.21290  Biso   1.000  C
  C40      1.0000 0.20910  0.51550  0.71290  Biso   1.000  C
  H1       1.0000 0.68000  0.25000  0.35000  Biso   1.000  H
  H2       1.0000 0.32000  0.75000  0.85000  Biso   1.000  H
  H3       1.0000 0.32000  0.75000  0.35000  Biso   1.000  H
  H4       1.0000 0.68000  0.25000  0.85000  Biso   1.000  H
  H5       1.0000 0.33000  0.93200  0.50000  Biso   1.000  H
  H6       1.0000 0.67000  0.06800  0.00000  Biso   1.000  H
  H7       1.0000 0.67000  0.43200  0.50000  Biso   1.000  H
  H8       1.0000 0.33000  0.56800  0.00000  Biso   1.000  H
  H9       1.0000 0.91000  0.08300  0.34000  Biso   1.000  H
  H10      1.0000 0.09000  0.91700  0.84000  Biso   1.000  H
  H11      1.0000 0.09000  0.58300  0.34000  Biso   1.000  H
  H12      1.0000 0.91000  0.41700  0.84000  Biso   1.000  H
  H13      1.0000 0.62000  0.11900  0.39000  Biso   1.000  H
  H14      1.0000 0.38000  0.88100  0.89000  Biso   1.000  H
  H15      1.0000 0.38000  0.61900  0.39000  Biso   1.000  H
  H16      1.0000 0.62000  0.38100  0.89000  Biso   1.000  H
  H17      1.0000 0.32000  0.12500  0.64000  Biso   1.000  H
  H18      1.0000 0.68000  0.87500  0.14000  Biso   1.000  H
  H19      1.0000 0.68000  0.62500  0.64000  Biso   1.000  H
  H20      1.0000 0.32000  0.37500  0.14000  Biso   1.000  H
  H21      1.0000 0.38400  0.01000  0.73000  Biso   1.000  H
  H22      1.0000 0.61600  0.99000  0.23000  Biso   1.000  H
  H23      1.0000 0.61600  0.51000  0.73000  Biso   1.000  H
  H24      1.0000 0.38400  0.49000  0.23000  Biso   1.000  H
  H25      1.0000 0.06885  0.30420  0.29949  Biso   1.000  H
  H26      1.0000 0.93115  0.69580  0.79949  Biso   1.000  H
  H27      1.0000 0.93115  0.80420  0.29949  Biso   1.000  H
  H28      1.0000 0.06885  0.19580  0.79949  Biso   1.000  H
  H29      1.0000 0.94013  0.31278  0.15937  Biso   1.000  H
  H30      1.0000 0.05987  0.68722  0.65937  Biso   1.000  H
  H31      1.0000 0.05987  0.81278  0.15937  Biso   1.000  H
  H32      1.0000 0.94013  0.18722  0.65937  Biso   1.000  H
  H33      1.0000 0.89712  0.33163  0.34259  Biso   1.000  H
  H34      1.0000 0.10288  0.66837  0.84259  Biso   1.000  H
  H35      1.0000 0.10288  0.83163  0.34259  Biso   1.000  H
  H36      1.0000 0.89712  0.16837  0.84259  Biso   1.000  H
  H37      1.0000 0.09420  0.97706  0.20906  Biso   1.000  H
  H38      1.0000 0.90580  0.02294  0.70906  Biso   1.000  H
  H39      1.0000 0.90580  0.47706  0.20906  Biso   1.000  H
  H40      1.0000 0.09420  0.52294  0.70906  Biso   1.000  H
  H41      1.0000 0.23774  0.01478  0.12379  Biso   1.000  H
  H42      1.0000 0.76226  0.98522  0.62379  Biso   1.000  H
  H43      1.0000 0.76226  0.51478  0.12379  Biso   1.000  H
  H44      1.0000 0.23774  0.48522  0.62379  Biso   1.000  H
  H45      1.0000 0.26310  0.94226  0.19777  Biso   1.000  H
  H46      1.0000 0.73690  0.05774  0.69777  Biso   1.000  H
  H47      1.0000 0.73690  0.44226  0.19777  Biso   1.000  H
  H48      1.0000 0.26310  0.55774  0.69777  Biso   1.000  H
