data_image0
_cell_length_a       19.4407
_cell_length_b       8.2161
_cell_length_c       7.89002
_cell_angle_alpha    90
_cell_angle_beta     90
_cell_angle_gamma    90

_symmetry_space_group_name_H-M    "P 1"
_symmetry_int_tables_number       1

loop_
  _symmetry_equiv_pos_as_xyz
  'x, y, z'

loop_
  _atom_site_label
  _atom_site_occupancy
  _atom_site_fract_x
  _atom_site_fract_y
  _atom_site_fract_z
  _atom_site_thermal_displace_type
  _atom_site_B_iso_or_equiv
  _atom_site_type_symbol
  C1       1.0000 0.22535  0.65610  0.35730  Biso   1.000  C
  C2       1.0000 0.77465  0.34390  0.85730  Biso   1.000  C
  C3       1.0000 0.27465  0.65610  0.85730  Biso   1.000  C
  C4       1.0000 0.72535  0.34390  0.35730  Biso   1.000  C
  C5       1.0000 0.16232  0.54410  0.32700  Biso   1.000  C
  C6       1.0000 0.83768  0.45590  0.82700  Biso   1.000  C
  C7       1.0000 0.33768  0.54410  0.82700  Biso   1.000  C
  C8       1.0000 0.66232  0.45590  0.32700  Biso   1.000  C
  C9       1.0000 0.22966  0.10750  0.03690  Biso   1.000  C
  C10      1.0000 0.77034  0.89250  0.53690  Biso   1.000  C
  C11      1.0000 0.27034  0.10750  0.53690  Biso   1.000  C
  C12      1.0000 0.72966  0.89250  0.03690  Biso   1.000  C
  C13      1.0000 0.14480  0.27740  0.97780  Biso   1.000  C
  C14      1.0000 0.85520  0.72260  0.47780  Biso   1.000  C
  C15      1.0000 0.35520  0.27740  0.47780  Biso   1.000  C
  C16      1.0000 0.64480  0.72260  0.97780  Biso   1.000  C
  H1       1.0000 0.12020  0.37150  0.95270  Biso   1.000  H
  H2       1.0000 0.87980  0.62850  0.45270  Biso   1.000  H
  H3       1.0000 0.37980  0.37150  0.45270  Biso   1.000  H
  H4       1.0000 0.62020  0.62850  0.95270  Biso   1.000  H
  C17      1.0000 0.11916  0.12580  0.99990  Biso   1.000  C
  C18      1.0000 0.88084  0.87420  0.49990  Biso   1.000  C
  C19      1.0000 0.38084  0.12580  0.49990  Biso   1.000  C
  C20      1.0000 0.61916  0.87420  0.99990  Biso   1.000  C
  H5       1.0000 0.07300  0.09760  0.99100  Biso   1.000  H
  H6       1.0000 0.92700  0.90240  0.49100  Biso   1.000  H
  H7       1.0000 0.42700  0.09760  0.49100  Biso   1.000  H
  H8       1.0000 0.57300  0.90240  0.99100  Biso   1.000  H
  C21      1.0000 0.30114  0.05090  0.06800  Biso   1.000  C
  C22      1.0000 0.69886  0.94910  0.56800  Biso   1.000  C
  C23      1.0000 0.19886  0.05090  0.56800  Biso   1.000  C
  C24      1.0000 0.80114  0.94910  0.06800  Biso   1.000  C
  H9       1.0000 0.30090  0.93610  0.09020  Biso   1.000  H
  H10      1.0000 0.69910  0.06390  0.59020  Biso   1.000  H
  H11      1.0000 0.19910  0.93610  0.59020  Biso   1.000  H
  H12      1.0000 0.80090  0.06390  0.09020  Biso   1.000  H
  H13      1.0000 0.32890  0.07270  0.96990  Biso   1.000  H
  H14      1.0000 0.67110  0.92730  0.46990  Biso   1.000  H
  H15      1.0000 0.17110  0.07270  0.46990  Biso   1.000  H
  H16      1.0000 0.82890  0.92730  0.96990  Biso   1.000  H
  H17      1.0000 0.31980  0.10740  0.16400  Biso   1.000  H
  H18      1.0000 0.68020  0.89260  0.66400  Biso   1.000  H
  H19      1.0000 0.18020  0.10740  0.66400  Biso   1.000  H
  H20      1.0000 0.81980  0.89260  0.16400  Biso   1.000  H
  C25      1.0000 0.01508  0.74810  0.96420  Biso   1.000  C
  C26      1.0000 0.98492  0.25190  0.46420  Biso   1.000  C
  C27      1.0000 0.48492  0.74810  0.46420  Biso   1.000  C
  C28      1.0000 0.51508  0.25190  0.96420  Biso   1.000  C
  C29      1.0000 0.02511  0.65450  0.70370  Biso   1.000  C
  C30      1.0000 0.97489  0.34550  0.20370  Biso   1.000  C
  C31      1.0000 0.47489  0.65450  0.20370  Biso   1.000  C
  C32      1.0000 0.52511  0.34550  0.70370  Biso   1.000  C
  H21      1.0000 0.01480  0.61110  0.59780  Biso   1.000  H
  H22      1.0000 0.98520  0.38890  0.09780  Biso   1.000  H
  H23      1.0000 0.48520  0.61110  0.09780  Biso   1.000  H
  H24      1.0000 0.51480  0.38890  0.59780  Biso   1.000  H
  C33      1.0000 0.08783  0.69800  0.76180  Biso   1.000  C
  C34      1.0000 0.91217  0.30200  0.26180  Biso   1.000  C
  C35      1.0000 0.41217  0.69800  0.26180  Biso   1.000  C
  C36      1.0000 0.58783  0.30200  0.76180  Biso   1.000  C
  H25      1.0000 0.12880  0.68990  0.70150  Biso   1.000  H
  H26      1.0000 0.87120  0.31010  0.20150  Biso   1.000  H
  H27      1.0000 0.37120  0.68990  0.20150  Biso   1.000  H
  H28      1.0000 0.62880  0.31010  0.70150  Biso   1.000  H
  C37      1.0000 0.98299  0.79710  0.12730  Biso   1.000  C
  C38      1.0000 0.01701  0.20290  0.62730  Biso   1.000  C
  C39      1.0000 0.51701  0.79710  0.62730  Biso   1.000  C
  C40      1.0000 0.48299  0.20290  0.12730  Biso   1.000  C
  H29      1.0000 0.93430  0.77850  0.12190  Biso   1.000  H
  H30      1.0000 0.06570  0.22150  0.62190  Biso   1.000  H
  H31      1.0000 0.56570  0.77850  0.62190  Biso   1.000  H
  H32      1.0000 0.43430  0.22150  0.12190  Biso   1.000  H
  H33      1.0000 0.00240  0.73390  0.21780  Biso   1.000  H
  H34      1.0000 0.99760  0.26610  0.71780  Biso   1.000  H
  H35      1.0000 0.49760  0.73390  0.71780  Biso   1.000  H
  H36      1.0000 0.50240  0.26610  0.21780  Biso   1.000  H
  H37      1.0000 0.99160  0.91050  0.14740  Biso   1.000  H
  H38      1.0000 0.00840  0.08950  0.64740  Biso   1.000  H
  H39      1.0000 0.50840  0.91050  0.64740  Biso   1.000  H
  H40      1.0000 0.49160  0.08950  0.14740  Biso   1.000  H
  N1       1.0000 0.17207  0.01880  0.03790  Biso   1.000  N
  N2       1.0000 0.82793  0.98120  0.53790  Biso   1.000  N
  N3       1.0000 0.32793  0.01880  0.53790  Biso   1.000  N
  N4       1.0000 0.67207  0.98120  0.03790  Biso   1.000  N
  N5       1.0000 0.21435  0.26350  0.00010  Biso   1.000  N
  N6       1.0000 0.78565  0.73650  0.50010  Biso   1.000  N
  N7       1.0000 0.28565  0.26350  0.50010  Biso   1.000  N
  N8       1.0000 0.71435  0.73650  0.00010  Biso   1.000  N
  H41      1.0000 0.24360  0.34170  0.99190  Biso   1.000  H
  H42      1.0000 0.75640  0.65830  0.49190  Biso   1.000  H
  H43      1.0000 0.25640  0.34170  0.49190  Biso   1.000  H
  H44      1.0000 0.74360  0.65830  0.99190  Biso   1.000  H
  N9       1.0000 0.08140  0.75650  0.92540  Biso   1.000  N
  N10      1.0000 0.91860  0.24350  0.42540  Biso   1.000  N
  N11      1.0000 0.41860  0.75650  0.42540  Biso   1.000  N
  N12      1.0000 0.58140  0.24350  0.92540  Biso   1.000  N
  N13      1.0000 0.97956  0.68740  0.83230  Biso   1.000  N
  N14      1.0000 0.02044  0.31260  0.33230  Biso   1.000  N
  N15      1.0000 0.52044  0.68740  0.33230  Biso   1.000  N
  N16      1.0000 0.47956  0.31260  0.83230  Biso   1.000  N
  H45      1.0000 0.93580  0.67190  0.82900  Biso   1.000  H
  H46      1.0000 0.06420  0.32810  0.32900  Biso   1.000  H
  H47      1.0000 0.56420  0.67190  0.32900  Biso   1.000  H
  H48      1.0000 0.43580  0.32810  0.82900  Biso   1.000  H
  O1       1.0000 0.22573  0.78700  0.27260  Biso   1.000  O
  O2       1.0000 0.77427  0.21300  0.77260  Biso   1.000  O
  O3       1.0000 0.27427  0.78700  0.77260  Biso   1.000  O
  O4       1.0000 0.72573  0.21300  0.27260  Biso   1.000  O
  O5       1.0000 0.11980  0.59720  0.21810  Biso   1.000  O
  O6       1.0000 0.88020  0.40280  0.71810  Biso   1.000  O
  O7       1.0000 0.38020  0.59720  0.71810  Biso   1.000  O
  O8       1.0000 0.61980  0.40280  0.21810  Biso   1.000  O
  O9       1.0000 0.26968  0.61350  0.46120  Biso   1.000  O
  O10      1.0000 0.73032  0.38650  0.96120  Biso   1.000  O
  O11      1.0000 0.23032  0.61350  0.96120  Biso   1.000  O
  O12      1.0000 0.76968  0.38650  0.46120  Biso   1.000  O
  O13      1.0000 0.15678  0.41620  0.40850  Biso   1.000  O
  O14      1.0000 0.84322  0.58380  0.90850  Biso   1.000  O
  O15      1.0000 0.34322  0.41620  0.90850  Biso   1.000  O
  O16      1.0000 0.65678  0.58380  0.40850  Biso   1.000  O
  Cu1      1.0000 0.15698  0.78669  0.09007  Biso   1.000  Cu
  Cu2      1.0000 0.84302  0.21331  0.59007  Biso   1.000  Cu
  Cu3      1.0000 0.34302  0.78669  0.59007  Biso   1.000  Cu
  Cu4      1.0000 0.65698  0.21331  0.09007  Biso   1.000  Cu
  H49      1.0000 0.33220  0.14140  0.05920  Biso   1.000  H
  H50      1.0000 0.66780  0.85860  0.55920  Biso   1.000  H
  H51      1.0000 0.16780  0.14140  0.55920  Biso   1.000  H
  H52      1.0000 0.83220  0.85860  0.05920  Biso   1.000  H
  H53      1.0000 0.30420  0.00480  0.17950  Biso   1.000  H
  H54      1.0000 0.69580  0.99520  0.67950  Biso   1.000  H
  H55      1.0000 0.19580  0.00480  0.67950  Biso   1.000  H
  H56      1.0000 0.80420  0.99520  0.17950  Biso   1.000  H
  H57      1.0000 0.31320  0.97010  0.98540  Biso   1.000  H
  H58      1.0000 0.68680  0.02990  0.48540  Biso   1.000  H
  H59      1.0000 0.18680  0.97010  0.48540  Biso   1.000  H
  H60      1.0000 0.81320  0.02990  0.98540  Biso   1.000  H
  H61      1.0000 0.01790  0.83670  0.20280  Biso   1.000  H
  H62      1.0000 0.98210  0.16330  0.70280  Biso   1.000  H
  H63      1.0000 0.48210  0.83670  0.70280  Biso   1.000  H
  H64      1.0000 0.51790  0.16330  0.20280  Biso   1.000  H
  H65      1.0000 0.94980  0.88140  0.10700  Biso   1.000  H
  H66      1.0000 0.05020  0.11860  0.60700  Biso   1.000  H
  H67      1.0000 0.55020  0.88140  0.60700  Biso   1.000  H
  H68      1.0000 0.44980  0.11860  0.10700  Biso   1.000  H
  H69      1.0000 0.96060  0.70480  0.17730  Biso   1.000  H
  H70      1.0000 0.03940  0.29520  0.67730  Biso   1.000  H
  H71      1.0000 0.53940  0.70480  0.67730  Biso   1.000  H
  H72      1.0000 0.46060  0.29520  0.17730  Biso   1.000  H
