data_image0
_cell_length_a       10.089
_cell_length_b       14.902
_cell_length_c       10.296
_cell_angle_alpha    90
_cell_angle_beta     103
_cell_angle_gamma    90

_symmetry_space_group_name_H-M    "P 1"
_symmetry_int_tables_number       1

loop_
  _symmetry_equiv_pos_as_xyz
  'x, y, z'

loop_
  _atom_site_label
  _atom_site_occupancy
  _atom_site_fract_x
  _atom_site_fract_y
  _atom_site_fract_z
  _atom_site_thermal_displace_type
  _atom_site_B_iso_or_equiv
  _atom_site_type_symbol
  Cu1      1.0000 0.48631  0.07124  0.70621  Biso   1.000  Cu
  Cu2      1.0000 0.51369  0.57124  0.79379  Biso   1.000  Cu
  Cu3      1.0000 0.51369  0.92876  0.29379  Biso   1.000  Cu
  Cu4      1.0000 0.48631  0.42876  0.20621  Biso   1.000  Cu
  O1       1.0000 0.60720  0.12411  0.59269  Biso   1.000  O
  O2       1.0000 0.39280  0.62411  0.90731  Biso   1.000  O
  O3       1.0000 0.39280  0.87589  0.40731  Biso   1.000  O
  O4       1.0000 0.60720  0.37589  0.09269  Biso   1.000  O
  O5       1.0000 0.68489  0.25416  0.53203  Biso   1.000  O
  O6       1.0000 0.31511  0.75416  0.96797  Biso   1.000  O
  O7       1.0000 0.31511  0.74584  0.46797  Biso   1.000  O
  O8       1.0000 0.68489  0.24584  0.03203  Biso   1.000  O
  O9       1.0000 0.36253  0.06682  0.84728  Biso   1.000  O
  O10      1.0000 0.63747  0.56682  0.65272  Biso   1.000  O
  O11      1.0000 0.63747  0.93318  0.15272  Biso   1.000  O
  O12      1.0000 0.36253  0.43318  0.34728  Biso   1.000  O
  O13      1.0000 0.24340  0.16000  0.95056  Biso   1.000  O
  O14      1.0000 0.75660  0.66000  0.54944  Biso   1.000  O
  O15      1.0000 0.75660  0.84000  0.04944  Biso   1.000  O
  O16      1.0000 0.24340  0.34000  0.45056  Biso   1.000  O
  O17      1.0000 0.42648  0.46089  0.81319  Biso   1.000  O
  O18      1.0000 0.57352  0.96089  0.68681  Biso   1.000  O
  O19      1.0000 0.57352  0.53911  0.18681  Biso   1.000  O
  O20      1.0000 0.42648  0.03911  0.31319  Biso   1.000  O
  O21      1.0000 0.29933  0.02946  0.54442  Biso   1.000  O
  O22      1.0000 0.70067  0.52946  0.95558  Biso   1.000  O
  O23      1.0000 0.70067  0.97054  0.45558  Biso   1.000  O
  O24      1.0000 0.29933  0.47054  0.04442  Biso   1.000  O
  N1       1.0000 0.45987  0.19585  0.73244  Biso   1.000  N
  N2       1.0000 0.54013  0.69585  0.76756  Biso   1.000  N
  N3       1.0000 0.54013  0.80415  0.26756  Biso   1.000  N
  N4       1.0000 0.45987  0.30415  0.23244  Biso   1.000  N
  C1       1.0000 0.61470  0.20973  0.59340  Biso   1.000  C
  C2       1.0000 0.38530  0.70973  0.90660  Biso   1.000  C
  C3       1.0000 0.38530  0.79027  0.40660  Biso   1.000  C
  C4       1.0000 0.61470  0.29027  0.09340  Biso   1.000  C
  C5       1.0000 0.53040  0.25540  0.67800  Biso   1.000  C
  C6       1.0000 0.46960  0.75540  0.82200  Biso   1.000  C
  C7       1.0000 0.46960  0.74460  0.32200  Biso   1.000  C
  C8       1.0000 0.53040  0.24460  0.17800  Biso   1.000  C
  C9       1.0000 0.52560  0.34651  0.70250  Biso   1.000  C
  C10      1.0000 0.47440  0.84651  0.79750  Biso   1.000  C
  C11      1.0000 0.47440  0.65349  0.29750  Biso   1.000  C
  C12      1.0000 0.52560  0.15349  0.20250  Biso   1.000  C
  H1       1.0000 0.57820  0.38750  0.66440  Biso   1.000  H
  H2       1.0000 0.42180  0.88750  0.83560  Biso   1.000  H
  H3       1.0000 0.42180  0.61250  0.33560  Biso   1.000  H
  H4       1.0000 0.57820  0.11250  0.16440  Biso   1.000  H
  C13      1.0000 0.44070  0.37740  0.78550  Biso   1.000  C
  C14      1.0000 0.55930  0.87740  0.71450  Biso   1.000  C
  C15      1.0000 0.55930  0.62260  0.21450  Biso   1.000  C
  C16      1.0000 0.44070  0.12260  0.28550  Biso   1.000  C
  C17      1.0000 0.36770  0.31183  0.84140  Biso   1.000  C
  C18      1.0000 0.63230  0.81183  0.65860  Biso   1.000  C
  C19      1.0000 0.63230  0.68817  0.15860  Biso   1.000  C
  C20      1.0000 0.36770  0.18817  0.34140  Biso   1.000  C
  H5       1.0000 0.30940  0.32960  0.89750  Biso   1.000  H
  H6       1.0000 0.69060  0.82960  0.60250  Biso   1.000  H
  H7       1.0000 0.69060  0.67040  0.10250  Biso   1.000  H
  H8       1.0000 0.30940  0.17040  0.39750  Biso   1.000  H
  C21      1.0000 0.38180  0.22231  0.81380  Biso   1.000  C
  C22      1.0000 0.61820  0.72231  0.68620  Biso   1.000  C
  C23      1.0000 0.61820  0.77769  0.18620  Biso   1.000  C
  C24      1.0000 0.38180  0.27769  0.31380  Biso   1.000  C
  C25      1.0000 0.32300  0.14484  0.87610  Biso   1.000  C
  C26      1.0000 0.67700  0.64484  0.62390  Biso   1.000  C
  C27      1.0000 0.67700  0.85516  0.12390  Biso   1.000  C
  C28      1.0000 0.32300  0.35516  0.37610  Biso   1.000  C
  H9       1.0000 0.26700  0.98500  0.56100  Biso   1.000  H
  H10      1.0000 0.73300  0.48500  0.93900  Biso   1.000  H
  H11      1.0000 0.73300  0.01500  0.43900  Biso   1.000  H
  H12      1.0000 0.26700  0.51500  0.06100  Biso   1.000  H
  H13      1.0000 0.32800  0.02100  0.47900  Biso   1.000  H
  H14      1.0000 0.67200  0.52100  0.02100  Biso   1.000  H
  H15      1.0000 0.67200  0.97900  0.52100  Biso   1.000  H
  H16      1.0000 0.32800  0.47900  0.97900  Biso   1.000  H
  O25      1.0000 0.11361  0.17007  0.52710  Biso   1.000  O
  O26      1.0000 0.88639  0.67007  0.97290  Biso   1.000  O
  O27      1.0000 0.88639  0.82993  0.47290  Biso   1.000  O
  O28      1.0000 0.11361  0.32993  0.02710  Biso   1.000  O
  H17      1.0000 0.14900  0.21500  0.50800  Biso   1.000  H
  H18      1.0000 0.85100  0.71500  0.99200  Biso   1.000  H
  H19      1.0000 0.85100  0.78500  0.49200  Biso   1.000  H
  H20      1.0000 0.14900  0.28500  0.00800  Biso   1.000  H
  H21      1.0000 0.16700  0.13120  0.52800  Biso   1.000  H
  H22      1.0000 0.83300  0.63120  0.97200  Biso   1.000  H
  H23      1.0000 0.83300  0.86880  0.47200  Biso   1.000  H
  H24      1.0000 0.16700  0.36880  0.02800  Biso   1.000  H
  O29      1.0000 0.16640  0.87022  0.58210  Biso   1.000  O
  O30      1.0000 0.83360  0.37022  0.91790  Biso   1.000  O
  O31      1.0000 0.83360  0.12978  0.41790  Biso   1.000  O
  O32      1.0000 0.16640  0.62978  0.08210  Biso   1.000  O
  H25      1.0000 0.09300  0.85400  0.55200  Biso   1.000  H
  H26      1.0000 0.90700  0.35400  0.94800  Biso   1.000  H
  H27      1.0000 0.90700  0.14600  0.44800  Biso   1.000  H
  H28      1.0000 0.09300  0.64600  0.05200  Biso   1.000  H
  H29      1.0000 0.20800  0.83700  0.55000  Biso   1.000  H
  H30      1.0000 0.79200  0.33700  0.95000  Biso   1.000  H
  H31      1.0000 0.79200  0.16300  0.45000  Biso   1.000  H
  H32      1.0000 0.20800  0.66300  0.05000  Biso   1.000  H
  N5       1.0000 0.71100  0.06332  0.96580  Biso   1.000  N
  N6       1.0000 0.28900  0.56332  0.53420  Biso   1.000  N
  N7       1.0000 0.28900  0.93668  0.03420  Biso   1.000  N
  N8       1.0000 0.71100  0.43668  0.46580  Biso   1.000  N
  N9       1.0000 0.85611  0.96417  0.89370  Biso   1.000  N
  N10      1.0000 0.14389  0.46417  0.60630  Biso   1.000  N
  N11      1.0000 0.14389  0.03583  0.10630  Biso   1.000  N
  N12      1.0000 0.85611  0.53583  0.39370  Biso   1.000  N
  C29      1.0000 0.98950  0.84416  0.82590  Biso   1.000  C
  C30      1.0000 0.01050  0.34416  0.67410  Biso   1.000  C
  C31      1.0000 0.01050  0.15584  0.17410  Biso   1.000  C
  C32      1.0000 0.98950  0.65584  0.32590  Biso   1.000  C
  H33      1.0000 0.91230  0.80940  0.77590  Biso   1.000  H
  H34      1.0000 0.08770  0.30940  0.72410  Biso   1.000  H
  H35      1.0000 0.08770  0.19060  0.22410  Biso   1.000  H
  H36      1.0000 0.91230  0.69060  0.27590  Biso   1.000  H
  H37      1.0000 0.01380  0.82290  0.91830  Biso   1.000  H
  H38      1.0000 0.98620  0.32290  0.58170  Biso   1.000  H
  H39      1.0000 0.98620  0.17710  0.08170  Biso   1.000  H
  H40      1.0000 0.01380  0.67710  0.41830  Biso   1.000  H
  H41      1.0000 0.06750  0.83660  0.78480  Biso   1.000  H
  H42      1.0000 0.93250  0.33660  0.71520  Biso   1.000  H
  H43      1.0000 0.93250  0.16340  0.21520  Biso   1.000  H
  H44      1.0000 0.06750  0.66340  0.28480  Biso   1.000  H
  C33      1.0000 0.95150  0.94108  0.82400  Biso   1.000  C
  C34      1.0000 0.04850  0.44108  0.67600  Biso   1.000  C
  C35      1.0000 0.04850  0.05892  0.17600  Biso   1.000  C
  C36      1.0000 0.95150  0.55892  0.32400  Biso   1.000  C
  C37      1.0000 0.00470  0.00701  0.75870  Biso   1.000  C
  C38      1.0000 0.99530  0.50701  0.74130  Biso   1.000  C
  C39      1.0000 0.99530  0.99299  0.24130  Biso   1.000  C
  C40      1.0000 0.00470  0.49299  0.25870  Biso   1.000  C
  H45      1.0000 0.07130  0.99260  0.70970  Biso   1.000  H
  H46      1.0000 0.92870  0.49260  0.79030  Biso   1.000  H
  H47      1.0000 0.92870  0.00740  0.29030  Biso   1.000  H
  H48      1.0000 0.07130  0.50740  0.20970  Biso   1.000  H
  C41      1.0000 0.96090  0.09600  0.76420  Biso   1.000  C
  C42      1.0000 0.03910  0.59600  0.73580  Biso   1.000  C
  C43      1.0000 0.03910  0.90400  0.23580  Biso   1.000  C
  C44      1.0000 0.96090  0.40400  0.26420  Biso   1.000  C
  H49      1.0000 0.99860  0.14180  0.71940  Biso   1.000  H
  H50      1.0000 0.00140  0.64180  0.78060  Biso   1.000  H
  H51      1.0000 0.00140  0.85820  0.28060  Biso   1.000  H
  H52      1.0000 0.99860  0.35820  0.21940  Biso   1.000  H
  C45      1.0000 0.86430  0.11738  0.83340  Biso   1.000  C
  C46      1.0000 0.13570  0.61738  0.66660  Biso   1.000  C
  C47      1.0000 0.13570  0.88262  0.16660  Biso   1.000  C
  C48      1.0000 0.86430  0.38262  0.33340  Biso   1.000  C
  H53      1.0000 0.83490  0.17770  0.83680  Biso   1.000  H
  H54      1.0000 0.16510  0.67770  0.66320  Biso   1.000  H
  H55      1.0000 0.16510  0.82230  0.16320  Biso   1.000  H
  H56      1.0000 0.83490  0.32230  0.33680  Biso   1.000  H
  C49      1.0000 0.80910  0.04903  0.89940  Biso   1.000  C
  C50      1.0000 0.19090  0.54903  0.60060  Biso   1.000  C
  C51      1.0000 0.19090  0.95097  0.10060  Biso   1.000  C
  C52      1.0000 0.80910  0.45097  0.39940  Biso   1.000  C
  H57      1.0000 0.69000  0.02340  0.01500  Biso   1.000  H
  H58      1.0000 0.31000  0.52340  0.48500  Biso   1.000  H
  H59      1.0000 0.31000  0.97660  0.98500  Biso   1.000  H
  H60      1.0000 0.69000  0.47660  0.51500  Biso   1.000  H
  H61      1.0000 0.82900  0.92400  0.93300  Biso   1.000  H
  H62      1.0000 0.17100  0.42400  0.56700  Biso   1.000  H
  H63      1.0000 0.17100  0.07600  0.06700  Biso   1.000  H
  H64      1.0000 0.82900  0.57600  0.43300  Biso   1.000  H
  H65      1.0000 0.69500  0.11500  0.98300  Biso   1.000  H
  H66      1.0000 0.30500  0.61500  0.51700  Biso   1.000  H
  H67      1.0000 0.30500  0.88500  0.01700  Biso   1.000  H
  H68      1.0000 0.69500  0.38500  0.48300  Biso   1.000  H
