data_image0
_cell_length_a       8.5762
_cell_length_b       21.844
_cell_length_c       11.092
_cell_angle_alpha    90
_cell_angle_beta     110.512
_cell_angle_gamma    90

_symmetry_space_group_name_H-M    "P 1"
_symmetry_int_tables_number       1

loop_
  _symmetry_equiv_pos_as_xyz
  'x, y, z'

loop_
  _atom_site_label
  _atom_site_occupancy
  _atom_site_fract_x
  _atom_site_fract_y
  _atom_site_fract_z
  _atom_site_thermal_displace_type
  _atom_site_B_iso_or_equiv
  _atom_site_type_symbol
  Cu1      1.0000 0.24379  0.46104  0.24673  Biso   1.000  Cu
  Cu2      1.0000 0.75621  0.96104  0.25327  Biso   1.000  Cu
  Cu3      1.0000 0.75621  0.53896  0.75327  Biso   1.000  Cu
  Cu4      1.0000 0.24379  0.03896  0.74673  Biso   1.000  Cu
  O1       1.0000 0.92920  0.45702  0.14970  Biso   1.000  O
  O2       1.0000 0.07080  0.95702  0.35030  Biso   1.000  O
  O3       1.0000 0.07080  0.54298  0.85030  Biso   1.000  O
  O4       1.0000 0.92920  0.04298  0.64970  Biso   1.000  O
  H1       1.0000 0.86800  0.48060  0.17400  Biso   1.000  H
  H2       1.0000 0.13200  0.98060  0.32600  Biso   1.000  H
  H3       1.0000 0.13200  0.51940  0.82600  Biso   1.000  H
  H4       1.0000 0.86800  0.01940  0.67400  Biso   1.000  H
  H5       1.0000 0.88900  0.42410  0.15900  Biso   1.000  H
  H6       1.0000 0.11100  0.92410  0.34100  Biso   1.000  H
  H7       1.0000 0.11100  0.57590  0.84100  Biso   1.000  H
  H8       1.0000 0.88900  0.07590  0.65900  Biso   1.000  H
  S1       1.0000 0.40293  0.27120  0.73399  Biso   1.000  S
  S2       1.0000 0.59707  0.77120  0.76601  Biso   1.000  S
  S3       1.0000 0.59707  0.72880  0.26601  Biso   1.000  S
  S4       1.0000 0.40293  0.22880  0.23399  Biso   1.000  S
  S5       1.0000 0.19734  0.26502  0.78428  Biso   1.000  S
  S6       1.0000 0.80266  0.76502  0.71572  Biso   1.000  S
  S7       1.0000 0.80266  0.73498  0.21572  Biso   1.000  S
  S8       1.0000 0.19734  0.23498  0.28428  Biso   1.000  S
  N1       1.0000 0.27360  0.39907  0.38730  Biso   1.000  N
  N2       1.0000 0.72640  0.89907  0.11270  Biso   1.000  N
  N3       1.0000 0.72640  0.60093  0.61270  Biso   1.000  N
  N4       1.0000 0.27360  0.10093  0.88730  Biso   1.000  N
  C1       1.0000 0.16410  0.39047  0.44620  Biso   1.000  C
  C2       1.0000 0.83590  0.89047  0.05380  Biso   1.000  C
  C3       1.0000 0.83590  0.60953  0.55380  Biso   1.000  C
  C4       1.0000 0.16410  0.10953  0.94620  Biso   1.000  C
  H9       1.0000 0.06300  0.41110  0.41490  Biso   1.000  H
  H10      1.0000 0.93700  0.91110  0.08510  Biso   1.000  H
  H11      1.0000 0.93700  0.58890  0.58510  Biso   1.000  H
  H12      1.0000 0.06300  0.08890  0.91490  Biso   1.000  H
  C5       1.0000 0.19280  0.35245  0.55170  Biso   1.000  C
  C6       1.0000 0.80720  0.85245  0.94830  Biso   1.000  C
  C7       1.0000 0.80720  0.64755  0.44830  Biso   1.000  C
  C8       1.0000 0.19280  0.14755  0.05170  Biso   1.000  C
  H13      1.0000 0.11260  0.34750  0.58960  Biso   1.000  H
  H14      1.0000 0.88740  0.84750  0.91040  Biso   1.000  H
  H15      1.0000 0.88740  0.65250  0.41040  Biso   1.000  H
  H16      1.0000 0.11260  0.15250  0.08960  Biso   1.000  H
  C9       1.0000 0.34270  0.32212  0.59920  Biso   1.000  C
  C10      1.0000 0.65730  0.82212  0.90080  Biso   1.000  C
  C11      1.0000 0.65730  0.67788  0.40080  Biso   1.000  C
  C12      1.0000 0.34270  0.17788  0.09920  Biso   1.000  C
  C13      1.0000 0.45810  0.32988  0.53840  Biso   1.000  C
  C14      1.0000 0.54190  0.82988  0.96160  Biso   1.000  C
  C15      1.0000 0.54190  0.67012  0.46160  Biso   1.000  C
  C16      1.0000 0.45810  0.17012  0.03840  Biso   1.000  C
  H17      1.0000 0.55960  0.30940  0.56770  Biso   1.000  H
  H18      1.0000 0.44040  0.80940  0.93230  Biso   1.000  H
  H19      1.0000 0.44040  0.69060  0.43230  Biso   1.000  H
  H20      1.0000 0.55960  0.19060  0.06770  Biso   1.000  H
  C17      1.0000 0.41960  0.36847  0.43400  Biso   1.000  C
  C18      1.0000 0.58040  0.86847  0.06600  Biso   1.000  C
  C19      1.0000 0.58040  0.63153  0.56600  Biso   1.000  C
  C20      1.0000 0.41960  0.13153  0.93400  Biso   1.000  C
  H21      1.0000 0.49730  0.37370  0.39380  Biso   1.000  H
  H22      1.0000 0.50270  0.87370  0.10620  Biso   1.000  H
  H23      1.0000 0.50270  0.62630  0.60620  Biso   1.000  H
  H24      1.0000 0.49730  0.12630  0.89380  Biso   1.000  H
  N5       1.0000 0.25730  0.39560  0.11800  Biso   1.000  N
  N6       1.0000 0.74270  0.89560  0.38200  Biso   1.000  N
  N7       1.0000 0.74270  0.60440  0.88200  Biso   1.000  N
  N8       1.0000 0.25730  0.10440  0.61800  Biso   1.000  N
  C21      1.0000 0.13100  0.35579  0.07370  Biso   1.000  C
  C22      1.0000 0.86900  0.85579  0.42630  Biso   1.000  C
  C23      1.0000 0.86900  0.64421  0.92630  Biso   1.000  C
  C24      1.0000 0.13100  0.14421  0.57370  Biso   1.000  C
  H25      1.0000 0.05140  0.35490  0.11290  Biso   1.000  H
  H26      1.0000 0.94860  0.85490  0.38710  Biso   1.000  H
  H27      1.0000 0.94860  0.64510  0.88710  Biso   1.000  H
  H28      1.0000 0.05140  0.14510  0.61290  Biso   1.000  H
  C25      1.0000 0.11290  0.31611  0.97300  Biso   1.000  C
  C26      1.0000 0.88710  0.81611  0.52700  Biso   1.000  C
  C27      1.0000 0.88710  0.68389  0.02700  Biso   1.000  C
  C28      1.0000 0.11290  0.18389  0.47300  Biso   1.000  C
  H29      1.0000 0.02270  0.28950  0.94470  Biso   1.000  H
  H30      1.0000 0.97730  0.78950  0.55530  Biso   1.000  H
  H31      1.0000 0.97730  0.71050  0.05530  Biso   1.000  H
  H32      1.0000 0.02270  0.21050  0.44470  Biso   1.000  H
  C29      1.0000 0.23260  0.31680  0.91450  Biso   1.000  C
  C30      1.0000 0.76740  0.81680  0.58550  Biso   1.000  C
  C31      1.0000 0.76740  0.68320  0.08550  Biso   1.000  C
  C32      1.0000 0.23260  0.18320  0.41450  Biso   1.000  C
  C33      1.0000 0.36670  0.35592  0.96260  Biso   1.000  C
  C34      1.0000 0.63330  0.85592  0.53740  Biso   1.000  C
  C35      1.0000 0.63330  0.64408  0.03740  Biso   1.000  C
  C36      1.0000 0.36670  0.14408  0.46260  Biso   1.000  C
  H33      1.0000 0.45080  0.35640  0.92770  Biso   1.000  H
  H34      1.0000 0.54920  0.85640  0.57230  Biso   1.000  H
  H35      1.0000 0.54920  0.64360  0.07230  Biso   1.000  H
  H36      1.0000 0.45080  0.14360  0.42770  Biso   1.000  H
  C37      1.0000 0.37400  0.39432  0.06320  Biso   1.000  C
  C38      1.0000 0.62600  0.89432  0.43680  Biso   1.000  C
  C39      1.0000 0.62600  0.60568  0.93680  Biso   1.000  C
  C40      1.0000 0.37400  0.10568  0.56320  Biso   1.000  C
  H37      1.0000 0.46450  0.42070  0.09460  Biso   1.000  H
  H38      1.0000 0.53550  0.92070  0.40540  Biso   1.000  H
  H39      1.0000 0.53550  0.57930  0.90540  Biso   1.000  H
  H40      1.0000 0.46450  0.07930  0.59460  Biso   1.000  H
  N9       1.0000 0.26880  0.52854  0.13210  Biso   1.000  N
  N10      1.0000 0.73120  0.02854  0.36790  Biso   1.000  N
  N11      1.0000 0.73120  0.47146  0.86790  Biso   1.000  N
  N12      1.0000 0.26880  0.97146  0.63210  Biso   1.000  N
  H41      1.0000 0.36470  0.52370  0.11720  Biso   1.000  H
  H42      1.0000 0.63530  0.02370  0.38280  Biso   1.000  H
  H43      1.0000 0.63530  0.47630  0.88280  Biso   1.000  H
  H44      1.0000 0.36470  0.97630  0.61720  Biso   1.000  H
  H45      1.0000 0.18420  0.52710  0.05600  Biso   1.000  H
  H46      1.0000 0.81580  0.02710  0.44400  Biso   1.000  H
  H47      1.0000 0.81580  0.47290  0.94400  Biso   1.000  H
  H48      1.0000 0.18420  0.97290  0.55600  Biso   1.000  H
  N13      1.0000 0.20140  0.52970  0.35250  Biso   1.000  N
  N14      1.0000 0.79860  0.02970  0.14750  Biso   1.000  N
  N15      1.0000 0.79860  0.47030  0.64750  Biso   1.000  N
  N16      1.0000 0.20140  0.97030  0.85250  Biso   1.000  N
  H49      1.0000 0.11880  0.51940  0.38110  Biso   1.000  H
  H50      1.0000 0.88120  0.01940  0.11890  Biso   1.000  H
  H51      1.0000 0.88120  0.48060  0.61890  Biso   1.000  H
  H52      1.0000 0.11880  0.98060  0.88110  Biso   1.000  H
  H53      1.0000 0.29370  0.53730  0.42100  Biso   1.000  H
  H54      1.0000 0.70630  0.03730  0.07900  Biso   1.000  H
  H55      1.0000 0.70630  0.46270  0.57900  Biso   1.000  H
  H56      1.0000 0.29370  0.96270  0.92100  Biso   1.000  H
  C41      1.0000 0.26900  0.58823  0.19460  Biso   1.000  C
  C42      1.0000 0.73100  0.08823  0.30540  Biso   1.000  C
  C43      1.0000 0.73100  0.41177  0.80540  Biso   1.000  C
  C44      1.0000 0.26900  0.91177  0.69460  Biso   1.000  C
  H57      1.0000 0.23230  0.62020  0.13000  Biso   1.000  H
  H58      1.0000 0.76770  0.12020  0.37000  Biso   1.000  H
  H59      1.0000 0.76770  0.37980  0.87000  Biso   1.000  H
  H60      1.0000 0.23230  0.87980  0.63000  Biso   1.000  H
  H61      1.0000 0.38080  0.59810  0.25180  Biso   1.000  H
  H62      1.0000 0.61920  0.09810  0.24820  Biso   1.000  H
  H63      1.0000 0.61920  0.40190  0.74820  Biso   1.000  H
  H64      1.0000 0.38080  0.90190  0.75180  Biso   1.000  H
  C45      1.0000 0.15400  0.58458  0.26940  Biso   1.000  C
  C46      1.0000 0.84600  0.08458  0.23060  Biso   1.000  C
  C47      1.0000 0.84600  0.41542  0.73060  Biso   1.000  C
  C48      1.0000 0.15400  0.91542  0.76940  Biso   1.000  C
  H65      1.0000 0.16440  0.62100  0.32160  Biso   1.000  H
  H66      1.0000 0.83560  0.12100  0.17840  Biso   1.000  H
  H67      1.0000 0.83560  0.37900  0.67840  Biso   1.000  H
  H68      1.0000 0.16440  0.87900  0.82160  Biso   1.000  H
  H69      1.0000 0.03960  0.58130  0.21130  Biso   1.000  H
  H70      1.0000 0.96040  0.08130  0.28870  Biso   1.000  H
  H71      1.0000 0.96040  0.41870  0.78870  Biso   1.000  H
  H72      1.0000 0.03960  0.91870  0.71130  Biso   1.000  H
  O5       1.0000 0.57620  0.48905  0.36030  Biso   1.000  O
  O6       1.0000 0.42380  0.98905  0.13970  Biso   1.000  O
  O7       1.0000 0.42380  0.51095  0.63970  Biso   1.000  O
  O8       1.0000 0.57620  0.01095  0.86030  Biso   1.000  O
  O9       1.0000 0.64310  0.51406  0.19550  Biso   1.000  O
  O10      1.0000 0.35690  0.01406  0.30450  Biso   1.000  O
  O11      1.0000 0.35690  0.48594  0.80450  Biso   1.000  O
  O12      1.0000 0.64310  0.98594  0.69550  Biso   1.000  O
  O13      1.0000 0.83450  0.49563  0.37950  Biso   1.000  O
  O14      1.0000 0.16550  0.99563  0.12050  Biso   1.000  O
  O15      1.0000 0.16550  0.50437  0.62050  Biso   1.000  O
  O16      1.0000 0.83450  0.00437  0.87950  Biso   1.000  O
  N17      1.0000 0.68500  0.49950  0.31250  Biso   1.000  N
  N18      1.0000 0.31500  0.99950  0.18750  Biso   1.000  N
  N19      1.0000 0.31500  0.50050  0.68750  Biso   1.000  N
  N20      1.0000 0.68500  0.00050  0.81250  Biso   1.000  N
  O17      1.0000 0.77800  0.25313  0.22150  Biso   1.000  O
  O18      1.0000 0.22200  0.75313  0.27850  Biso   1.000  O
  O19      1.0000 0.22200  0.74687  0.77850  Biso   1.000  O
  O20      1.0000 0.77800  0.24687  0.72150  Biso   1.000  O
  O21      1.0000 0.76810  0.29728  0.04430  Biso   1.000  O
  O22      1.0000 0.23190  0.79728  0.45570  Biso   1.000  O
  O23      1.0000 0.23190  0.70272  0.95570  Biso   1.000  O
  O24      1.0000 0.76810  0.20272  0.54430  Biso   1.000  O
  O25      1.0000 0.80520  0.35034  0.21440  Biso   1.000  O
  O26      1.0000 0.19480  0.85034  0.28560  Biso   1.000  O
  O27      1.0000 0.19480  0.64966  0.78560  Biso   1.000  O
  O28      1.0000 0.80520  0.14966  0.71440  Biso   1.000  O
  N21      1.0000 0.78260  0.29968  0.15990  Biso   1.000  N
  N22      1.0000 0.21740  0.79968  0.34010  Biso   1.000  N
  N23      1.0000 0.21740  0.70032  0.84010  Biso   1.000  N
  N24      1.0000 0.78260  0.20032  0.65990  Biso   1.000  N
  O29      1.0000 0.79550  0.33030  0.47080  Biso   1.000  O
  O30      1.0000 0.20450  0.83030  0.02920  Biso   1.000  O
  O31      1.0000 0.20450  0.66970  0.52920  Biso   1.000  O
  O32      1.0000 0.79550  0.16970  0.97080  Biso   1.000  O
  H73      1.0000 0.80000  0.29440  0.50100  Biso   1.000  H
  H74      1.0000 0.20000  0.79440  0.99900  Biso   1.000  H
  H75      1.0000 0.20000  0.70560  0.49900  Biso   1.000  H
  H76      1.0000 0.80000  0.20560  0.00100  Biso   1.000  H
  H77      1.0000 0.79500  0.32800  0.39500  Biso   1.000  H
  H78      1.0000 0.20500  0.82800  0.10500  Biso   1.000  H
  H79      1.0000 0.20500  0.67200  0.60500  Biso   1.000  H
  H80      1.0000 0.79500  0.17200  0.89500  Biso   1.000  H
