data_image0
_cell_length_a       7.9627
_cell_length_b       12.2231
_cell_length_c       6.8727
_cell_angle_alpha    90
_cell_angle_beta     94.028
_cell_angle_gamma    90

_symmetry_space_group_name_H-M    "P 1"
_symmetry_int_tables_number       1

loop_
  _symmetry_equiv_pos_as_xyz
  'x, y, z'

loop_
  _atom_site_label
  _atom_site_occupancy
  _atom_site_fract_x
  _atom_site_fract_y
  _atom_site_fract_z
  _atom_site_thermal_displace_type
  _atom_site_B_iso_or_equiv
  _atom_site_type_symbol
  Cu1      1.0000 0.26636  0.23103  0.14367  Biso   1.000  Cu
  Cu2      1.0000 0.73364  0.73103  0.35633  Biso   1.000  Cu
  Cu3      1.0000 0.73364  0.76897  0.85633  Biso   1.000  Cu
  Cu4      1.0000 0.26636  0.26897  0.64367  Biso   1.000  Cu
  Cl1      1.0000 0.47823  0.19865  0.86208  Biso   1.000  Cl
  Cl2      1.0000 0.52177  0.69865  0.63792  Biso   1.000  Cl
  Cl3      1.0000 0.52177  0.80135  0.13792  Biso   1.000  Cl
  Cl4      1.0000 0.47823  0.30135  0.36208  Biso   1.000  Cl
  Cl5      1.0000 0.04130  0.16463  0.95766  Biso   1.000  Cl
  Cl6      1.0000 0.95870  0.66463  0.54234  Biso   1.000  Cl
  Cl7      1.0000 0.95870  0.83537  0.04234  Biso   1.000  Cl
  Cl8      1.0000 0.04130  0.33537  0.45766  Biso   1.000  Cl
  O1       1.0000 0.22463  0.38045  0.05214  Biso   1.000  O
  O2       1.0000 0.77537  0.88045  0.44786  Biso   1.000  O
  O3       1.0000 0.77537  0.61955  0.94786  Biso   1.000  O
  O4       1.0000 0.22463  0.11955  0.55214  Biso   1.000  O
  O5       1.0000 0.30810  0.41519  0.75348  Biso   1.000  O
  O6       1.0000 0.69190  0.91519  0.74652  Biso   1.000  O
  O7       1.0000 0.69190  0.58481  0.24652  Biso   1.000  O
  O8       1.0000 0.30810  0.08481  0.25348  Biso   1.000  O
  C1       1.0000 0.26000  0.56427  0.96340  Biso   1.000  C
  C2       1.0000 0.74000  0.06427  0.53660  Biso   1.000  C
  C3       1.0000 0.74000  0.43573  0.03660  Biso   1.000  C
  C4       1.0000 0.26000  0.93573  0.46340  Biso   1.000  C
  C5       1.0000 0.26510  0.44331  0.91980  Biso   1.000  C
  C6       1.0000 0.73490  0.94331  0.58020  Biso   1.000  C
  C7       1.0000 0.73490  0.55669  0.08020  Biso   1.000  C
  C8       1.0000 0.26510  0.05669  0.41980  Biso   1.000  C
  N1       1.0000 0.28760  0.55075  0.32710  Biso   1.000  N
  N2       1.0000 0.71240  0.05075  0.17290  Biso   1.000  N
  N3       1.0000 0.71240  0.44925  0.67290  Biso   1.000  N
  N4       1.0000 0.28760  0.94925  0.82710  Biso   1.000  N
  C9       1.0000 0.18650  0.59300  0.15280  Biso   1.000  C
  C10      1.0000 0.81350  0.09300  0.34720  Biso   1.000  C
  C11      1.0000 0.81350  0.40700  0.84720  Biso   1.000  C
  C12      1.0000 0.18650  0.90700  0.65280  Biso   1.000  C
  H1       1.0000 0.36500  0.59360  0.95600  Biso   1.000  H
  H2       1.0000 0.63500  0.09360  0.54400  Biso   1.000  H
  H3       1.0000 0.63500  0.40640  0.04400  Biso   1.000  H
  H4       1.0000 0.36500  0.90640  0.45600  Biso   1.000  H
  H5       1.0000 0.07700  0.56600  0.15800  Biso   1.000  H
  H6       1.0000 0.92300  0.06600  0.34200  Biso   1.000  H
  H7       1.0000 0.92300  0.43400  0.84200  Biso   1.000  H
  H8       1.0000 0.07700  0.93400  0.65800  Biso   1.000  H
  H9       1.0000 0.18100  0.67150  0.17600  Biso   1.000  H
  H10      1.0000 0.81900  0.17150  0.32400  Biso   1.000  H
  H11      1.0000 0.81900  0.32850  0.82400  Biso   1.000  H
  H12      1.0000 0.18100  0.82850  0.67600  Biso   1.000  H
  H13      1.0000 0.20200  0.59700  0.86400  Biso   1.000  H
  H14      1.0000 0.79800  0.09700  0.63600  Biso   1.000  H
  H15      1.0000 0.79800  0.40300  0.13600  Biso   1.000  H
  H16      1.0000 0.20200  0.90300  0.36400  Biso   1.000  H
  H17      1.0000 0.29700  0.47800  0.32600  Biso   1.000  H
  H18      1.0000 0.70300  0.97800  0.17400  Biso   1.000  H
  H19      1.0000 0.70300  0.52200  0.67400  Biso   1.000  H
  H20      1.0000 0.29700  0.02200  0.82600  Biso   1.000  H
  H21      1.0000 0.38300  0.58200  0.32800  Biso   1.000  H
  H22      1.0000 0.61700  0.08200  0.17200  Biso   1.000  H
  H23      1.0000 0.61700  0.41800  0.67200  Biso   1.000  H
  H24      1.0000 0.38300  0.91800  0.82800  Biso   1.000  H
  H25      1.0000 0.22600  0.56300  0.44500  Biso   1.000  H
  H26      1.0000 0.77400  0.06300  0.05500  Biso   1.000  H
  H27      1.0000 0.77400  0.43700  0.55500  Biso   1.000  H
  H28      1.0000 0.22600  0.93700  0.94500  Biso   1.000  H
