data_image0
_cell_length_a       7.96
_cell_length_b       12.249
_cell_length_c       6.875
_cell_angle_alpha    90
_cell_angle_beta     94.1
_cell_angle_gamma    90

_symmetry_space_group_name_H-M    "P 1"
_symmetry_int_tables_number       1

loop_
  _symmetry_equiv_pos_as_xyz
  'x, y, z'

loop_
  _atom_site_label
  _atom_site_occupancy
  _atom_site_fract_x
  _atom_site_fract_y
  _atom_site_fract_z
  _atom_site_thermal_displace_type
  _atom_site_B_iso_or_equiv
  _atom_site_type_symbol
  Cu1      1.0000 0.23350  0.23130  0.35600  Biso   1.000  Cu
  Cu2      1.0000 0.76650  0.73130  0.14400  Biso   1.000  Cu
  Cu3      1.0000 0.76650  0.76870  0.64400  Biso   1.000  Cu
  Cu4      1.0000 0.23350  0.26870  0.85600  Biso   1.000  Cu
  Cl1      1.0000 0.02260  0.30130  0.13710  Biso   1.000  Cl
  Cl2      1.0000 0.97740  0.80130  0.36290  Biso   1.000  Cl
  Cl3      1.0000 0.97740  0.69870  0.86290  Biso   1.000  Cl
  Cl4      1.0000 0.02260  0.19870  0.63710  Biso   1.000  Cl
  Cl5      1.0000 0.45850  0.16450  0.54280  Biso   1.000  Cl
  Cl6      1.0000 0.54150  0.66450  0.95720  Biso   1.000  Cl
  Cl7      1.0000 0.54150  0.83550  0.45720  Biso   1.000  Cl
  Cl8      1.0000 0.45850  0.33550  0.04280  Biso   1.000  Cl
  O1       1.0000 0.27550  0.37880  0.44900  Biso   1.000  O
  O2       1.0000 0.72450  0.87880  0.05100  Biso   1.000  O
  O3       1.0000 0.72450  0.62120  0.55100  Biso   1.000  O
  O4       1.0000 0.27550  0.12120  0.94900  Biso   1.000  O
  O5       1.0000 0.19350  0.08390  0.24700  Biso   1.000  O
  O6       1.0000 0.80650  0.58390  0.25300  Biso   1.000  O
  O7       1.0000 0.80650  0.91610  0.75300  Biso   1.000  O
  O8       1.0000 0.19350  0.41610  0.74700  Biso   1.000  O
  C1       1.0000 0.23440  0.44370  0.57900  Biso   1.000  C
  C2       1.0000 0.76560  0.94370  0.92100  Biso   1.000  C
  C3       1.0000 0.76560  0.55630  0.42100  Biso   1.000  C
  C4       1.0000 0.23440  0.05630  0.07900  Biso   1.000  C
  C5       1.0000 0.24020  0.56490  0.53830  Biso   1.000  C
  C6       1.0000 0.75980  0.06490  0.96170  Biso   1.000  C
  C7       1.0000 0.75980  0.43510  0.46170  Biso   1.000  C
  C8       1.0000 0.24020  0.93510  0.03830  Biso   1.000  C
  C9       1.0000 0.31440  0.59240  0.34530  Biso   1.000  C
  C10      1.0000 0.68560  0.09240  0.15470  Biso   1.000  C
  C11      1.0000 0.68560  0.40760  0.65470  Biso   1.000  C
  C12      1.0000 0.31440  0.90760  0.84530  Biso   1.000  C
  N1       1.0000 0.21140  0.54950  0.17450  Biso   1.000  N
  N2       1.0000 0.78860  0.04950  0.32550  Biso   1.000  N
  N3       1.0000 0.78860  0.45050  0.82550  Biso   1.000  N
  N4       1.0000 0.21140  0.95050  0.67450  Biso   1.000  N
  H1       1.0000 0.29900  0.60100  0.64500  Biso   1.000  H
  H2       1.0000 0.70100  0.10100  0.85500  Biso   1.000  H
  H3       1.0000 0.70100  0.39900  0.35500  Biso   1.000  H
  H4       1.0000 0.29900  0.89900  0.14500  Biso   1.000  H
  H5       1.0000 0.41900  0.58600  0.30600  Biso   1.000  H
  H6       1.0000 0.58100  0.08600  0.19400  Biso   1.000  H
  H7       1.0000 0.58100  0.41400  0.69400  Biso   1.000  H
  H8       1.0000 0.41900  0.91400  0.80600  Biso   1.000  H
  H9       1.0000 0.33300  0.66600  0.35300  Biso   1.000  H
  H10      1.0000 0.66700  0.16600  0.14700  Biso   1.000  H
  H11      1.0000 0.66700  0.33400  0.64700  Biso   1.000  H
  H12      1.0000 0.33300  0.83400  0.85300  Biso   1.000  H
  H13      1.0000 0.11100  0.58600  0.14300  Biso   1.000  H
  H14      1.0000 0.88900  0.08600  0.35700  Biso   1.000  H
  H15      1.0000 0.88900  0.41400  0.85700  Biso   1.000  H
  H16      1.0000 0.11100  0.91400  0.64300  Biso   1.000  H
  H17      1.0000 0.23400  0.50100  0.12300  Biso   1.000  H
  H18      1.0000 0.76600  0.00100  0.37700  Biso   1.000  H
  H19      1.0000 0.76600  0.49900  0.87700  Biso   1.000  H
  H20      1.0000 0.23400  0.99900  0.62300  Biso   1.000  H
