data_image0
_cell_length_a       9.5644
_cell_length_b       7.8438
_cell_length_c       15.5158
_cell_angle_alpha    90
_cell_angle_beta     102.01
_cell_angle_gamma    90

_symmetry_space_group_name_H-M    "P 1"
_symmetry_int_tables_number       1

loop_
  _symmetry_equiv_pos_as_xyz
  'x, y, z'

loop_
  _atom_site_label
  _atom_site_occupancy
  _atom_site_fract_x
  _atom_site_fract_y
  _atom_site_fract_z
  _atom_site_thermal_displace_type
  _atom_site_B_iso_or_equiv
  _atom_site_type_symbol
  C1       1.0000 0.05570  0.16100  0.17210  Biso   1.000  C
  C2       1.0000 0.94430  0.66100  0.82790  Biso   1.000  C
  C3       1.0000 0.15560  0.15120  0.26160  Biso   1.000  C
  C4       1.0000 0.84440  0.65120  0.73840  Biso   1.000  C
  C5       1.0000 0.24570  0.28670  0.28830  Biso   1.000  C
  C6       1.0000 0.75430  0.78670  0.71170  Biso   1.000  C
  H1       1.0000 0.24620  0.37920  0.25090  Biso   1.000  H
  H2       1.0000 0.75380  0.87920  0.74910  Biso   1.000  H
  C7       1.0000 0.33580  0.28580  0.37070  Biso   1.000  C
  C8       1.0000 0.66420  0.78580  0.62930  Biso   1.000  C
  H3       1.0000 0.39970  0.37460  0.38860  Biso   1.000  H
  H4       1.0000 0.60030  0.87460  0.61140  Biso   1.000  H
  C9       1.0000 0.32790  0.14840  0.42580  Biso   1.000  C
  C10      1.0000 0.67210  0.64840  0.57420  Biso   1.000  C
  C11      1.0000 0.15730  0.01390  0.31880  Biso   1.000  C
  C12      1.0000 0.84270  0.51390  0.68120  Biso   1.000  C
  H5       1.0000 0.10050  0.91920  0.30030  Biso   1.000  H
  H6       1.0000 0.89950  0.41920  0.69970  Biso   1.000  H
  C13      1.0000 0.41140  0.13710  0.52010  Biso   1.000  C
  C14      1.0000 0.58860  0.63710  0.47990  Biso   1.000  C
  C15      1.0000 0.09950  0.54690  0.47130  Biso   1.000  C
  C16      1.0000 0.90050  0.04690  0.52870  Biso   1.000  C
  C17      1.0000 0.17680  0.54590  0.56700  Biso   1.000  C
  C18      1.0000 0.82320  0.04590  0.43300  Biso   1.000  C
  C19      1.0000 0.16190  0.42250  0.62620  Biso   1.000  C
  C20      1.0000 0.83810  0.92250  0.37380  Biso   1.000  C
  H7       1.0000 0.10980  0.32420  0.60800  Biso   1.000  H
  H8       1.0000 0.89020  0.82420  0.39200  Biso   1.000  H
  C21      1.0000 0.22720  0.44660  0.71600  Biso   1.000  C
  C22      1.0000 0.77280  0.94660  0.28400  Biso   1.000  C
  H9       1.0000 0.21810  0.36430  0.75760  Biso   1.000  H
  H10      1.0000 0.78190  0.86430  0.24240  Biso   1.000  H
  C23      1.0000 0.30370  0.59180  0.74090  Biso   1.000  C
  C24      1.0000 0.69630  0.09180  0.25910  Biso   1.000  C
  C25      1.0000 0.31710  0.71070  0.67640  Biso   1.000  C
  C26      1.0000 0.68290  0.21070  0.32360  Biso   1.000  C
  H11      1.0000 0.37070  0.80890  0.69230  Biso   1.000  H
  H12      1.0000 0.62930  0.30890  0.30770  Biso   1.000  H
  C27      1.0000 0.36690  0.63680  0.83580  Biso   1.000  C
  C28      1.0000 0.63310  0.13680  0.16420  Biso   1.000  C
  Cu1      1.0000 0.25270  0.84544  0.49445  Biso   1.000  Cu
  Cu2      1.0000 0.74730  0.34544  0.50555  Biso   1.000  Cu
  Gd1      1.0000 0.01649  0.50259  0.03677  Biso   1.000  Gd
  Gd2      1.0000 0.98351  0.00259  0.96323  Biso   1.000  Gd
  Gd3      1.0000 0.48934  0.99079  0.95839  Biso   1.000  Gd
  Gd4      1.0000 0.51066  0.49079  0.04161  Biso   1.000  Gd
  C29      1.0000 0.26700  0.71270  0.04460  Biso   1.000  C
  C30      1.0000 0.73300  0.21270  0.95540  Biso   1.000  C
  C31      1.0000 0.75570  0.68670  0.01940  Biso   1.000  C
  C32      1.0000 0.24430  0.18670  0.98060  Biso   1.000  C
  N1       1.0000 0.23970  0.01640  0.39980  Biso   1.000  N
  N2       1.0000 0.76030  0.51640  0.60020  Biso   1.000  N
  N3       1.0000 0.25410  0.68600  0.59190  Biso   1.000  N
  N4       1.0000 0.74590  0.18600  0.40810  Biso   1.000  N
  O1       1.0000 0.38120  0.78670  0.03780  Biso   1.000  O
  O2       1.0000 0.61880  0.28670  0.96220  Biso   1.000  O
  O3       1.0000 0.27310  0.55040  0.06680  Biso   1.000  O
  O4       1.0000 0.72690  0.05040  0.93320  Biso   1.000  O
  O5       1.0000 0.14320  0.78080  0.02950  Biso   1.000  O
  O6       1.0000 0.85680  0.28080  0.97050  Biso   1.000  O
  O7       1.0000 0.62720  0.73390  0.98820  Biso   1.000  O
  O8       1.0000 0.37280  0.23390  0.01180  Biso   1.000  O
  O9       1.0000 0.77490  0.55320  0.07010  Biso   1.000  O
  O10      1.0000 0.22510  0.05320  0.92990  Biso   1.000  O
  O11      1.0000 0.86530  0.75180  0.99880  Biso   1.000  O
  O12      1.0000 0.13470  0.25180  0.00120  Biso   1.000  O
  O13      1.0000 0.01720  0.30770  0.14990  Biso   1.000  O
  O14      1.0000 0.98280  0.80770  0.85010  Biso   1.000  O
  O15      1.0000 0.02070  0.02820  0.12830  Biso   1.000  O
  O16      1.0000 0.97930  0.52820  0.87170  Biso   1.000  O
  O17      1.0000 0.50920  0.23860  0.54640  Biso   1.000  O
  O18      1.0000 0.49080  0.73860  0.45360  Biso   1.000  O
  O19      1.0000 0.37360  0.01680  0.56510  Biso   1.000  O
  O20      1.0000 0.62640  0.51680  0.43490  Biso   1.000  O
  O21      1.0000 0.13450  0.67170  0.42620  Biso   1.000  O
  O22      1.0000 0.86550  0.17170  0.57380  Biso   1.000  O
  O23      1.0000 0.01110  0.43790  0.44470  Biso   1.000  O
  O24      1.0000 0.98890  0.93790  0.55530  Biso   1.000  O
  O25      1.0000 0.39670  0.79090  0.84930  Biso   1.000  O
  O26      1.0000 0.60330  0.29090  0.15070  Biso   1.000  O
  O27      1.0000 0.38280  0.51750  0.89100  Biso   1.000  O
  O28      1.0000 0.61720  0.01750  0.10900  Biso   1.000  O
  O29      1.0000 0.06090  0.66630  0.17900  Biso   1.000  O
  O30      1.0000 0.93910  0.16630  0.82100  Biso   1.000  O
  O31      1.0000 0.42880  0.13590  0.81750  Biso   1.000  O
  O32      1.0000 0.57120  0.63590  0.18250  Biso   1.000  O
  O33      1.0000 0.86890  0.53850  0.27160  Biso   1.000  O
  O34      1.0000 0.13110  0.03850  0.72840  Biso   1.000  O
  O35      1.0000 0.36860  0.70700  0.27270  Biso   1.000  O
  O36      1.0000 0.63140  0.20700  0.72730  Biso   1.000  O
  H13      1.0000 0.91700  0.48500  0.31900  Biso   1.000  H
  H14      1.0000 0.08300  0.98500  0.68100  Biso   1.000  H
  H15      1.0000 0.80300  0.46300  0.24800  Biso   1.000  H
  H16      1.0000 0.19700  0.96300  0.75200  Biso   1.000  H
  H17      1.0000 0.46800  0.18400  0.78200  Biso   1.000  H
  H18      1.0000 0.53200  0.68400  0.21800  Biso   1.000  H
  H19      1.0000 0.40300  0.81000  0.28900  Biso   1.000  H
  H20      1.0000 0.59700  0.31000  0.71100  Biso   1.000  H
  H21      1.0000 0.28300  0.70800  0.28700  Biso   1.000  H
  H22      1.0000 0.71700  0.20800  0.71300  Biso   1.000  H
  H23      1.0000 0.99700  0.61000  0.19400  Biso   1.000  H
  H24      1.0000 0.00300  0.11000  0.80600  Biso   1.000  H
  H25      1.0000 0.02200  0.75800  0.16400  Biso   1.000  H
  H26      1.0000 0.97800  0.25800  0.83600  Biso   1.000  H
  H27      1.0000 0.42200  0.03700  0.80000  Biso   1.000  H
  H28      1.0000 0.57800  0.53700  0.20000  Biso   1.000  H
