data_image0
_cell_length_a       8.808
_cell_length_b       9.541
_cell_length_c       23.753
_cell_angle_alpha    90
_cell_angle_beta     101.34
_cell_angle_gamma    90

_symmetry_space_group_name_H-M    "P 1"
_symmetry_int_tables_number       1

loop_
  _symmetry_equiv_pos_as_xyz
  'x, y, z'

loop_
  _atom_site_label
  _atom_site_occupancy
  _atom_site_fract_x
  _atom_site_fract_y
  _atom_site_fract_z
  _atom_site_thermal_displace_type
  _atom_site_B_iso_or_equiv
  _atom_site_type_symbol
  Cu1      1.0000 0.39729  0.91932  0.10190  Biso   1.000  Cu
  Cu2      1.0000 0.60271  0.41932  0.39810  Biso   1.000  Cu
  Cu3      1.0000 0.60271  0.08068  0.89810  Biso   1.000  Cu
  Cu4      1.0000 0.39729  0.58068  0.60190  Biso   1.000  Cu
  Cl1      1.0000 0.42532  0.12413  0.05213  Biso   1.000  Cl
  Cl2      1.0000 0.57468  0.62413  0.44786  Biso   1.000  Cl
  Cl3      1.0000 0.57468  0.87587  0.94786  Biso   1.000  Cl
  Cl4      1.0000 0.42532  0.37587  0.55214  Biso   1.000  Cl
  Cl5      1.0000 0.27605  0.94294  0.18680  Biso   1.000  Cl
  Cl6      1.0000 0.72395  0.44294  0.31320  Biso   1.000  Cl
  Cl7      1.0000 0.72395  0.05706  0.81320  Biso   1.000  Cl
  Cl8      1.0000 0.27605  0.55706  0.68680  Biso   1.000  Cl
  N1       1.0000 0.51407  0.49539  0.12815  Biso   1.000  N
  N2       1.0000 0.48593  0.99539  0.37185  Biso   1.000  N
  N3       1.0000 0.48593  0.50461  0.87185  Biso   1.000  N
  N4       1.0000 0.51407  0.00461  0.62815  Biso   1.000  N
  N5       1.0000 0.44224  0.70875  0.10040  Biso   1.000  N
  N6       1.0000 0.55776  0.20875  0.39960  Biso   1.000  N
  N7       1.0000 0.55776  0.29125  0.89960  Biso   1.000  N
  N8       1.0000 0.44224  0.79125  0.60040  Biso   1.000  N
  N9       1.0000 0.97095  0.17318  0.02852  Biso   1.000  N
  N10      1.0000 0.02905  0.67318  0.47148  Biso   1.000  N
  N11      1.0000 0.02905  0.82682  0.97148  Biso   1.000  N
  N12      1.0000 0.97095  0.32682  0.52852  Biso   1.000  N
  N13      1.0000 0.80470  0.12434  0.94919  Biso   1.000  N
  N14      1.0000 0.19530  0.62434  0.55081  Biso   1.000  N
  N15      1.0000 0.19530  0.87566  0.05081  Biso   1.000  N
  N16      1.0000 0.80470  0.37566  0.44919  Biso   1.000  N
  N17      1.0000 0.20654  0.51670  0.27901  Biso   1.000  N
  N18      1.0000 0.79346  0.01670  0.22099  Biso   1.000  N
  N19      1.0000 0.79346  0.48330  0.72099  Biso   1.000  N
  N20      1.0000 0.20654  0.98330  0.77901  Biso   1.000  N
  N21      1.0000 0.39360  0.44714  0.34879  Biso   1.000  N
  N22      1.0000 0.60640  0.94714  0.15121  Biso   1.000  N
  N23      1.0000 0.60640  0.55286  0.65121  Biso   1.000  N
  N24      1.0000 0.39360  0.05286  0.84879  Biso   1.000  N
  C1       1.0000 0.76662  0.38265  0.15934  Biso   1.000  C
  C2       1.0000 0.23338  0.88265  0.34066  Biso   1.000  C
  C3       1.0000 0.23338  0.61735  0.84066  Biso   1.000  C
  C4       1.0000 0.76662  0.11735  0.65934  Biso   1.000  C
  C5       1.0000 0.82542  0.28496  0.12633  Biso   1.000  C
  C6       1.0000 0.17458  0.78496  0.37367  Biso   1.000  C
  C7       1.0000 0.17458  0.71504  0.87367  Biso   1.000  C
  C8       1.0000 0.82542  0.21504  0.62633  Biso   1.000  C
  H1       1.0000 0.75850  0.21680  0.10540  Biso   1.000  H
  H2       1.0000 0.24150  0.71680  0.39460  Biso   1.000  H
  H3       1.0000 0.24150  0.78320  0.89460  Biso   1.000  H
  H4       1.0000 0.75850  0.28320  0.60540  Biso   1.000  H
  C9       1.0000 0.98242  0.28552  0.12345  Biso   1.000  C
  C10      1.0000 0.01758  0.78552  0.37655  Biso   1.000  C
  C11      1.0000 0.01758  0.71448  0.87655  Biso   1.000  C
  C12      1.0000 0.98242  0.21448  0.62345  Biso   1.000  C
  C13      1.0000 0.07897  0.38520  0.15453  Biso   1.000  C
  C14      1.0000 0.92103  0.88520  0.34547  Biso   1.000  C
  C15      1.0000 0.92103  0.61480  0.84547  Biso   1.000  C
  C16      1.0000 0.07897  0.11480  0.65453  Biso   1.000  C
  H5       1.0000 0.18580  0.38630  0.15280  Biso   1.000  H
  H6       1.0000 0.81420  0.88630  0.34720  Biso   1.000  H
  H7       1.0000 0.81420  0.61370  0.84720  Biso   1.000  H
  H8       1.0000 0.18580  0.11370  0.65280  Biso   1.000  H
  C17      1.0000 0.02158  0.48366  0.18823  Biso   1.000  C
  C18      1.0000 0.97842  0.98366  0.31177  Biso   1.000  C
  C19      1.0000 0.97842  0.51634  0.81177  Biso   1.000  C
  C20      1.0000 0.02158  0.01634  0.68823  Biso   1.000  C
  C21      1.0000 0.86551  0.48214  0.19011  Biso   1.000  C
  C22      1.0000 0.13449  0.98214  0.30989  Biso   1.000  C
  C23      1.0000 0.13449  0.51786  0.80989  Biso   1.000  C
  C24      1.0000 0.86551  0.01786  0.69011  Biso   1.000  C
  H9       1.0000 0.82530  0.54970  0.21270  Biso   1.000  H
  H10      1.0000 0.17470  0.04970  0.28730  Biso   1.000  H
  H11      1.0000 0.17470  0.45030  0.78730  Biso   1.000  H
  H12      1.0000 0.82530  0.95030  0.71270  Biso   1.000  H
  C25      1.0000 0.59746  0.38170  0.16278  Biso   1.000  C
  C26      1.0000 0.40254  0.88170  0.33722  Biso   1.000  C
  C27      1.0000 0.40254  0.61830  0.83722  Biso   1.000  C
  C28      1.0000 0.59746  0.11830  0.66278  Biso   1.000  C
  H13      1.0000 0.55110  0.29050  0.14880  Biso   1.000  H
  H14      1.0000 0.44890  0.79050  0.35120  Biso   1.000  H
  H15      1.0000 0.44890  0.70950  0.85120  Biso   1.000  H
  H16      1.0000 0.55110  0.20950  0.64880  Biso   1.000  H
  H17      1.0000 0.58700  0.39290  0.20330  Biso   1.000  H
  H18      1.0000 0.41300  0.89290  0.29670  Biso   1.000  H
  H19      1.0000 0.41300  0.60710  0.79670  Biso   1.000  H
  H20      1.0000 0.58700  0.10710  0.70330  Biso   1.000  H
  C29      1.0000 0.50657  0.62963  0.14400  Biso   1.000  C
  C30      1.0000 0.49343  0.12963  0.35600  Biso   1.000  C
  C31      1.0000 0.49343  0.37037  0.85600  Biso   1.000  C
  C32      1.0000 0.50657  0.87037  0.64400  Biso   1.000  C
  H21      1.0000 0.54300  0.66340  0.18190  Biso   1.000  H
  H22      1.0000 0.45700  0.16340  0.31810  Biso   1.000  H
  H23      1.0000 0.45700  0.33660  0.81810  Biso   1.000  H
  H24      1.0000 0.54300  0.83660  0.68190  Biso   1.000  H
  C33      1.0000 0.40780  0.62010  0.05410  Biso   1.000  C
  C34      1.0000 0.59220  0.12010  0.44590  Biso   1.000  C
  C35      1.0000 0.59220  0.37990  0.94590  Biso   1.000  C
  C36      1.0000 0.40780  0.87990  0.55410  Biso   1.000  C
  H25      1.0000 0.35960  0.64730  0.01630  Biso   1.000  H
  H26      1.0000 0.64040  0.14730  0.48370  Biso   1.000  H
  H27      1.0000 0.64040  0.35270  0.98370  Biso   1.000  H
  H28      1.0000 0.35960  0.85270  0.51630  Biso   1.000  H
  C37      1.0000 0.45270  0.48830  0.07044  Biso   1.000  C
  C38      1.0000 0.54730  0.98830  0.42956  Biso   1.000  C
  C39      1.0000 0.54730  0.51170  0.92956  Biso   1.000  C
  C40      1.0000 0.45270  0.01170  0.57044  Biso   1.000  C
  H29      1.0000 0.44360  0.40730  0.04680  Biso   1.000  H
  H30      1.0000 0.55640  0.90730  0.45320  Biso   1.000  H
  H31      1.0000 0.55640  0.59270  0.95320  Biso   1.000  H
  H32      1.0000 0.44360  0.09270  0.54680  Biso   1.000  H
  C41      1.0000 0.04710  0.17450  0.08933  Biso   1.000  C
  C42      1.0000 0.95290  0.67450  0.41067  Biso   1.000  C
  C43      1.0000 0.95290  0.82550  0.91067  Biso   1.000  C
  C44      1.0000 0.04710  0.32550  0.58933  Biso   1.000  C
  H33      1.0000 0.15930  0.19120  0.09220  Biso   1.000  H
  H34      1.0000 0.84070  0.69120  0.40780  Biso   1.000  H
  H35      1.0000 0.84070  0.80880  0.90780  Biso   1.000  H
  H36      1.0000 0.15930  0.30880  0.59220  Biso   1.000  H
  H37      1.0000 0.03450  0.08150  0.10630  Biso   1.000  H
  H38      1.0000 0.96550  0.58150  0.39370  Biso   1.000  H
  H39      1.0000 0.96550  0.91850  0.89370  Biso   1.000  H
  H40      1.0000 0.03450  0.41850  0.60630  Biso   1.000  H
  C45      1.0000 0.84179  0.10250  0.00518  Biso   1.000  C
  C46      1.0000 0.15821  0.60250  0.49482  Biso   1.000  C
  C47      1.0000 0.15821  0.89750  0.99482  Biso   1.000  C
  C48      1.0000 0.84179  0.39750  0.50518  Biso   1.000  C
  H41      1.0000 0.78480  0.04460  0.02610  Biso   1.000  H
  H42      1.0000 0.21520  0.54460  0.47390  Biso   1.000  H
  H43      1.0000 0.21520  0.95540  0.97390  Biso   1.000  H
  H44      1.0000 0.78480  0.45540  0.52610  Biso   1.000  H
  C49      1.0000 0.91540  0.21330  0.93630  Biso   1.000  C
  C50      1.0000 0.08460  0.71330  0.56370  Biso   1.000  C
  C51      1.0000 0.08460  0.78670  0.06370  Biso   1.000  C
  C52      1.0000 0.91540  0.28670  0.43630  Biso   1.000  C
  H45      1.0000 0.91910  0.24800  0.89910  Biso   1.000  H
  H46      1.0000 0.08090  0.74800  0.60090  Biso   1.000  H
  H47      1.0000 0.08090  0.75200  0.10090  Biso   1.000  H
  H48      1.0000 0.91910  0.25200  0.39910  Biso   1.000  H
  C53      1.0000 0.01870  0.24400  0.98512  Biso   1.000  C
  C54      1.0000 0.98130  0.74400  0.51488  Biso   1.000  C
  C55      1.0000 0.98130  0.75600  0.01488  Biso   1.000  C
  C56      1.0000 0.01870  0.25600  0.48512  Biso   1.000  C
  H49      1.0000 0.10690  0.30300  0.98840  Biso   1.000  H
  H50      1.0000 0.89310  0.80300  0.51160  Biso   1.000  H
  H51      1.0000 0.89310  0.69700  0.01160  Biso   1.000  H
  H52      1.0000 0.10690  0.19700  0.48840  Biso   1.000  H
  C57      1.0000 0.12810  0.58514  0.22580  Biso   1.000  C
  C58      1.0000 0.87190  0.08514  0.27420  Biso   1.000  C
  C59      1.0000 0.87190  0.41486  0.77420  Biso   1.000  C
  C60      1.0000 0.12810  0.91486  0.72580  Biso   1.000  C
  H53      1.0000 0.20640  0.62080  0.20460  Biso   1.000  H
  H54      1.0000 0.79360  0.12080  0.29540  Biso   1.000  H
  H55      1.0000 0.79360  0.37920  0.79540  Biso   1.000  H
  H56      1.0000 0.20640  0.87920  0.70460  Biso   1.000  H
  H57      1.0000 0.06740  0.66600  0.23530  Biso   1.000  H
  H58      1.0000 0.93260  0.16600  0.26470  Biso   1.000  H
  H59      1.0000 0.93260  0.33400  0.76470  Biso   1.000  H
  H60      1.0000 0.06740  0.83400  0.73530  Biso   1.000  H
  C61      1.0000 0.36017  0.51451  0.29953  Biso   1.000  C
  C62      1.0000 0.63983  0.01451  0.20047  Biso   1.000  C
  C63      1.0000 0.63983  0.48549  0.70047  Biso   1.000  C
  C64      1.0000 0.36017  0.98549  0.79953  Biso   1.000  C
  H61      1.0000 0.43490  0.55620  0.28090  Biso   1.000  H
  H62      1.0000 0.56510  0.05620  0.21910  Biso   1.000  H
  H63      1.0000 0.56510  0.44380  0.71910  Biso   1.000  H
  H64      1.0000 0.43490  0.94380  0.78090  Biso   1.000  H
  C65      1.0000 0.25430  0.40370  0.36062  Biso   1.000  C
  C66      1.0000 0.74570  0.90370  0.13938  Biso   1.000  C
  C67      1.0000 0.74570  0.59630  0.63938  Biso   1.000  C
  C68      1.0000 0.25430  0.09630  0.86062  Biso   1.000  C
  H65      1.0000 0.24150  0.35230  0.39360  Biso   1.000  H
  H66      1.0000 0.75850  0.85230  0.10640  Biso   1.000  H
  H67      1.0000 0.75850  0.64770  0.60640  Biso   1.000  H
  H68      1.0000 0.24150  0.14770  0.89360  Biso   1.000  H
  C69      1.0000 0.13750  0.44610  0.31758  Biso   1.000  C
  C70      1.0000 0.86250  0.94610  0.18242  Biso   1.000  C
  C71      1.0000 0.86250  0.55390  0.68242  Biso   1.000  C
  C72      1.0000 0.13750  0.05390  0.81758  Biso   1.000  C
  H69      1.0000 0.02980  0.43000  0.31480  Biso   1.000  H
  H70      1.0000 0.97020  0.93000  0.18520  Biso   1.000  H
  H71      1.0000 0.97020  0.57000  0.68520  Biso   1.000  H
  H72      1.0000 0.02980  0.07000  0.81480  Biso   1.000  H
