data_image0
_cell_length_a       8.7
_cell_length_b       9.759
_cell_length_c       13.242
_cell_angle_alpha    81.828
_cell_angle_beta     78.65
_cell_angle_gamma    89.736

_symmetry_space_group_name_H-M    "P 1"
_symmetry_int_tables_number       1

loop_
  _symmetry_equiv_pos_as_xyz
  'x, y, z'

loop_
  _atom_site_label
  _atom_site_occupancy
  _atom_site_fract_x
  _atom_site_fract_y
  _atom_site_fract_z
  _atom_site_thermal_displace_type
  _atom_site_B_iso_or_equiv
  _atom_site_type_symbol
  Cu1      1.0000 0.00000  0.00000  0.00000  Biso   1.000  Cu
  Cu2      1.0000 0.00000  0.00000  0.50000  Biso   1.000  Cu
  S1       1.0000 0.92290  0.09389  0.27187  Biso   1.000  S
  S2       1.0000 0.07710  0.90611  0.72813  Biso   1.000  S
  O1       1.0000 0.00350  0.03220  0.18223  Biso   1.000  O
  O2       1.0000 0.99650  0.96780  0.81777  Biso   1.000  O
  O3       1.0000 0.28830  0.05680  0.47840  Biso   1.000  O
  O4       1.0000 0.71170  0.94320  0.52160  Biso   1.000  O
  O5       1.0000 0.77500  0.01540  0.31660  Biso   1.000  O
  O6       1.0000 0.22500  0.98460  0.68340  Biso   1.000  O
  O7       1.0000 0.47220  0.88640  0.33730  Biso   1.000  O
  O8       1.0000 0.52780  0.11360  0.66270  Biso   1.000  O
  O9       1.0000 0.02360  0.08100  0.35077  Biso   1.000  O
  O10      1.0000 0.97640  0.91900  0.64923  Biso   1.000  O
  O11      1.0000 0.89390  0.23900  0.24157  Biso   1.000  O
  O12      1.0000 0.10610  0.76100  0.75843  Biso   1.000  O
  N1       1.0000 0.21090  0.36880  0.83840  Biso   1.000  N
  N2       1.0000 0.78910  0.63120  0.16160  Biso   1.000  N
  N3       1.0000 0.08970  0.18910  0.94080  Biso   1.000  N
  N4       1.0000 0.91030  0.81090  0.05920  Biso   1.000  N
  N5       1.0000 0.45540  0.85620  0.93090  Biso   1.000  N
  N6       1.0000 0.54460  0.14380  0.06910  Biso   1.000  N
  N7       1.0000 0.21960  0.92440  0.99280  Biso   1.000  N
  N8       1.0000 0.78040  0.07560  0.00720  Biso   1.000  N
  N9       1.0000 0.88570  0.35170  0.63430  Biso   1.000  N
  N10      1.0000 0.11430  0.64830  0.36570  Biso   1.000  N
  N11      1.0000 0.93500  0.18230  0.54160  Biso   1.000  N
  N12      1.0000 0.06500  0.81770  0.45840  Biso   1.000  N
  C1       1.0000 0.44850  0.51360  0.76210  Biso   1.000  C
  C2       1.0000 0.55150  0.48640  0.23790  Biso   1.000  C
  C3       1.0000 0.44950  0.63750  0.80090  Biso   1.000  C
  C4       1.0000 0.55050  0.36250  0.19910  Biso   1.000  C
  H1       1.0000 0.35650  0.68440  0.81660  Biso   1.000  H
  H2       1.0000 0.64350  0.31560  0.18340  Biso   1.000  H
  C5       1.0000 0.58840  0.69250  0.81660  Biso   1.000  C
  C6       1.0000 0.41160  0.30750  0.18340  Biso   1.000  C
  C7       1.0000 0.72600  0.62420  0.78870  Biso   1.000  C
  C8       1.0000 0.27400  0.37580  0.21130  Biso   1.000  C
  H3       1.0000 0.82010  0.66190  0.79670  Biso   1.000  H
  H4       1.0000 0.17990  0.33810  0.20330  Biso   1.000  H
  C9       1.0000 0.58630  0.44440  0.73690  Biso   1.000  C
  C10      1.0000 0.41370  0.55560  0.26310  Biso   1.000  C
  H5       1.0000 0.58510  0.36010  0.71190  Biso   1.000  H
  H6       1.0000 0.41490  0.63990  0.28810  Biso   1.000  H
  C11      1.0000 0.72660  0.50070  0.74900  Biso   1.000  C
  C12      1.0000 0.27340  0.49930  0.25100  Biso   1.000  C
  C13      1.0000 0.29660  0.45630  0.74450  Biso   1.000  C
  C14      1.0000 0.70340  0.54370  0.25550  Biso   1.000  C
  H7       1.0000 0.23130  0.53230  0.72480  Biso   1.000  H
  H8       1.0000 0.76870  0.46770  0.27520  Biso   1.000  H
  H9       1.0000 0.31890  0.40190  0.68760  Biso   1.000  H
  H10      1.0000 0.68110  0.59810  0.31240  Biso   1.000  H
  C15      1.0000 0.17110  0.23440  0.84720  Biso   1.000  C
  C16      1.0000 0.82890  0.76560  0.15280  Biso   1.000  C
  H11      1.0000 0.19740  0.18030  0.79420  Biso   1.000  H
  H12      1.0000 0.80260  0.81970  0.20580  Biso   1.000  H
  C17      1.0000 0.07800  0.29970  0.99430  Biso   1.000  C
  C18      1.0000 0.92200  0.70030  0.00570  Biso   1.000  C
  H13      1.0000 0.02710  0.29830  0.06320  Biso   1.000  H
  H14      1.0000 0.97290  0.70170  0.93680  Biso   1.000  H
  C19      1.0000 0.15120  0.41020  0.93250  Biso   1.000  C
  C20      1.0000 0.84880  0.58980  0.06750  Biso   1.000  C
  H15      1.0000 0.15990  0.49830  0.95010  Biso   1.000  H
  H16      1.0000 0.84010  0.50170  0.04990  Biso   1.000  H
  C21      1.0000 0.59540  0.83080  0.85380  Biso   1.000  C
  C22      1.0000 0.40460  0.16920  0.14620  Biso   1.000  C
  H17      1.0000 0.68740  0.83530  0.88450  Biso   1.000  H
  H18      1.0000 0.31260  0.16470  0.11550  Biso   1.000  H
  H19      1.0000 0.60650  0.90350  0.79450  Biso   1.000  H
  H20      1.0000 0.39350  0.09650  0.20550  Biso   1.000  H
  C23      1.0000 0.32580  0.91870  0.90800  Biso   1.000  C
  C24      1.0000 0.67420  0.08130  0.09200  Biso   1.000  C
  H21      1.0000 0.31300  0.95320  0.84110  Biso   1.000  H
  H22      1.0000 0.68700  0.04680  0.15890  Biso   1.000  H
  C25      1.0000 0.28590  0.86400  0.07300  Biso   1.000  C
  C26      1.0000 0.71410  0.13600  0.92700  Biso   1.000  C
  H23      1.0000 0.23870  0.85420  0.14310  Biso   1.000  H
  H24      1.0000 0.76130  0.14580  0.85690  Biso   1.000  H
  C27      1.0000 0.43010  0.82110  0.03490  Biso   1.000  C
  C28      1.0000 0.56990  0.17890  0.96510  Biso   1.000  C
  H25      1.0000 0.49910  0.77580  0.07310  Biso   1.000  H
  H26      1.0000 0.50090  0.22420  0.92690  Biso   1.000  H
  C29      1.0000 0.88090  0.43100  0.72020  Biso   1.000  C
  C30      1.0000 0.11910  0.56900  0.27980  Biso   1.000  C
  H27      1.0000 0.96440  0.50090  0.70110  Biso   1.000  H
  H28      1.0000 0.03560  0.49910  0.29890  Biso   1.000  H
  H29      1.0000 0.90000  0.36950  0.78050  Biso   1.000  H
  H30      1.0000 0.10000  0.63050  0.21950  Biso   1.000  H
  C31      1.0000 0.93610  0.22110  0.63280  Biso   1.000  C
  C32      1.0000 0.06390  0.77890  0.36720  Biso   1.000  C
  H31      1.0000 0.96730  0.16620  0.68820  Biso   1.000  H
  H32      1.0000 0.03270  0.83380  0.31180  Biso   1.000  H
  C33      1.0000 0.87860  0.29120  0.48320  Biso   1.000  C
  C34      1.0000 0.12140  0.70880  0.51680  Biso   1.000  C
  H33      1.0000 0.86330  0.29240  0.41550  Biso   1.000  H
  H34      1.0000 0.13670  0.70760  0.58450  Biso   1.000  H
  C35      1.0000 0.84880  0.39630  0.53970  Biso   1.000  C
  C36      1.0000 0.15120  0.60370  0.46030  Biso   1.000  C
  H35      1.0000 0.81050  0.48240  0.51840  Biso   1.000  H
  H36      1.0000 0.18950  0.51760  0.48160  Biso   1.000  H
  C37      1.0000 0.35520  0.19930  0.45490  Biso   1.000  C
  C38      1.0000 0.64480  0.80070  0.54510  Biso   1.000  C
  C39      1.0000 0.40990  0.32700  0.50330  Biso   1.000  C
  C40      1.0000 0.59010  0.67300  0.49670  Biso   1.000  C
