data_image0
_cell_length_a       7.8882
_cell_length_b       7.8882
_cell_length_c       38.0767
_cell_angle_alpha    90
_cell_angle_beta     90
_cell_angle_gamma    90

_symmetry_space_group_name_H-M    "P 1"
_symmetry_int_tables_number       1

loop_
  _symmetry_equiv_pos_as_xyz
  'x, y, z'

loop_
  _atom_site_label
  _atom_site_occupancy
  _atom_site_fract_x
  _atom_site_fract_y
  _atom_site_fract_z
  _atom_site_thermal_displace_type
  _atom_site_B_iso_or_equiv
  _atom_site_type_symbol
  Cu1      1.0000 0.07150  0.07150  0.00000  Biso   1.000  Cu
  Cu2      1.0000 0.42850  0.57150  0.25000  Biso   1.000  Cu
  Cu3      1.0000 0.57150  0.42850  0.75000  Biso   1.000  Cu
  Cu4      1.0000 0.92850  0.92850  0.50000  Biso   1.000  Cu
  C1       1.0000 0.62420  0.62420  0.00000  Biso   1.000  C
  C2       1.0000 0.87580  0.12420  0.25000  Biso   1.000  C
  C3       1.0000 0.12420  0.87580  0.75000  Biso   1.000  C
  C4       1.0000 0.37580  0.37580  0.50000  Biso   1.000  C
  N1       1.0000 0.88640  0.88640  0.00000  Biso   1.000  N
  N2       1.0000 0.61360  0.38640  0.25000  Biso   1.000  N
  N3       1.0000 0.38640  0.61360  0.75000  Biso   1.000  N
  N4       1.0000 0.11360  0.11360  0.50000  Biso   1.000  N
  C5       1.0000 0.91980  0.72160  0.99852  Biso   1.000  C
  C6       1.0000 0.77840  0.41980  0.24852  Biso   1.000  C
  C7       1.0000 0.41980  0.77840  0.75148  Biso   1.000  C
  C8       1.0000 0.08020  0.27840  0.49852  Biso   1.000  C
  C9       1.0000 0.72160  0.91980  0.00148  Biso   1.000  C
  C10      1.0000 0.22160  0.58020  0.74852  Biso   1.000  C
  C11      1.0000 0.58020  0.22160  0.25148  Biso   1.000  C
  C12      1.0000 0.27840  0.08020  0.50148  Biso   1.000  C
  H1       1.0000 0.03400  0.69210  0.99811  Biso   1.000  H
  H2       1.0000 0.80790  0.53400  0.24811  Biso   1.000  H
  H3       1.0000 0.53400  0.80790  0.75189  Biso   1.000  H
  H4       1.0000 0.96600  0.30790  0.49811  Biso   1.000  H
  H5       1.0000 0.69210  0.03400  0.00189  Biso   1.000  H
  H6       1.0000 0.19210  0.46600  0.74811  Biso   1.000  H
  H7       1.0000 0.46600  0.19210  0.25189  Biso   1.000  H
  H8       1.0000 0.30790  0.96600  0.50189  Biso   1.000  H
  C13      1.0000 0.80360  0.58930  0.99837  Biso   1.000  C
  C14      1.0000 0.91070  0.30360  0.24837  Biso   1.000  C
  C15      1.0000 0.30360  0.91070  0.75163  Biso   1.000  C
  C16      1.0000 0.19640  0.41070  0.49837  Biso   1.000  C
  C17      1.0000 0.58930  0.80360  0.00163  Biso   1.000  C
  C18      1.0000 0.08930  0.69640  0.74837  Biso   1.000  C
  C19      1.0000 0.69640  0.08930  0.25163  Biso   1.000  C
  C20      1.0000 0.41070  0.19640  0.50163  Biso   1.000  C
  H9       1.0000 0.83890  0.47670  0.99807  Biso   1.000  H
  H10      1.0000 0.02330  0.33890  0.24807  Biso   1.000  H
  H11      1.0000 0.33890  0.02330  0.75193  Biso   1.000  H
  H12      1.0000 0.16110  0.52330  0.49807  Biso   1.000  H
  H13      1.0000 0.47670  0.83890  0.00193  Biso   1.000  H
  H14      1.0000 0.97670  0.66110  0.74807  Biso   1.000  H
  H15      1.0000 0.66110  0.97670  0.25193  Biso   1.000  H
  H16      1.0000 0.52330  0.16110  0.50193  Biso   1.000  H
  N5       1.0000 0.24680  0.24680  0.00000  Biso   1.000  N
  N6       1.0000 0.25320  0.74680  0.25000  Biso   1.000  N
  N7       1.0000 0.74680  0.25320  0.75000  Biso   1.000  N
  N8       1.0000 0.75320  0.75320  0.50000  Biso   1.000  N
  C21      1.0000 0.49060  0.49060  0.00000  Biso   1.000  C
  C22      1.0000 0.00940  0.99060  0.25000  Biso   1.000  C
  C23      1.0000 0.99060  0.00940  0.75000  Biso   1.000  C
  C24      1.0000 0.50940  0.50940  0.50000  Biso   1.000  C
  C25      1.0000 0.51030  0.34730  0.97929  Biso   1.000  C
  C26      1.0000 0.15270  0.01030  0.22929  Biso   1.000  C
  C27      1.0000 0.01030  0.15270  0.77071  Biso   1.000  C
  C28      1.0000 0.48970  0.65270  0.47929  Biso   1.000  C
  C29      1.0000 0.34730  0.51030  0.02071  Biso   1.000  C
  C30      1.0000 0.84730  0.98970  0.72929  Biso   1.000  C
  C31      1.0000 0.98970  0.84730  0.27071  Biso   1.000  C
  C32      1.0000 0.65270  0.48970  0.52071  Biso   1.000  C
  H17      1.0000 0.60440  0.33850  0.96469  Biso   1.000  H
  H18      1.0000 0.16150  0.10440  0.21469  Biso   1.000  H
  H19      1.0000 0.10440  0.16150  0.78531  Biso   1.000  H
  H20      1.0000 0.39560  0.66150  0.46469  Biso   1.000  H
  H21      1.0000 0.33850  0.60440  0.03531  Biso   1.000  H
  H22      1.0000 0.83850  0.89560  0.71469  Biso   1.000  H
  H23      1.0000 0.89560  0.83850  0.28531  Biso   1.000  H
  H24      1.0000 0.66150  0.39560  0.53531  Biso   1.000  H
  C33      1.0000 0.38370  0.22550  0.97982  Biso   1.000  C
  C34      1.0000 0.27450  0.88370  0.22982  Biso   1.000  C
  C35      1.0000 0.88370  0.27450  0.77018  Biso   1.000  C
  C36      1.0000 0.61630  0.77450  0.47982  Biso   1.000  C
  C37      1.0000 0.22550  0.38370  0.02018  Biso   1.000  C
  C38      1.0000 0.72550  0.11630  0.72982  Biso   1.000  C
  C39      1.0000 0.11630  0.72550  0.27018  Biso   1.000  C
  C40      1.0000 0.77450  0.61630  0.52018  Biso   1.000  C
  H25      1.0000 0.38950  0.12940  0.96576  Biso   1.000  H
  H26      1.0000 0.37060  0.88950  0.21576  Biso   1.000  H
  H27      1.0000 0.88950  0.37060  0.78424  Biso   1.000  H
  H28      1.0000 0.61050  0.87060  0.46576  Biso   1.000  H
  H29      1.0000 0.12940  0.38950  0.03424  Biso   1.000  H
  H30      1.0000 0.62940  0.11050  0.71576  Biso   1.000  H
  H31      1.0000 0.11050  0.62940  0.28424  Biso   1.000  H
  H32      1.0000 0.87060  0.61050  0.53424  Biso   1.000  H
  C41      1.0000 0.21930  0.82240  0.09820  Biso   1.000  C
  C42      1.0000 0.67760  0.71930  0.34820  Biso   1.000  C
  C43      1.0000 0.71930  0.67760  0.65180  Biso   1.000  C
  C44      1.0000 0.78070  0.17760  0.59820  Biso   1.000  C
  C45      1.0000 0.82240  0.21930  0.90180  Biso   1.000  C
  C46      1.0000 0.32240  0.28070  0.84820  Biso   1.000  C
  C47      1.0000 0.28070  0.32240  0.15180  Biso   1.000  C
  C48      1.0000 0.17760  0.78070  0.40180  Biso   1.000  C
  C49      1.0000 0.12980  0.94330  0.07261  Biso   1.000  C
  C50      1.0000 0.55670  0.62980  0.32261  Biso   1.000  C
  C51      1.0000 0.62980  0.55670  0.67739  Biso   1.000  C
  C52      1.0000 0.87020  0.05670  0.57261  Biso   1.000  C
  C53      1.0000 0.94330  0.12980  0.92739  Biso   1.000  C
  C54      1.0000 0.44330  0.37020  0.82261  Biso   1.000  C
  C55      1.0000 0.37020  0.44330  0.17739  Biso   1.000  C
  C56      1.0000 0.05670  0.87020  0.42739  Biso   1.000  C
  O1       1.0000 0.18420  0.95180  0.04150  Biso   1.000  O
  O2       1.0000 0.54820  0.68420  0.29150  Biso   1.000  O
  O3       1.0000 0.68420  0.54820  0.70850  Biso   1.000  O
  O4       1.0000 0.81580  0.04820  0.54150  Biso   1.000  O
  O5       1.0000 0.95180  0.18420  0.95850  Biso   1.000  O
  O6       1.0000 0.45180  0.31580  0.79150  Biso   1.000  O
  O7       1.0000 0.31580  0.45180  0.20850  Biso   1.000  O
  O8       1.0000 0.04820  0.81580  0.45850  Biso   1.000  O
  C57      1.0000 0.01270  0.05920  0.08606  Biso   1.000  C
  C58      1.0000 0.44080  0.51270  0.33606  Biso   1.000  C
  C59      1.0000 0.51270  0.44080  0.66394  Biso   1.000  C
  C60      1.0000 0.98730  0.94080  0.58606  Biso   1.000  C
  C61      1.0000 0.05920  0.01270  0.91394  Biso   1.000  C
  C62      1.0000 0.55920  0.48730  0.83606  Biso   1.000  C
  C63      1.0000 0.48730  0.55920  0.16394  Biso   1.000  C
  C64      1.0000 0.94080  0.98730  0.41394  Biso   1.000  C
  H33      1.0000 0.98620  0.05610  0.10981  Biso   1.000  H
  H34      1.0000 0.44390  0.48620  0.35981  Biso   1.000  H
  H35      1.0000 0.48620  0.44390  0.64019  Biso   1.000  H
  H36      1.0000 0.01380  0.94390  0.60981  Biso   1.000  H
  H37      1.0000 0.05610  0.98620  0.89019  Biso   1.000  H
  H38      1.0000 0.55610  0.51380  0.85981  Biso   1.000  H
  H39      1.0000 0.51380  0.55610  0.14019  Biso   1.000  H
  H40      1.0000 0.94390  0.01380  0.39019  Biso   1.000  H
  C65      1.0000 0.90710  0.16820  0.06810  Biso   1.000  C
  C66      1.0000 0.33180  0.40710  0.31810  Biso   1.000  C
  C67      1.0000 0.40710  0.33180  0.68190  Biso   1.000  C
  C68      1.0000 0.09290  0.83180  0.56810  Biso   1.000  C
  C69      1.0000 0.16820  0.90710  0.93190  Biso   1.000  C
  C70      1.0000 0.66820  0.59290  0.81810  Biso   1.000  C
  C71      1.0000 0.59290  0.66820  0.18190  Biso   1.000  C
  C72      1.0000 0.83180  0.09290  0.43190  Biso   1.000  C
  C73      1.0000 0.75880  0.25690  0.08676  Biso   1.000  C
  C74      1.0000 0.24310  0.25880  0.33676  Biso   1.000  C
  C75      1.0000 0.25880  0.24310  0.66324  Biso   1.000  C
  C76      1.0000 0.24120  0.74310  0.58676  Biso   1.000  C
  C77      1.0000 0.25690  0.75880  0.91324  Biso   1.000  C
  C78      1.0000 0.75690  0.74120  0.83676  Biso   1.000  C
  C79      1.0000 0.74120  0.75690  0.16324  Biso   1.000  C
  C80      1.0000 0.74310  0.24120  0.41324  Biso   1.000  C
  O9       1.0000 0.91960  0.20030  0.03557  Biso   1.000  O
  O10      1.0000 0.29970  0.41960  0.28557  Biso   1.000  O
  O11      1.0000 0.41960  0.29970  0.71443  Biso   1.000  O
  O12      1.0000 0.08040  0.79970  0.53557  Biso   1.000  O
  O13      1.0000 0.20030  0.91960  0.96443  Biso   1.000  O
  O14      1.0000 0.70030  0.58040  0.78557  Biso   1.000  O
  O15      1.0000 0.58040  0.70030  0.21443  Biso   1.000  O
  O16      1.0000 0.79970  0.08040  0.46443  Biso   1.000  O
  F1       1.0000 0.18240  0.66280  0.09240  Biso   1.000  F
  F2       1.0000 0.83720  0.68240  0.34240  Biso   1.000  F
  F3       1.0000 0.68240  0.83720  0.65760  Biso   1.000  F
  F4       1.0000 0.81760  0.33720  0.59240  Biso   1.000  F
  F5       1.0000 0.66280  0.18240  0.90760  Biso   1.000  F
  F6       1.0000 0.16280  0.31760  0.84240  Biso   1.000  F
  F7       1.0000 0.31760  0.16280  0.15760  Biso   1.000  F
  F8       1.0000 0.33720  0.81760  0.40760  Biso   1.000  F
  F9       1.0000 0.38350  0.84430  0.09828  Biso   1.000  F
  F10      1.0000 0.65570  0.88350  0.34828  Biso   1.000  F
  F11      1.0000 0.88350  0.65570  0.65172  Biso   1.000  F
  F12      1.0000 0.61650  0.15570  0.59828  Biso   1.000  F
  F13      1.0000 0.84430  0.38350  0.90172  Biso   1.000  F
  F14      1.0000 0.34430  0.11650  0.84828  Biso   1.000  F
  F15      1.0000 0.11650  0.34430  0.15172  Biso   1.000  F
  F16      1.0000 0.15570  0.61650  0.40172  Biso   1.000  F
  F17      1.0000 0.17500  0.84680  0.13117  Biso   1.000  F
  F18      1.0000 0.65320  0.67500  0.38117  Biso   1.000  F
  F19      1.0000 0.67500  0.65320  0.61883  Biso   1.000  F
  F20      1.0000 0.82500  0.15320  0.63117  Biso   1.000  F
  F21      1.0000 0.84680  0.17500  0.86883  Biso   1.000  F
  F22      1.0000 0.34680  0.32500  0.88117  Biso   1.000  F
  F23      1.0000 0.32500  0.34680  0.11883  Biso   1.000  F
  F24      1.0000 0.15320  0.82500  0.36883  Biso   1.000  F
  F25      1.0000 0.76270  0.24830  0.12135  Biso   1.000  F
  F26      1.0000 0.25170  0.26270  0.37135  Biso   1.000  F
  F27      1.0000 0.26270  0.25170  0.62865  Biso   1.000  F
  F28      1.0000 0.23730  0.75170  0.62135  Biso   1.000  F
  F29      1.0000 0.24830  0.76270  0.87865  Biso   1.000  F
  F30      1.0000 0.74830  0.73730  0.87135  Biso   1.000  F
  F31      1.0000 0.73730  0.74830  0.12865  Biso   1.000  F
  F32      1.0000 0.75170  0.23730  0.37865  Biso   1.000  F
  F33      1.0000 0.61220  0.19260  0.07769  Biso   1.000  F
  F34      1.0000 0.30740  0.11220  0.32769  Biso   1.000  F
  F35      1.0000 0.11220  0.30740  0.67231  Biso   1.000  F
  F36      1.0000 0.38780  0.80740  0.57769  Biso   1.000  F
  F37      1.0000 0.19260  0.61220  0.92231  Biso   1.000  F
  F38      1.0000 0.69260  0.88780  0.82769  Biso   1.000  F
  F39      1.0000 0.88780  0.69260  0.17231  Biso   1.000  F
  F40      1.0000 0.80740  0.38780  0.42231  Biso   1.000  F
  F41      1.0000 0.75930  0.41850  0.08021  Biso   1.000  F
  F42      1.0000 0.08150  0.25930  0.33021  Biso   1.000  F
  F43      1.0000 0.25930  0.08150  0.66979  Biso   1.000  F
  F44      1.0000 0.24070  0.58150  0.58021  Biso   1.000  F
  F45      1.0000 0.41850  0.75930  0.91979  Biso   1.000  F
  F46      1.0000 0.91850  0.74070  0.83021  Biso   1.000  F
  F47      1.0000 0.74070  0.91850  0.16979  Biso   1.000  F
  F48      1.0000 0.58150  0.24070  0.41979  Biso   1.000  F
