data_image0
_cell_length_a       14.319
_cell_length_b       19.465
_cell_length_c       5.761
_cell_angle_alpha    90
_cell_angle_beta     90
_cell_angle_gamma    90

_symmetry_space_group_name_H-M    "P 1"
_symmetry_int_tables_number       1

loop_
  _symmetry_equiv_pos_as_xyz
  'x, y, z'

loop_
  _atom_site_label
  _atom_site_occupancy
  _atom_site_fract_x
  _atom_site_fract_y
  _atom_site_fract_z
  _atom_site_thermal_displace_type
  _atom_site_B_iso_or_equiv
  _atom_site_type_symbol
  Cu1      1.0000 0.70000  0.55775  0.15718  Biso   1.000  Cu
  Cu2      1.0000 0.80000  0.94225  0.15718  Biso   1.000  Cu
  Cu3      1.0000 0.30000  0.05775  0.34282  Biso   1.000  Cu
  Cu4      1.0000 0.20000  0.44225  0.34282  Biso   1.000  Cu
  Cu5      1.0000 0.30000  0.44225  0.84282  Biso   1.000  Cu
  Cu6      1.0000 0.20000  0.05775  0.84282  Biso   1.000  Cu
  Cu7      1.0000 0.70000  0.94225  0.65718  Biso   1.000  Cu
  Cu8      1.0000 0.80000  0.55775  0.65718  Biso   1.000  Cu
  C1       1.0000 0.63890  0.44100  0.88340  Biso   1.000  C
  C2       1.0000 0.86110  0.05900  0.88340  Biso   1.000  C
  C3       1.0000 0.36110  0.94100  0.61660  Biso   1.000  C
  C4       1.0000 0.13890  0.55900  0.61660  Biso   1.000  C
  C5       1.0000 0.36110  0.55900  0.11660  Biso   1.000  C
  C6       1.0000 0.13890  0.94100  0.11660  Biso   1.000  C
  C7       1.0000 0.63890  0.05900  0.38340  Biso   1.000  C
  C8       1.0000 0.86110  0.44100  0.38340  Biso   1.000  C
  C9       1.0000 0.65190  0.39530  0.69740  Biso   1.000  C
  C10      1.0000 0.84810  0.10470  0.69740  Biso   1.000  C
  C11      1.0000 0.34810  0.89530  0.80260  Biso   1.000  C
  C12      1.0000 0.15190  0.60470  0.80260  Biso   1.000  C
  C13      1.0000 0.34810  0.60470  0.30260  Biso   1.000  C
  C14      1.0000 0.15190  0.89530  0.30260  Biso   1.000  C
  C15      1.0000 0.65190  0.10470  0.19740  Biso   1.000  C
  C16      1.0000 0.84810  0.39530  0.19740  Biso   1.000  C
  H1       1.0000 0.69780  0.40450  0.58750  Biso   1.000  H
  H2       1.0000 0.80220  0.09550  0.58750  Biso   1.000  H
  H3       1.0000 0.30220  0.90450  0.91250  Biso   1.000  H
  H4       1.0000 0.19780  0.59550  0.91250  Biso   1.000  H
  H5       1.0000 0.30220  0.59550  0.41250  Biso   1.000  H
  H6       1.0000 0.19780  0.90450  0.41250  Biso   1.000  H
  H7       1.0000 0.69780  0.09550  0.08750  Biso   1.000  H
  H8       1.0000 0.80220  0.40450  0.08750  Biso   1.000  H
  C17      1.0000 0.59870  0.33760  0.67500  Biso   1.000  C
  C18      1.0000 0.90130  0.16240  0.67500  Biso   1.000  C
  C19      1.0000 0.40130  0.83760  0.82500  Biso   1.000  C
  C20      1.0000 0.09870  0.66240  0.82500  Biso   1.000  C
  C21      1.0000 0.40130  0.66240  0.32500  Biso   1.000  C
  C22      1.0000 0.09870  0.83760  0.32500  Biso   1.000  C
  C23      1.0000 0.59870  0.16240  0.17500  Biso   1.000  C
  C24      1.0000 0.90130  0.33760  0.17500  Biso   1.000  C
  H9       1.0000 0.60970  0.30830  0.55050  Biso   1.000  H
  H10      1.0000 0.89030  0.19170  0.55050  Biso   1.000  H
  H11      1.0000 0.39030  0.80830  0.94950  Biso   1.000  H
  H12      1.0000 0.10970  0.69170  0.94950  Biso   1.000  H
  H13      1.0000 0.39030  0.69170  0.44950  Biso   1.000  H
  H14      1.0000 0.10970  0.80830  0.44950  Biso   1.000  H
  H15      1.0000 0.60970  0.19170  0.05050  Biso   1.000  H
  H16      1.0000 0.89030  0.30830  0.05050  Biso   1.000  H
  C25      1.0000 0.52850  0.32120  0.83200  Biso   1.000  C
  C26      1.0000 0.97150  0.17880  0.83200  Biso   1.000  C
  C27      1.0000 0.47150  0.82120  0.66800  Biso   1.000  C
  C28      1.0000 0.02850  0.67880  0.66800  Biso   1.000  C
  C29      1.0000 0.47150  0.67880  0.16800  Biso   1.000  C
  C30      1.0000 0.02850  0.82120  0.16800  Biso   1.000  C
  C31      1.0000 0.52850  0.17880  0.33200  Biso   1.000  C
  C32      1.0000 0.97150  0.32120  0.33200  Biso   1.000  C
  H17      1.0000 0.49210  0.28210  0.81160  Biso   1.000  H
  H18      1.0000 0.00790  0.21790  0.81160  Biso   1.000  H
  H19      1.0000 0.50790  0.78210  0.68840  Biso   1.000  H
  H20      1.0000 0.99210  0.71790  0.68840  Biso   1.000  H
  H21      1.0000 0.50790  0.71790  0.18840  Biso   1.000  H
  H22      1.0000 0.99210  0.78210  0.18840  Biso   1.000  H
  H23      1.0000 0.49210  0.21790  0.31160  Biso   1.000  H
  H24      1.0000 0.00790  0.28210  0.31160  Biso   1.000  H
  C33      1.0000 0.51440  0.36350  0.01520  Biso   1.000  C
  C34      1.0000 0.98560  0.13650  0.01520  Biso   1.000  C
  C35      1.0000 0.48560  0.86350  0.48480  Biso   1.000  C
  C36      1.0000 0.01440  0.63650  0.48480  Biso   1.000  C
  C37      1.0000 0.48560  0.63650  0.98480  Biso   1.000  C
  C38      1.0000 0.01440  0.86350  0.98480  Biso   1.000  C
  C39      1.0000 0.51440  0.13650  0.51520  Biso   1.000  C
  C40      1.0000 0.98560  0.36350  0.51520  Biso   1.000  C
  H25      1.0000 0.46760  0.35290  0.12120  Biso   1.000  H
  H26      1.0000 0.03240  0.14710  0.12120  Biso   1.000  H
  H27      1.0000 0.53240  0.85290  0.37880  Biso   1.000  H
  H28      1.0000 0.96760  0.64710  0.37880  Biso   1.000  H
  H29      1.0000 0.53240  0.64710  0.87880  Biso   1.000  H
  H30      1.0000 0.96760  0.85290  0.87880  Biso   1.000  H
  H31      1.0000 0.46760  0.14710  0.62120  Biso   1.000  H
  H32      1.0000 0.03240  0.35290  0.62120  Biso   1.000  H
  C41      1.0000 0.56910  0.42364  0.05050  Biso   1.000  C
  C42      1.0000 0.93090  0.07636  0.05050  Biso   1.000  C
  C43      1.0000 0.43090  0.92364  0.44950  Biso   1.000  C
  C44      1.0000 0.06910  0.57636  0.44950  Biso   1.000  C
  C45      1.0000 0.43090  0.57636  0.94950  Biso   1.000  C
  C46      1.0000 0.06910  0.92364  0.94950  Biso   1.000  C
  C47      1.0000 0.56910  0.07636  0.55050  Biso   1.000  C
  C48      1.0000 0.93090  0.42364  0.55050  Biso   1.000  C
  C49      1.0000 0.55180  0.46560  0.24920  Biso   1.000  C
  C50      1.0000 0.94820  0.03440  0.24920  Biso   1.000  C
  C51      1.0000 0.44820  0.96560  0.25080  Biso   1.000  C
  C52      1.0000 0.05180  0.53440  0.25080  Biso   1.000  C
  C53      1.0000 0.44820  0.53440  0.75080  Biso   1.000  C
  C54      1.0000 0.05180  0.96560  0.75080  Biso   1.000  C
  C55      1.0000 0.55180  0.03440  0.74920  Biso   1.000  C
  C56      1.0000 0.94820  0.46560  0.74920  Biso   1.000  C
  H33      1.0000 0.50170  0.45250  0.34170  Biso   1.000  H
  H34      1.0000 0.99830  0.04750  0.34170  Biso   1.000  H
  H35      1.0000 0.49830  0.95250  0.15830  Biso   1.000  H
  H36      1.0000 0.00170  0.54750  0.15830  Biso   1.000  H
  H37      1.0000 0.49830  0.54750  0.65830  Biso   1.000  H
  H38      1.0000 0.00170  0.95250  0.65830  Biso   1.000  H
  H39      1.0000 0.50170  0.04750  0.84170  Biso   1.000  H
  H40      1.0000 0.99830  0.45250  0.84170  Biso   1.000  H
  N1       1.0000 0.77240  0.61379  0.93300  Biso   1.000  N
  N2       1.0000 0.72760  0.88621  0.93300  Biso   1.000  N
  N3       1.0000 0.22760  0.11379  0.56700  Biso   1.000  N
  N4       1.0000 0.27240  0.38621  0.56700  Biso   1.000  N
  N5       1.0000 0.22760  0.38621  0.06700  Biso   1.000  N
  N6       1.0000 0.27240  0.11379  0.06700  Biso   1.000  N
  N7       1.0000 0.77240  0.88621  0.43300  Biso   1.000  N
  N8       1.0000 0.72760  0.61379  0.43300  Biso   1.000  N
  N9       1.0000 0.81480  0.66559  0.99200  Biso   1.000  N
  N10      1.0000 0.68520  0.83441  0.99200  Biso   1.000  N
  N11      1.0000 0.18520  0.16559  0.50800  Biso   1.000  N
  N12      1.0000 0.31480  0.33441  0.50800  Biso   1.000  N
  N13      1.0000 0.18520  0.33441  0.00800  Biso   1.000  N
  N14      1.0000 0.31480  0.16559  0.00800  Biso   1.000  N
  N15      1.0000 0.81480  0.83441  0.49200  Biso   1.000  N
  N16      1.0000 0.68520  0.66559  0.49200  Biso   1.000  N
  N17      1.0000 0.85220  0.71390  0.04890  Biso   1.000  N
  N18      1.0000 0.64780  0.78610  0.04890  Biso   1.000  N
  N19      1.0000 0.14780  0.21390  0.45110  Biso   1.000  N
  N20      1.0000 0.35220  0.28610  0.45110  Biso   1.000  N
  N21      1.0000 0.14780  0.28610  0.95110  Biso   1.000  N
  N22      1.0000 0.35220  0.21390  0.95110  Biso   1.000  N
  N23      1.0000 0.85220  0.78610  0.54890  Biso   1.000  N
  N24      1.0000 0.64780  0.71390  0.54890  Biso   1.000  N
  N25      1.0000 0.59449  0.51618  0.31270  Biso   1.000  N
  N26      1.0000 0.90551  0.98382  0.31270  Biso   1.000  N
  N27      1.0000 0.40551  0.01618  0.18730  Biso   1.000  N
  N28      1.0000 0.09449  0.48382  0.18730  Biso   1.000  N
  N29      1.0000 0.40551  0.48382  0.68730  Biso   1.000  N
  N30      1.0000 0.09449  0.01618  0.68730  Biso   1.000  N
  N31      1.0000 0.59449  0.98382  0.81270  Biso   1.000  N
  N32      1.0000 0.90551  0.51618  0.81270  Biso   1.000  N
  H41      1.0000 0.57590  0.53540  0.43900  Biso   1.000  H
  H42      1.0000 0.92410  0.96460  0.43900  Biso   1.000  H
  H43      1.0000 0.42410  0.03540  0.06100  Biso   1.000  H
  H44      1.0000 0.07590  0.46460  0.06100  Biso   1.000  H
  H45      1.0000 0.42410  0.46460  0.56100  Biso   1.000  H
  H46      1.0000 0.07590  0.03540  0.56100  Biso   1.000  H
  H47      1.0000 0.57590  0.96460  0.93900  Biso   1.000  H
  H48      1.0000 0.92410  0.53540  0.93900  Biso   1.000  H
  O1       1.0000 0.68938  0.49666  0.89720  Biso   1.000  O
  O2       1.0000 0.81062  0.00334  0.89720  Biso   1.000  O
  O3       1.0000 0.31062  0.99666  0.60280  Biso   1.000  O
  O4       1.0000 0.18938  0.50334  0.60280  Biso   1.000  O
  O5       1.0000 0.31062  0.50334  0.10280  Biso   1.000  O
  O6       1.0000 0.18938  0.99666  0.10280  Biso   1.000  O
  O7       1.0000 0.68938  0.00334  0.39720  Biso   1.000  O
  O8       1.0000 0.81062  0.49666  0.39720  Biso   1.000  O
