data_image0
_cell_length_a       5.15577
_cell_length_b       8.5361
_cell_length_c       24.2019
_cell_angle_alpha    91.917
_cell_angle_beta     95.156
_cell_angle_gamma    104.027

_symmetry_space_group_name_H-M    "P 1"
_symmetry_int_tables_number       1

loop_
  _symmetry_equiv_pos_as_xyz
  'x, y, z'

loop_
  _atom_site_label
  _atom_site_occupancy
  _atom_site_fract_x
  _atom_site_fract_y
  _atom_site_fract_z
  _atom_site_thermal_displace_type
  _atom_site_B_iso_or_equiv
  _atom_site_type_symbol
  Cu1      1.0000 0.79039  0.48409  0.02675  Biso   1.000  Cu
  Cu2      1.0000 0.20961  0.51591  0.97325  Biso   1.000  Cu
  O1       1.0000 0.71710  0.26220  0.99905  Biso   1.000  O
  O2       1.0000 0.28290  0.73780  0.00095  Biso   1.000  O
  O3       1.0000 0.07640  0.28940  0.95078  Biso   1.000  O
  O4       1.0000 0.92360  0.71060  0.04922  Biso   1.000  O
  C1       1.0000 0.85950  0.20700  0.96530  Biso   1.000  C
  C2       1.0000 0.14050  0.79300  0.03470  Biso   1.000  C
  C3       1.0000 0.74470  0.03720  0.94240  Biso   1.000  C
  C4       1.0000 0.25530  0.96280  0.05760  Biso   1.000  C
  H1       1.0000 0.70050  0.96660  0.97250  Biso   1.000  H
  H2       1.0000 0.29950  0.03340  0.02750  Biso   1.000  H
  H3       1.0000 0.87670  0.00090  0.92260  Biso   1.000  H
  H4       1.0000 0.12330  0.99910  0.07740  Biso   1.000  H
  C5       1.0000 0.49120  0.02910  0.90290  Biso   1.000  C
  C6       1.0000 0.50880  0.97090  0.09710  Biso   1.000  C
  H5       1.0000 0.39410  0.91700  0.89590  Biso   1.000  H
  H6       1.0000 0.60590  0.08300  0.10410  Biso   1.000  H
  H7       1.0000 0.37580  0.08490  0.92090  Biso   1.000  H
  H8       1.0000 0.62420  0.91510  0.07910  Biso   1.000  H
  C7       1.0000 0.54830  0.10200  0.84860  Biso   1.000  C
  C8       1.0000 0.45170  0.89800  0.15140  Biso   1.000  C
  H9       1.0000 0.65620  0.04240  0.82990  Biso   1.000  H
  H10      1.0000 0.34380  0.95760  0.17010  Biso   1.000  H
  H11      1.0000 0.65430  0.21220  0.85590  Biso   1.000  H
  H12      1.0000 0.34570  0.78780  0.14410  Biso   1.000  H
  C9       1.0000 0.30030  0.10360  0.80990  Biso   1.000  C
  C10      1.0000 0.69970  0.89640  0.19010  Biso   1.000  C
  H13      1.0000 0.18490  0.99510  0.80610  Biso   1.000  H
  H14      1.0000 0.81510  0.00490  0.19390  Biso   1.000  H
  H15      1.0000 0.20270  0.17260  0.82710  Biso   1.000  H
  H16      1.0000 0.79730  0.82740  0.17290  Biso   1.000  H
  C11      1.0000 0.35080  0.15930  0.75350  Biso   1.000  C
  C12      1.0000 0.64920  0.84070  0.24650  Biso   1.000  C
  H17      1.0000 0.43320  0.08400  0.73510  Biso   1.000  H
  H18      1.0000 0.56680  0.91600  0.26490  Biso   1.000  H
  H19      1.0000 0.48030  0.26320  0.75750  Biso   1.000  H
  H20      1.0000 0.51970  0.73680  0.24250  Biso   1.000  H
  C13      1.0000 0.10980  0.17650  0.71620  Biso   1.000  C
  C14      1.0000 0.89020  0.82350  0.28380  Biso   1.000  C
  H21      1.0000 0.97520  0.07470  0.71390  Biso   1.000  H
  H22      1.0000 0.02480  0.92530  0.28610  Biso   1.000  H
  H23      1.0000 0.03410  0.25720  0.73330  Biso   1.000  H
  H24      1.0000 0.96590  0.74280  0.26670  Biso   1.000  H
  C15      1.0000 0.16300  0.22210  0.65940  Biso   1.000  C
  C16      1.0000 0.83700  0.77790  0.34060  Biso   1.000  C
  H25      1.0000 0.22960  0.13860  0.64160  Biso   1.000  H
  H26      1.0000 0.77040  0.86140  0.35840  Biso   1.000  H
  H27      1.0000 0.30330  0.32120  0.66170  Biso   1.000  H
  H28      1.0000 0.69670  0.67880  0.33830  Biso   1.000  H
  C17      1.0000 0.92400  0.24680  0.62330  Biso   1.000  C
  C18      1.0000 0.07600  0.75320  0.37670  Biso   1.000  C
  H29      1.0000 0.97510  0.27420  0.58700  Biso   1.000  H
  H30      1.0000 0.02490  0.72580  0.41300  Biso   1.000  H
  H31      1.0000 0.86000  0.33270  0.63950  Biso   1.000  H
  H32      1.0000 0.14000  0.66730  0.36050  Biso   1.000  H
  H33      1.0000 0.78310  0.14910  0.62020  Biso   1.000  H
  H34      1.0000 0.21690  0.85090  0.37980  Biso   1.000  H
  O5       1.0000 0.37270  0.46160  0.04639  Biso   1.000  O
  O6       1.0000 0.62730  0.53840  0.95361  Biso   1.000  O
  O7       1.0000 0.00840  0.43370  0.09120  Biso   1.000  O
  O8       1.0000 0.99160  0.56630  0.90880  Biso   1.000  O
  C19      1.0000 0.25390  0.43410  0.09010  Biso   1.000  C
  C20      1.0000 0.74610  0.56590  0.90990  Biso   1.000  C
  C21      1.0000 0.40690  0.40140  0.14070  Biso   1.000  C
  C22      1.0000 0.59310  0.59860  0.85930  Biso   1.000  C
  H35      1.0000 0.56410  0.49060  0.14880  Biso   1.000  H
  H36      1.0000 0.43590  0.50940  0.85120  Biso   1.000  H
  H37      1.0000 0.47000  0.30540  0.13320  Biso   1.000  H
  H38      1.0000 0.53000  0.69460  0.86680  Biso   1.000  H
  C23      1.0000 0.26010  0.37720  0.19150  Biso   1.000  C
  C24      1.0000 0.73990  0.62280  0.80850  Biso   1.000  C
  H39      1.0000 0.10000  0.28980  0.18370  Biso   1.000  H
  H40      1.0000 0.90000  0.71020  0.81630  Biso   1.000  H
  H41      1.0000 0.20330  0.47450  0.20050  Biso   1.000  H
  H42      1.0000 0.79670  0.52550  0.79950  Biso   1.000  H
  C25      1.0000 0.42910  0.33820  0.24150  Biso   1.000  C
  C26      1.0000 0.57090  0.66180  0.75850  Biso   1.000  C
  H43      1.0000 0.47760  0.23790  0.23300  Biso   1.000  H
  H44      1.0000 0.52240  0.76210  0.76700  Biso   1.000  H
  H45      1.0000 0.59410  0.42260  0.24780  Biso   1.000  H
  H46      1.0000 0.40590  0.57740  0.75220  Biso   1.000  H
  C27      1.0000 0.29320  0.32230  0.29400  Biso   1.000  C
  C28      1.0000 0.70680  0.67770  0.70600  Biso   1.000  C
  H47      1.0000 0.12740  0.23870  0.28740  Biso   1.000  H
  H48      1.0000 0.87260  0.76130  0.71260  Biso   1.000  H
  H49      1.0000 0.24600  0.42300  0.30250  Biso   1.000  H
  H50      1.0000 0.75400  0.57700  0.69750  Biso   1.000  H
  C29      1.0000 0.45790  0.28220  0.34390  Biso   1.000  C
  C30      1.0000 0.54210  0.71780  0.65610  Biso   1.000  C
  H51      1.0000 0.49640  0.17840  0.33620  Biso   1.000  H
  H52      1.0000 0.50360  0.82160  0.66380  Biso   1.000  H
  H53      1.0000 0.62810  0.36240  0.34920  Biso   1.000  H
  H54      1.0000 0.37190  0.63760  0.65080  Biso   1.000  H
  C31      1.0000 0.32600  0.27570  0.39690  Biso   1.000  C
  C32      1.0000 0.67400  0.72430  0.60310  Biso   1.000  C
  H55      1.0000 0.28830  0.37970  0.40480  Biso   1.000  H
  H56      1.0000 0.71170  0.62030  0.59520  Biso   1.000  H
  H57      1.0000 0.15500  0.19580  0.39160  Biso   1.000  H
  H58      1.0000 0.84500  0.80420  0.60840  Biso   1.000  H
  C33      1.0000 0.49100  0.23470  0.44600  Biso   1.000  C
  C34      1.0000 0.50900  0.76530  0.55400  Biso   1.000  C
  H59      1.0000 0.53870  0.13410  0.43750  Biso   1.000  H
  H60      1.0000 0.46130  0.86590  0.56250  Biso   1.000  H
  H61      1.0000 0.65640  0.31860  0.45330  Biso   1.000  H
  H62      1.0000 0.34360  0.68140  0.54670  Biso   1.000  H
  C35      1.0000 0.34400  0.21900  0.49660  Biso   1.000  C
  C36      1.0000 0.65600  0.78100  0.50340  Biso   1.000  C
  H63      1.0000 0.45780  0.19510  0.52730  Biso   1.000  H
  H64      1.0000 0.54220  0.80490  0.47270  Biso   1.000  H
  H65      1.0000 0.18470  0.13250  0.49010  Biso   1.000  H
  H66      1.0000 0.81530  0.86750  0.50990  Biso   1.000  H
  H67      1.0000 0.29610  0.31790  0.50500  Biso   1.000  H
  H68      1.0000 0.70390  0.68210  0.49500  Biso   1.000  H
