data_image0
_cell_length_a       51.386
_cell_length_b       5.0912
_cell_length_c       16.5576
_cell_angle_alpha    90
_cell_angle_beta     102.744
_cell_angle_gamma    90

_symmetry_space_group_name_H-M    "P 1"
_symmetry_int_tables_number       1

loop_
  _symmetry_equiv_pos_as_xyz
  'x, y, z'

loop_
  _atom_site_label
  _atom_site_occupancy
  _atom_site_fract_x
  _atom_site_fract_y
  _atom_site_fract_z
  _atom_site_thermal_displace_type
  _atom_site_B_iso_or_equiv
  _atom_site_type_symbol
  Cu1      1.0000 0.23650  0.47500  0.98000  Biso   1.000  Cu
  Cu2      1.0000 0.76350  0.47500  0.52000  Biso   1.000  Cu
  Cu3      1.0000 0.73650  0.97500  0.98000  Biso   1.000  Cu
  Cu4      1.0000 0.26350  0.97500  0.52000  Biso   1.000  Cu
  Cu5      1.0000 0.76350  0.52500  0.02000  Biso   1.000  Cu
  Cu6      1.0000 0.23650  0.52500  0.48000  Biso   1.000  Cu
  Cu7      1.0000 0.26350  0.02500  0.02000  Biso   1.000  Cu
  Cu8      1.0000 0.73650  0.02500  0.48000  Biso   1.000  Cu
  O1       1.0000 0.22049  0.46797  0.07670  Biso   1.000  O
  O2       1.0000 0.77951  0.46797  0.42330  Biso   1.000  O
  O3       1.0000 0.72049  0.96797  0.07670  Biso   1.000  O
  O4       1.0000 0.27951  0.96797  0.42330  Biso   1.000  O
  O5       1.0000 0.77951  0.53203  0.92330  Biso   1.000  O
  O6       1.0000 0.22049  0.53203  0.57670  Biso   1.000  O
  O7       1.0000 0.27951  0.03203  0.92330  Biso   1.000  O
  O8       1.0000 0.72049  0.03203  0.57670  Biso   1.000  O
  O9       1.0000 0.24148  0.11036  0.13357  Biso   1.000  O
  O10      1.0000 0.75852  0.11036  0.36643  Biso   1.000  O
  O11      1.0000 0.74148  0.61036  0.13357  Biso   1.000  O
  O12      1.0000 0.25852  0.61036  0.36643  Biso   1.000  O
  O13      1.0000 0.75852  0.88964  0.86643  Biso   1.000  O
  O14      1.0000 0.24148  0.88964  0.63357  Biso   1.000  O
  O15      1.0000 0.25852  0.38964  0.86643  Biso   1.000  O
  O16      1.0000 0.74148  0.38964  0.63357  Biso   1.000  O
  C1       1.0000 0.22608  0.29646  0.13101  Biso   1.000  C
  C2       1.0000 0.77392  0.29646  0.36899  Biso   1.000  C
  C3       1.0000 0.72608  0.79646  0.13101  Biso   1.000  C
  C4       1.0000 0.27392  0.79646  0.36899  Biso   1.000  C
  C5       1.0000 0.77392  0.70354  0.86899  Biso   1.000  C
  C6       1.0000 0.22608  0.70354  0.63101  Biso   1.000  C
  C7       1.0000 0.27392  0.20354  0.86899  Biso   1.000  C
  C8       1.0000 0.72608  0.20354  0.63101  Biso   1.000  C
  C9       1.0000 0.21114  0.31820  0.20068  Biso   1.000  C
  C10      1.0000 0.78886  0.31820  0.29932  Biso   1.000  C
  C11      1.0000 0.71114  0.81820  0.20068  Biso   1.000  C
  C12      1.0000 0.28886  0.81820  0.29932  Biso   1.000  C
  C13      1.0000 0.78886  0.68180  0.79932  Biso   1.000  C
  C14      1.0000 0.21114  0.68180  0.70068  Biso   1.000  C
  C15      1.0000 0.28886  0.18180  0.79932  Biso   1.000  C
  C16      1.0000 0.71114  0.18180  0.70068  Biso   1.000  C
  H1       1.0000 0.22271  0.40149  0.24802  Biso   1.000  H
  H2       1.0000 0.77729  0.40149  0.25198  Biso   1.000  H
  H3       1.0000 0.72271  0.90149  0.24802  Biso   1.000  H
  H4       1.0000 0.27729  0.90149  0.25198  Biso   1.000  H
  H5       1.0000 0.77729  0.59851  0.75198  Biso   1.000  H
  H6       1.0000 0.22271  0.59851  0.74802  Biso   1.000  H
  H7       1.0000 0.27729  0.09851  0.75198  Biso   1.000  H
  H8       1.0000 0.72271  0.09851  0.74802  Biso   1.000  H
  H9       1.0000 0.20718  0.14272  0.21732  Biso   1.000  H
  H10      1.0000 0.79282  0.14272  0.28268  Biso   1.000  H
  H11      1.0000 0.70718  0.64272  0.21732  Biso   1.000  H
  H12      1.0000 0.29282  0.64272  0.28268  Biso   1.000  H
  H13      1.0000 0.79282  0.85728  0.78268  Biso   1.000  H
  H14      1.0000 0.20718  0.85728  0.71732  Biso   1.000  H
  H15      1.0000 0.29282  0.35728  0.78268  Biso   1.000  H
  H16      1.0000 0.70718  0.35728  0.71732  Biso   1.000  H
  C17      1.0000 0.18509  0.47473  0.17727  Biso   1.000  C
  C18      1.0000 0.81491  0.47473  0.32273  Biso   1.000  C
  C19      1.0000 0.68509  0.97473  0.17727  Biso   1.000  C
  C20      1.0000 0.31491  0.97473  0.32273  Biso   1.000  C
  C21      1.0000 0.81491  0.52527  0.82273  Biso   1.000  C
  C22      1.0000 0.18509  0.52527  0.67727  Biso   1.000  C
  C23      1.0000 0.31491  0.02527  0.82273  Biso   1.000  C
  C24      1.0000 0.68509  0.02527  0.67727  Biso   1.000  C
  H17      1.0000 0.18893  0.64419  0.15557  Biso   1.000  H
  H18      1.0000 0.81107  0.64419  0.34443  Biso   1.000  H
  H19      1.0000 0.68893  0.14419  0.15557  Biso   1.000  H
  H20      1.0000 0.31107  0.14419  0.34443  Biso   1.000  H
  H21      1.0000 0.81107  0.35581  0.84443  Biso   1.000  H
  H22      1.0000 0.18893  0.35581  0.65557  Biso   1.000  H
  H23      1.0000 0.31107  0.85581  0.84443  Biso   1.000  H
  H24      1.0000 0.68893  0.85581  0.65557  Biso   1.000  H
  H25      1.0000 0.17846  0.50639  0.22685  Biso   1.000  H
  H26      1.0000 0.82154  0.50639  0.27315  Biso   1.000  H
  H27      1.0000 0.67846  0.00639  0.22685  Biso   1.000  H
  H28      1.0000 0.32154  0.00639  0.27315  Biso   1.000  H
  H29      1.0000 0.82154  0.49361  0.77315  Biso   1.000  H
  H30      1.0000 0.17846  0.49361  0.72685  Biso   1.000  H
  H31      1.0000 0.32154  0.99361  0.77315  Biso   1.000  H
  H32      1.0000 0.67846  0.99361  0.72685  Biso   1.000  H
  C25      1.0000 0.16336  0.34089  0.11372  Biso   1.000  C
  C26      1.0000 0.83664  0.34089  0.38628  Biso   1.000  C
  C27      1.0000 0.66336  0.84089  0.11372  Biso   1.000  C
  C28      1.0000 0.33664  0.84089  0.38628  Biso   1.000  C
  C29      1.0000 0.83664  0.65911  0.88628  Biso   1.000  C
  C30      1.0000 0.16336  0.65911  0.61372  Biso   1.000  C
  C31      1.0000 0.33664  0.15911  0.88628  Biso   1.000  C
  C32      1.0000 0.66336  0.15911  0.61372  Biso   1.000  C
  H33      1.0000 0.17038  0.30064  0.06529  Biso   1.000  H
  H34      1.0000 0.82962  0.30064  0.43471  Biso   1.000  H
  H35      1.0000 0.67038  0.80064  0.06529  Biso   1.000  H
  H36      1.0000 0.32962  0.80064  0.43471  Biso   1.000  H
  H37      1.0000 0.82962  0.69936  0.93471  Biso   1.000  H
  H38      1.0000 0.17038  0.69936  0.56529  Biso   1.000  H
  H39      1.0000 0.32962  0.19936  0.93471  Biso   1.000  H
  H40      1.0000 0.67038  0.19936  0.56529  Biso   1.000  H
  H41      1.0000 0.15896  0.17549  0.13667  Biso   1.000  H
  H42      1.0000 0.84104  0.17549  0.36333  Biso   1.000  H
  H43      1.0000 0.65896  0.67549  0.13667  Biso   1.000  H
  H44      1.0000 0.34104  0.67549  0.36333  Biso   1.000  H
  H45      1.0000 0.84104  0.82451  0.86333  Biso   1.000  H
  H46      1.0000 0.15896  0.82451  0.63667  Biso   1.000  H
  H47      1.0000 0.34104  0.32451  0.86333  Biso   1.000  H
  H48      1.0000 0.65896  0.32451  0.63667  Biso   1.000  H
  C33      1.0000 0.13901  0.49192  0.08756  Biso   1.000  C
  C34      1.0000 0.86099  0.49192  0.41244  Biso   1.000  C
  C35      1.0000 0.63901  0.99192  0.08756  Biso   1.000  C
  C36      1.0000 0.36099  0.99192  0.41244  Biso   1.000  C
  C37      1.0000 0.86099  0.50808  0.91244  Biso   1.000  C
  C38      1.0000 0.13901  0.50808  0.58756  Biso   1.000  C
  C39      1.0000 0.36099  0.00808  0.91244  Biso   1.000  C
  C40      1.0000 0.63901  0.00808  0.58756  Biso   1.000  C
  H49      1.0000 0.14324  0.65311  0.06201  Biso   1.000  H
  H50      1.0000 0.85676  0.65311  0.43799  Biso   1.000  H
  H51      1.0000 0.64324  0.15311  0.06201  Biso   1.000  H
  H52      1.0000 0.35676  0.15311  0.43799  Biso   1.000  H
  H53      1.0000 0.85676  0.34689  0.93799  Biso   1.000  H
  H54      1.0000 0.14324  0.34689  0.56201  Biso   1.000  H
  H55      1.0000 0.35676  0.84689  0.93799  Biso   1.000  H
  H56      1.0000 0.64324  0.84689  0.56201  Biso   1.000  H
  H57      1.0000 0.13262  0.54040  0.13636  Biso   1.000  H
  H58      1.0000 0.86738  0.54040  0.36364  Biso   1.000  H
  H59      1.0000 0.63262  0.04040  0.13636  Biso   1.000  H
  H60      1.0000 0.36738  0.04040  0.36364  Biso   1.000  H
  H61      1.0000 0.86738  0.45960  0.86364  Biso   1.000  H
  H62      1.0000 0.13262  0.45960  0.63636  Biso   1.000  H
  H63      1.0000 0.36738  0.95960  0.86364  Biso   1.000  H
  H64      1.0000 0.63262  0.95960  0.63636  Biso   1.000  H
  C41      1.0000 0.11635  0.35392  0.02698  Biso   1.000  C
  C42      1.0000 0.88365  0.35392  0.47302  Biso   1.000  C
  C43      1.0000 0.61635  0.85392  0.02698  Biso   1.000  C
  C44      1.0000 0.38365  0.85392  0.47302  Biso   1.000  C
  C45      1.0000 0.88365  0.64608  0.97302  Biso   1.000  C
  C46      1.0000 0.11635  0.64608  0.52698  Biso   1.000  C
  C47      1.0000 0.38365  0.14608  0.97302  Biso   1.000  C
  C48      1.0000 0.61635  0.14608  0.52698  Biso   1.000  C
  H65      1.0000 0.12285  0.30779  0.97805  Biso   1.000  H
  H66      1.0000 0.87715  0.30779  0.52195  Biso   1.000  H
  H67      1.0000 0.62285  0.80779  0.97805  Biso   1.000  H
  H68      1.0000 0.37715  0.80779  0.52195  Biso   1.000  H
  H69      1.0000 0.87715  0.69221  0.02195  Biso   1.000  H
  H70      1.0000 0.12285  0.69221  0.47805  Biso   1.000  H
  H71      1.0000 0.37715  0.19221  0.02195  Biso   1.000  H
  H72      1.0000 0.62285  0.19221  0.47805  Biso   1.000  H
  H73      1.0000 0.11247  0.19157  0.05234  Biso   1.000  H
  H74      1.0000 0.88753  0.19157  0.44766  Biso   1.000  H
  H75      1.0000 0.61247  0.69157  0.05234  Biso   1.000  H
  H76      1.0000 0.38753  0.69157  0.44766  Biso   1.000  H
  H77      1.0000 0.88753  0.80843  0.94766  Biso   1.000  H
  H78      1.0000 0.11247  0.80843  0.55234  Biso   1.000  H
  H79      1.0000 0.38753  0.30843  0.94766  Biso   1.000  H
  H80      1.0000 0.61247  0.30843  0.55234  Biso   1.000  H
  C49      1.0000 0.09072  0.50149  0.99918  Biso   1.000  C
  C50      1.0000 0.90928  0.50149  0.50082  Biso   1.000  C
  C51      1.0000 0.59072  0.00149  0.99918  Biso   1.000  C
  C52      1.0000 0.40928  0.00149  0.50082  Biso   1.000  C
  C53      1.0000 0.90928  0.49851  0.00082  Biso   1.000  C
  C54      1.0000 0.09072  0.49851  0.49918  Biso   1.000  C
  C55      1.0000 0.40928  0.99851  0.00082  Biso   1.000  C
  C56      1.0000 0.59072  0.99851  0.49918  Biso   1.000  C
  H81      1.0000 0.09427  0.65909  0.97053  Biso   1.000  H
  H82      1.0000 0.90573  0.65909  0.52947  Biso   1.000  H
  H83      1.0000 0.59427  0.15909  0.97053  Biso   1.000  H
  H84      1.0000 0.40573  0.15909  0.52947  Biso   1.000  H
  H85      1.0000 0.90573  0.34091  0.02947  Biso   1.000  H
  H86      1.0000 0.09427  0.34091  0.47053  Biso   1.000  H
  H87      1.0000 0.40573  0.84091  0.02947  Biso   1.000  H
  H88      1.0000 0.59427  0.84091  0.47053  Biso   1.000  H
  H89      1.0000 0.08455  0.55611  0.04792  Biso   1.000  H
  H90      1.0000 0.91545  0.55611  0.45208  Biso   1.000  H
  H91      1.0000 0.58455  0.05611  0.04792  Biso   1.000  H
  H92      1.0000 0.41545  0.05611  0.45208  Biso   1.000  H
  H93      1.0000 0.91545  0.44389  0.95208  Biso   1.000  H
  H94      1.0000 0.08455  0.44389  0.54792  Biso   1.000  H
  H95      1.0000 0.41545  0.94389  0.95208  Biso   1.000  H
  H96      1.0000 0.58455  0.94389  0.54792  Biso   1.000  H
  C57      1.0000 0.06890  0.35055  0.94374  Biso   1.000  C
  C58      1.0000 0.93110  0.35055  0.55626  Biso   1.000  C
  C59      1.0000 0.56890  0.85055  0.94374  Biso   1.000  C
  C60      1.0000 0.43110  0.85055  0.55626  Biso   1.000  C
  C61      1.0000 0.93110  0.64945  0.05626  Biso   1.000  C
  C62      1.0000 0.06890  0.64945  0.44374  Biso   1.000  C
  C63      1.0000 0.43110  0.14945  0.05626  Biso   1.000  C
  C64      1.0000 0.56890  0.14945  0.44374  Biso   1.000  C
  H97      1.0000 0.06612  0.18666  0.97048  Biso   1.000  H
  H98      1.0000 0.93388  0.18666  0.52952  Biso   1.000  H
  H99      1.0000 0.56612  0.68666  0.97048  Biso   1.000  H
  H100     1.0000 0.43388  0.68666  0.52952  Biso   1.000  H
  H101     1.0000 0.93388  0.81334  0.02952  Biso   1.000  H
  H102     1.0000 0.06612  0.81334  0.47048  Biso   1.000  H
  H103     1.0000 0.43388  0.31334  0.02952  Biso   1.000  H
  H104     1.0000 0.56612  0.31334  0.47048  Biso   1.000  H
  H105     1.0000 0.07432  0.30861  0.89276  Biso   1.000  H
  H106     1.0000 0.92568  0.30861  0.60724  Biso   1.000  H
  H107     1.0000 0.57432  0.80861  0.89276  Biso   1.000  H
  H108     1.0000 0.42568  0.80861  0.60724  Biso   1.000  H
  H109     1.0000 0.92568  0.69139  0.10724  Biso   1.000  H
  H110     1.0000 0.07432  0.69139  0.39276  Biso   1.000  H
  H111     1.0000 0.42568  0.19139  0.10724  Biso   1.000  H
  H112     1.0000 0.57432  0.19139  0.39276  Biso   1.000  H
  C65      1.0000 0.04289  0.49628  0.92266  Biso   1.000  C
  C66      1.0000 0.95711  0.49628  0.57734  Biso   1.000  C
  C67      1.0000 0.54289  0.99628  0.92266  Biso   1.000  C
  C68      1.0000 0.45711  0.99628  0.57734  Biso   1.000  C
  C69      1.0000 0.95711  0.50372  0.07734  Biso   1.000  C
  C70      1.0000 0.04289  0.50372  0.42266  Biso   1.000  C
  C71      1.0000 0.45711  0.00372  0.07734  Biso   1.000  C
  C72      1.0000 0.54289  0.00372  0.42266  Biso   1.000  C
  H113     1.0000 0.03683  0.53290  0.97309  Biso   1.000  H
  H114     1.0000 0.96317  0.53290  0.52691  Biso   1.000  H
  H115     1.0000 0.53683  0.03290  0.97309  Biso   1.000  H
  H116     1.0000 0.46317  0.03290  0.52691  Biso   1.000  H
  H117     1.0000 0.96317  0.46710  0.02691  Biso   1.000  H
  H118     1.0000 0.03683  0.46710  0.47309  Biso   1.000  H
  H119     1.0000 0.46317  0.96710  0.02691  Biso   1.000  H
  H120     1.0000 0.53683  0.96710  0.47309  Biso   1.000  H
  H121     1.0000 0.04552  0.66333  0.89729  Biso   1.000  H
  H122     1.0000 0.95448  0.66333  0.60271  Biso   1.000  H
  H123     1.0000 0.54552  0.16333  0.89729  Biso   1.000  H
  H124     1.0000 0.45448  0.16333  0.60271  Biso   1.000  H
  H125     1.0000 0.95448  0.33667  0.10271  Biso   1.000  H
  H126     1.0000 0.04552  0.33667  0.39729  Biso   1.000  H
  H127     1.0000 0.45448  0.83667  0.10271  Biso   1.000  H
  H128     1.0000 0.54552  0.83667  0.39729  Biso   1.000  H
  H129     1.0000 0.02829  0.37696  0.88049  Biso   1.000  H
  H130     1.0000 0.97171  0.37696  0.61951  Biso   1.000  H
  H131     1.0000 0.52829  0.87696  0.88049  Biso   1.000  H
  H132     1.0000 0.47171  0.87696  0.61951  Biso   1.000  H
  H133     1.0000 0.97171  0.62304  0.11951  Biso   1.000  H
  H134     1.0000 0.02829  0.62304  0.38049  Biso   1.000  H
  H135     1.0000 0.47171  0.12304  0.11951  Biso   1.000  H
  H136     1.0000 0.52829  0.12304  0.38049  Biso   1.000  H
  O17      1.0000 0.20710  0.25222  0.92377  Biso   1.000  O
  O18      1.0000 0.79290  0.25222  0.57623  Biso   1.000  O
  O19      1.0000 0.70710  0.75222  0.92377  Biso   1.000  O
  O20      1.0000 0.29290  0.75222  0.57623  Biso   1.000  O
  O21      1.0000 0.79290  0.74778  0.07623  Biso   1.000  O
  O22      1.0000 0.20710  0.74778  0.42377  Biso   1.000  O
  O23      1.0000 0.29290  0.24778  0.07623  Biso   1.000  O
  O24      1.0000 0.70710  0.24778  0.42377  Biso   1.000  O
  O25      1.0000 0.22764  0.88959  0.97604  Biso   1.000  O
  O26      1.0000 0.77236  0.88959  0.52396  Biso   1.000  O
  O27      1.0000 0.72764  0.38959  0.97604  Biso   1.000  O
  O28      1.0000 0.27236  0.38959  0.52396  Biso   1.000  O
  O29      1.0000 0.77236  0.11041  0.02396  Biso   1.000  O
  O30      1.0000 0.22764  0.11041  0.47604  Biso   1.000  O
  O31      1.0000 0.27236  0.61041  0.02396  Biso   1.000  O
  O32      1.0000 0.72764  0.61041  0.47604  Biso   1.000  O
  C73      1.0000 0.20692  0.01251  0.93743  Biso   1.000  C
  C74      1.0000 0.79308  0.01251  0.56257  Biso   1.000  C
  C75      1.0000 0.70692  0.51251  0.93743  Biso   1.000  C
  C76      1.0000 0.29308  0.51251  0.56257  Biso   1.000  C
  C77      1.0000 0.79308  0.98749  0.06257  Biso   1.000  C
  C78      1.0000 0.20692  0.98749  0.43743  Biso   1.000  C
  C79      1.0000 0.29308  0.48749  0.06257  Biso   1.000  C
  C80      1.0000 0.70692  0.48749  0.43743  Biso   1.000  C
  C81      1.0000 0.18256  0.85486  0.90602  Biso   1.000  C
  C82      1.0000 0.81744  0.85486  0.59398  Biso   1.000  C
  C83      1.0000 0.68256  0.35486  0.90602  Biso   1.000  C
  C84      1.0000 0.31744  0.35486  0.59398  Biso   1.000  C
  C85      1.0000 0.81744  0.14514  0.09398  Biso   1.000  C
  C86      1.0000 0.18256  0.14514  0.40602  Biso   1.000  C
  C87      1.0000 0.31744  0.64514  0.09398  Biso   1.000  C
  C88      1.0000 0.68256  0.64514  0.40602  Biso   1.000  C
  H137     1.0000 0.17647  0.78504  0.95312  Biso   1.000  H
  H138     1.0000 0.82353  0.78504  0.54688  Biso   1.000  H
  H139     1.0000 0.67647  0.28504  0.95312  Biso   1.000  H
  H140     1.0000 0.32353  0.28504  0.54688  Biso   1.000  H
  H141     1.0000 0.82353  0.21496  0.04688  Biso   1.000  H
  H142     1.0000 0.17647  0.21496  0.45312  Biso   1.000  H
  H143     1.0000 0.32353  0.71496  0.04688  Biso   1.000  H
  H144     1.0000 0.67647  0.71496  0.45312  Biso   1.000  H
  H145     1.0000 0.18737  0.70655  0.87548  Biso   1.000  H
  H146     1.0000 0.81263  0.70655  0.62452  Biso   1.000  H
  H147     1.0000 0.68737  0.20655  0.87548  Biso   1.000  H
  H148     1.0000 0.31263  0.20655  0.62452  Biso   1.000  H
  H149     1.0000 0.81263  0.29345  0.12452  Biso   1.000  H
  H150     1.0000 0.18737  0.29345  0.37548  Biso   1.000  H
  H151     1.0000 0.31263  0.79345  0.12452  Biso   1.000  H
  H152     1.0000 0.68737  0.79345  0.37548  Biso   1.000  H
  C89      1.0000 0.15986  0.99461  0.85172  Biso   1.000  C
  C90      1.0000 0.84014  0.99461  0.64828  Biso   1.000  C
  C91      1.0000 0.65986  0.49461  0.85172  Biso   1.000  C
  C92      1.0000 0.34014  0.49461  0.64828  Biso   1.000  C
  C93      1.0000 0.84014  0.00539  0.14828  Biso   1.000  C
  C94      1.0000 0.15986  0.00539  0.35172  Biso   1.000  C
  C95      1.0000 0.34014  0.50539  0.14828  Biso   1.000  C
  C96      1.0000 0.65986  0.50539  0.35172  Biso   1.000  C
  H153     1.0000 0.15591  0.15137  0.88017  Biso   1.000  H
  H154     1.0000 0.84409  0.15137  0.61983  Biso   1.000  H
  H155     1.0000 0.65591  0.65137  0.88017  Biso   1.000  H
  H156     1.0000 0.34409  0.65137  0.61983  Biso   1.000  H
  H157     1.0000 0.84409  0.84863  0.11983  Biso   1.000  H
  H158     1.0000 0.15591  0.84863  0.38017  Biso   1.000  H
  H159     1.0000 0.34409  0.34863  0.11983  Biso   1.000  H
  H160     1.0000 0.65591  0.34863  0.38017  Biso   1.000  H
  H161     1.0000 0.16521  0.04985  0.80182  Biso   1.000  H
  H162     1.0000 0.83479  0.04985  0.69818  Biso   1.000  H
  H163     1.0000 0.66521  0.54985  0.80182  Biso   1.000  H
  H164     1.0000 0.33479  0.54985  0.69818  Biso   1.000  H
  H165     1.0000 0.83479  0.95015  0.19818  Biso   1.000  H
  H166     1.0000 0.16521  0.95015  0.30182  Biso   1.000  H
  H167     1.0000 0.33479  0.45015  0.19818  Biso   1.000  H
  H168     1.0000 0.66521  0.45015  0.30182  Biso   1.000  H
  C97      1.0000 0.13501  0.83444  0.82782  Biso   1.000  C
  C98      1.0000 0.86499  0.83444  0.67218  Biso   1.000  C
  C99      1.0000 0.63501  0.33444  0.82782  Biso   1.000  C
  C100     1.0000 0.36499  0.33444  0.67218  Biso   1.000  C
  C101     1.0000 0.86499  0.16556  0.17218  Biso   1.000  C
  C102     1.0000 0.13501  0.16556  0.32782  Biso   1.000  C
  C103     1.0000 0.36499  0.66556  0.17218  Biso   1.000  C
  C104     1.0000 0.63501  0.66556  0.32782  Biso   1.000  C
  H169     1.0000 0.12949  0.78314  0.87791  Biso   1.000  H
  H170     1.0000 0.87051  0.78314  0.62209  Biso   1.000  H
  H171     1.0000 0.62949  0.28314  0.87791  Biso   1.000  H
  H172     1.0000 0.37051  0.28314  0.62209  Biso   1.000  H
  H173     1.0000 0.87051  0.21686  0.12209  Biso   1.000  H
  H174     1.0000 0.12949  0.21686  0.37791  Biso   1.000  H
  H175     1.0000 0.37051  0.71686  0.12209  Biso   1.000  H
  H176     1.0000 0.62949  0.71686  0.37791  Biso   1.000  H
  H177     1.0000 0.13923  0.67509  0.80119  Biso   1.000  H
  H178     1.0000 0.86077  0.67509  0.69881  Biso   1.000  H
  H179     1.0000 0.63923  0.17509  0.80119  Biso   1.000  H
  H180     1.0000 0.36077  0.17509  0.69881  Biso   1.000  H
  H181     1.0000 0.86077  0.32491  0.19881  Biso   1.000  H
  H182     1.0000 0.13923  0.32491  0.30119  Biso   1.000  H
  H183     1.0000 0.36077  0.82491  0.19881  Biso   1.000  H
  H184     1.0000 0.63923  0.82491  0.30119  Biso   1.000  H
  C105     1.0000 0.11191  0.96737  0.77092  Biso   1.000  C
  C106     1.0000 0.88809  0.96737  0.72908  Biso   1.000  C
  C107     1.0000 0.61191  0.46737  0.77092  Biso   1.000  C
  C108     1.0000 0.38809  0.46737  0.72908  Biso   1.000  C
  C109     1.0000 0.88809  0.03263  0.22908  Biso   1.000  C
  C110     1.0000 0.11191  0.03263  0.27092  Biso   1.000  C
  C111     1.0000 0.38809  0.53263  0.22908  Biso   1.000  C
  C112     1.0000 0.61191  0.53263  0.27092  Biso   1.000  C
  H185     1.0000 0.10817  0.12908  0.79707  Biso   1.000  H
  H186     1.0000 0.89183  0.12908  0.70293  Biso   1.000  H
  H187     1.0000 0.60817  0.62908  0.79707  Biso   1.000  H
  H188     1.0000 0.39183  0.62908  0.70293  Biso   1.000  H
  H189     1.0000 0.89183  0.87092  0.20293  Biso   1.000  H
  H190     1.0000 0.10817  0.87092  0.29707  Biso   1.000  H
  H191     1.0000 0.39183  0.37092  0.20293  Biso   1.000  H
  H192     1.0000 0.60817  0.37092  0.29707  Biso   1.000  H
  H193     1.0000 0.11748  0.01488  0.72048  Biso   1.000  H
  H194     1.0000 0.88252  0.01488  0.77952  Biso   1.000  H
  H195     1.0000 0.61748  0.51488  0.72048  Biso   1.000  H
  H196     1.0000 0.38252  0.51488  0.77952  Biso   1.000  H
  H197     1.0000 0.88252  0.98512  0.27952  Biso   1.000  H
  H198     1.0000 0.11748  0.98512  0.22048  Biso   1.000  H
  H199     1.0000 0.38252  0.48512  0.27952  Biso   1.000  H
  H200     1.0000 0.61748  0.48512  0.22048  Biso   1.000  H
  C113     1.0000 0.08689  0.81480  0.74794  Biso   1.000  C
  C114     1.0000 0.91311  0.81480  0.75206  Biso   1.000  C
  C115     1.0000 0.58689  0.31480  0.74794  Biso   1.000  C
  C116     1.0000 0.41311  0.31480  0.75206  Biso   1.000  C
  C117     1.0000 0.91311  0.18520  0.25206  Biso   1.000  C
  C118     1.0000 0.08689  0.18520  0.24794  Biso   1.000  C
  C119     1.0000 0.41311  0.68520  0.25206  Biso   1.000  C
  C120     1.0000 0.58689  0.68520  0.24794  Biso   1.000  C
  H201     1.0000 0.08187  0.76152  0.79862  Biso   1.000  H
  H202     1.0000 0.91813  0.76152  0.70138  Biso   1.000  H
  H203     1.0000 0.58187  0.26152  0.79862  Biso   1.000  H
  H204     1.0000 0.41813  0.26152  0.70138  Biso   1.000  H
  H205     1.0000 0.91813  0.23848  0.20138  Biso   1.000  H
  H206     1.0000 0.08187  0.23848  0.29862  Biso   1.000  H
  H207     1.0000 0.41813  0.73848  0.20138  Biso   1.000  H
  H208     1.0000 0.58187  0.73848  0.29862  Biso   1.000  H
  H209     1.0000 0.09065  0.65617  0.72021  Biso   1.000  H
  H210     1.0000 0.90935  0.65617  0.77979  Biso   1.000  H
  H211     1.0000 0.59065  0.15617  0.72021  Biso   1.000  H
  H212     1.0000 0.40935  0.15617  0.77979  Biso   1.000  H
  H213     1.0000 0.90935  0.34383  0.27979  Biso   1.000  H
  H214     1.0000 0.09065  0.34383  0.22021  Biso   1.000  H
  H215     1.0000 0.40935  0.84383  0.27979  Biso   1.000  H
  H216     1.0000 0.59065  0.84383  0.22021  Biso   1.000  H
  C121     1.0000 0.06347  0.94526  0.69413  Biso   1.000  C
  C122     1.0000 0.93653  0.94526  0.80587  Biso   1.000  C
  C123     1.0000 0.56347  0.44526  0.69413  Biso   1.000  C
  C124     1.0000 0.43653  0.44526  0.80587  Biso   1.000  C
  C125     1.0000 0.93653  0.05474  0.30587  Biso   1.000  C
  C126     1.0000 0.06347  0.05474  0.19413  Biso   1.000  C
  C127     1.0000 0.43653  0.55474  0.30587  Biso   1.000  C
  C128     1.0000 0.56347  0.55474  0.19413  Biso   1.000  C
  H217     1.0000 0.06852  0.00276  0.64387  Biso   1.000  H
  H218     1.0000 0.93148  0.00276  0.85613  Biso   1.000  H
  H219     1.0000 0.56852  0.50276  0.64387  Biso   1.000  H
  H220     1.0000 0.43148  0.50276  0.85613  Biso   1.000  H
  H221     1.0000 0.93148  0.99724  0.35613  Biso   1.000  H
  H222     1.0000 0.06852  0.99724  0.14387  Biso   1.000  H
  H223     1.0000 0.43148  0.49724  0.35613  Biso   1.000  H
  H224     1.0000 0.56852  0.49724  0.14387  Biso   1.000  H
  H225     1.0000 0.05934  0.10196  0.72242  Biso   1.000  H
  H226     1.0000 0.94066  0.10196  0.77758  Biso   1.000  H
  H227     1.0000 0.55934  0.60196  0.72242  Biso   1.000  H
  H228     1.0000 0.44066  0.60196  0.77758  Biso   1.000  H
  H229     1.0000 0.94066  0.89804  0.27758  Biso   1.000  H
  H230     1.0000 0.05934  0.89804  0.22242  Biso   1.000  H
  H231     1.0000 0.44066  0.39804  0.27758  Biso   1.000  H
  H232     1.0000 0.55934  0.39804  0.22242  Biso   1.000  H
  C129     1.0000 0.03900  0.78754  0.67045  Biso   1.000  C
  C130     1.0000 0.96100  0.78754  0.82955  Biso   1.000  C
  C131     1.0000 0.53900  0.28754  0.67045  Biso   1.000  C
  C132     1.0000 0.46100  0.28754  0.82955  Biso   1.000  C
  C133     1.0000 0.96100  0.21246  0.32955  Biso   1.000  C
  C134     1.0000 0.03900  0.21246  0.17045  Biso   1.000  C
  C135     1.0000 0.46100  0.71246  0.32955  Biso   1.000  C
  C136     1.0000 0.53900  0.71246  0.17045  Biso   1.000  C
  H233     1.0000 0.04321  0.63040  0.64293  Biso   1.000  H
  H234     1.0000 0.95679  0.63040  0.85707  Biso   1.000  H
  H235     1.0000 0.54321  0.13040  0.64293  Biso   1.000  H
  H236     1.0000 0.45679  0.13040  0.85707  Biso   1.000  H
  H237     1.0000 0.95679  0.36960  0.35707  Biso   1.000  H
  H238     1.0000 0.04321  0.36960  0.14293  Biso   1.000  H
  H239     1.0000 0.45679  0.86960  0.35707  Biso   1.000  H
  H240     1.0000 0.54321  0.86960  0.14293  Biso   1.000  H
  H241     1.0000 0.03382  0.73202  0.72088  Biso   1.000  H
  H242     1.0000 0.96618  0.73202  0.77912  Biso   1.000  H
  H243     1.0000 0.53382  0.23202  0.72088  Biso   1.000  H
  H244     1.0000 0.46618  0.23202  0.77912  Biso   1.000  H
  H245     1.0000 0.96618  0.26798  0.27912  Biso   1.000  H
  H246     1.0000 0.03382  0.26798  0.22088  Biso   1.000  H
  H247     1.0000 0.46618  0.76798  0.27912  Biso   1.000  H
  H248     1.0000 0.53382  0.76798  0.22088  Biso   1.000  H
  C137     1.0000 0.01519  0.91479  0.61556  Biso   1.000  C
  C138     1.0000 0.98481  0.91479  0.88444  Biso   1.000  C
  C139     1.0000 0.51519  0.41479  0.61556  Biso   1.000  C
  C140     1.0000 0.48481  0.41479  0.88444  Biso   1.000  C
  C141     1.0000 0.98481  0.08521  0.38444  Biso   1.000  C
  C142     1.0000 0.01519  0.08521  0.11556  Biso   1.000  C
  C143     1.0000 0.48481  0.58521  0.38444  Biso   1.000  C
  C144     1.0000 0.51519  0.58521  0.11556  Biso   1.000  C
  H249     1.0000 0.02047  0.97180  0.56568  Biso   1.000  H
  H250     1.0000 0.97953  0.97180  0.93432  Biso   1.000  H
  H251     1.0000 0.52047  0.47180  0.56568  Biso   1.000  H
  H252     1.0000 0.47953  0.47180  0.93432  Biso   1.000  H
  H253     1.0000 0.97953  0.02820  0.43432  Biso   1.000  H
  H254     1.0000 0.02047  0.02820  0.06568  Biso   1.000  H
  H255     1.0000 0.47953  0.52820  0.43432  Biso   1.000  H
  H256     1.0000 0.52047  0.52820  0.06568  Biso   1.000  H
  H257     1.0000 0.01096  0.07122  0.64353  Biso   1.000  H
  H258     1.0000 0.98904  0.07122  0.85647  Biso   1.000  H
  H259     1.0000 0.51096  0.57122  0.64353  Biso   1.000  H
  H260     1.0000 0.48904  0.57122  0.85647  Biso   1.000  H
  H261     1.0000 0.98904  0.92878  0.35647  Biso   1.000  H
  H262     1.0000 0.01096  0.92878  0.14353  Biso   1.000  H
  H263     1.0000 0.48904  0.42878  0.35647  Biso   1.000  H
  H264     1.0000 0.51096  0.42878  0.14353  Biso   1.000  H
  H265     1.0000 0.99831  0.78010  0.60168  Biso   1.000  H
  H266     1.0000 0.00169  0.78010  0.89832  Biso   1.000  H
  H267     1.0000 0.49831  0.28010  0.60168  Biso   1.000  H
  H268     1.0000 0.50169  0.28010  0.89832  Biso   1.000  H
  H269     1.0000 0.00169  0.21990  0.39832  Biso   1.000  H
  H270     1.0000 0.99831  0.21990  0.10168  Biso   1.000  H
  H271     1.0000 0.50169  0.71990  0.39832  Biso   1.000  H
  H272     1.0000 0.49831  0.71990  0.10168  Biso   1.000  H
