data_image0
_cell_length_a       65.843
_cell_length_b       5.0606
_cell_length_c       16.2296
_cell_angle_alpha    90
_cell_angle_beta     97.383
_cell_angle_gamma    90

_symmetry_space_group_name_H-M    "P 1"
_symmetry_int_tables_number       1

loop_
  _symmetry_equiv_pos_as_xyz
  'x, y, z'

loop_
  _atom_site_label
  _atom_site_occupancy
  _atom_site_fract_x
  _atom_site_fract_y
  _atom_site_fract_z
  _atom_site_thermal_displace_type
  _atom_site_B_iso_or_equiv
  _atom_site_type_symbol
  Cu1      1.0000 0.24100  0.46820  0.97191  Biso   1.000  Cu
  Cu2      1.0000 0.75900  0.46820  0.52809  Biso   1.000  Cu
  Cu3      1.0000 0.74100  0.96820  0.97191  Biso   1.000  Cu
  Cu4      1.0000 0.25900  0.96820  0.52809  Biso   1.000  Cu
  Cu5      1.0000 0.75900  0.53180  0.02809  Biso   1.000  Cu
  Cu6      1.0000 0.24100  0.53180  0.47191  Biso   1.000  Cu
  Cu7      1.0000 0.25900  0.03180  0.02809  Biso   1.000  Cu
  Cu8      1.0000 0.74100  0.03180  0.47191  Biso   1.000  Cu
  O1       1.0000 0.23029  0.45653  0.07875  Biso   1.000  O
  O2       1.0000 0.76971  0.45653  0.42125  Biso   1.000  O
  O3       1.0000 0.73029  0.95653  0.07875  Biso   1.000  O
  O4       1.0000 0.26971  0.95653  0.42125  Biso   1.000  O
  O5       1.0000 0.76971  0.54347  0.92125  Biso   1.000  O
  O6       1.0000 0.23029  0.54347  0.57875  Biso   1.000  O
  O7       1.0000 0.26971  0.04347  0.92125  Biso   1.000  O
  O8       1.0000 0.73029  0.04347  0.57875  Biso   1.000  O
  O9       1.0000 0.24610  0.08697  0.12370  Biso   1.000  O
  O10      1.0000 0.75390  0.08697  0.37630  Biso   1.000  O
  O11      1.0000 0.74610  0.58697  0.12370  Biso   1.000  O
  O12      1.0000 0.25390  0.58697  0.37630  Biso   1.000  O
  O13      1.0000 0.75390  0.91303  0.87630  Biso   1.000  O
  O14      1.0000 0.24610  0.91303  0.62370  Biso   1.000  O
  O15      1.0000 0.25390  0.41303  0.87630  Biso   1.000  O
  O16      1.0000 0.74610  0.41303  0.62370  Biso   1.000  O
  C1       1.0000 0.23488  0.27800  0.13020  Biso   1.000  C
  C2       1.0000 0.76512  0.27800  0.36980  Biso   1.000  C
  C3       1.0000 0.73488  0.77800  0.13020  Biso   1.000  C
  C4       1.0000 0.26512  0.77800  0.36980  Biso   1.000  C
  C5       1.0000 0.76512  0.72200  0.86980  Biso   1.000  C
  C6       1.0000 0.23488  0.72200  0.63020  Biso   1.000  C
  C7       1.0000 0.26512  0.22200  0.86980  Biso   1.000  C
  C8       1.0000 0.73488  0.22200  0.63020  Biso   1.000  C
  C9       1.0000 0.22466  0.29735  0.20906  Biso   1.000  C
  C10      1.0000 0.77534  0.29735  0.29094  Biso   1.000  C
  C11      1.0000 0.72466  0.79735  0.20906  Biso   1.000  C
  C12      1.0000 0.27534  0.79735  0.29094  Biso   1.000  C
  C13      1.0000 0.77534  0.70265  0.79094  Biso   1.000  C
  C14      1.0000 0.22466  0.70265  0.70906  Biso   1.000  C
  C15      1.0000 0.27534  0.20265  0.79094  Biso   1.000  C
  C16      1.0000 0.72466  0.20265  0.70906  Biso   1.000  C
  H1       1.0000 0.23430  0.37416  0.25280  Biso   1.000  H
  H2       1.0000 0.76570  0.37416  0.24720  Biso   1.000  H
  H3       1.0000 0.73430  0.87416  0.25280  Biso   1.000  H
  H4       1.0000 0.26570  0.87416  0.24720  Biso   1.000  H
  H5       1.0000 0.76570  0.62584  0.74720  Biso   1.000  H
  H6       1.0000 0.23430  0.62584  0.75280  Biso   1.000  H
  H7       1.0000 0.26570  0.12584  0.74720  Biso   1.000  H
  H8       1.0000 0.73430  0.12584  0.75280  Biso   1.000  H
  H9       1.0000 0.22148  0.12044  0.22643  Biso   1.000  H
  H10      1.0000 0.77852  0.12044  0.27357  Biso   1.000  H
  H11      1.0000 0.72148  0.62044  0.22643  Biso   1.000  H
  H12      1.0000 0.27852  0.62044  0.27357  Biso   1.000  H
  H13      1.0000 0.77852  0.87956  0.77357  Biso   1.000  H
  H14      1.0000 0.22148  0.87956  0.72643  Biso   1.000  H
  H15      1.0000 0.27852  0.37956  0.77357  Biso   1.000  H
  H16      1.0000 0.72148  0.37956  0.72643  Biso   1.000  H
  C17      1.0000 0.20502  0.46304  0.19903  Biso   1.000  C
  C18      1.0000 0.79498  0.46304  0.30097  Biso   1.000  C
  C19      1.0000 0.70502  0.96304  0.19903  Biso   1.000  C
  C20      1.0000 0.29498  0.96304  0.30097  Biso   1.000  C
  C21      1.0000 0.79498  0.53696  0.80097  Biso   1.000  C
  C22      1.0000 0.20502  0.53696  0.69903  Biso   1.000  C
  C23      1.0000 0.29498  0.03696  0.80097  Biso   1.000  C
  C24      1.0000 0.70502  0.03696  0.69903  Biso   1.000  C
  H17      1.0000 0.20802  0.63438  0.17648  Biso   1.000  H
  H18      1.0000 0.79198  0.63438  0.32352  Biso   1.000  H
  H19      1.0000 0.70802  0.13438  0.17648  Biso   1.000  H
  H20      1.0000 0.29198  0.13438  0.32352  Biso   1.000  H
  H21      1.0000 0.79198  0.36562  0.82352  Biso   1.000  H
  H22      1.0000 0.20802  0.36562  0.67648  Biso   1.000  H
  H23      1.0000 0.29198  0.86562  0.82352  Biso   1.000  H
  H24      1.0000 0.70802  0.86562  0.67648  Biso   1.000  H
  H25      1.0000 0.20081  0.49212  0.25338  Biso   1.000  H
  H26      1.0000 0.79919  0.49212  0.24662  Biso   1.000  H
  H27      1.0000 0.70081  0.99212  0.25338  Biso   1.000  H
  H28      1.0000 0.29919  0.99212  0.24662  Biso   1.000  H
  H29      1.0000 0.79919  0.50788  0.74662  Biso   1.000  H
  H30      1.0000 0.20081  0.50788  0.75338  Biso   1.000  H
  H31      1.0000 0.29919  0.00788  0.74662  Biso   1.000  H
  H32      1.0000 0.70081  0.00788  0.75338  Biso   1.000  H
  C25      1.0000 0.18734  0.33930  0.14311  Biso   1.000  C
  C26      1.0000 0.81266  0.33930  0.35689  Biso   1.000  C
  C27      1.0000 0.68734  0.83930  0.14311  Biso   1.000  C
  C28      1.0000 0.31266  0.83930  0.35689  Biso   1.000  C
  C29      1.0000 0.81266  0.66070  0.85689  Biso   1.000  C
  C30      1.0000 0.18734  0.66070  0.64311  Biso   1.000  C
  C31      1.0000 0.31266  0.16070  0.85689  Biso   1.000  C
  C32      1.0000 0.68734  0.16070  0.64311  Biso   1.000  C
  H33      1.0000 0.19183  0.30138  0.08969  Biso   1.000  H
  H34      1.0000 0.80817  0.30138  0.41031  Biso   1.000  H
  H35      1.0000 0.69183  0.80138  0.08969  Biso   1.000  H
  H36      1.0000 0.30817  0.80138  0.41031  Biso   1.000  H
  H37      1.0000 0.80817  0.69862  0.91031  Biso   1.000  H
  H38      1.0000 0.19183  0.69862  0.58969  Biso   1.000  H
  H39      1.0000 0.30817  0.19862  0.91031  Biso   1.000  H
  H40      1.0000 0.69183  0.19862  0.58969  Biso   1.000  H
  H41      1.0000 0.18393  0.17206  0.16727  Biso   1.000  H
  H42      1.0000 0.81607  0.17206  0.33273  Biso   1.000  H
  H43      1.0000 0.68393  0.67206  0.16727  Biso   1.000  H
  H44      1.0000 0.31607  0.67206  0.33273  Biso   1.000  H
  H45      1.0000 0.81607  0.82794  0.83273  Biso   1.000  H
  H46      1.0000 0.18393  0.82794  0.66727  Biso   1.000  H
  H47      1.0000 0.31607  0.32794  0.83273  Biso   1.000  H
  H48      1.0000 0.68393  0.32794  0.66727  Biso   1.000  H
  C33      1.0000 0.16892  0.49928  0.12941  Biso   1.000  C
  C34      1.0000 0.83108  0.49928  0.37059  Biso   1.000  C
  C35      1.0000 0.66892  0.99928  0.12941  Biso   1.000  C
  C36      1.0000 0.33108  0.99928  0.37059  Biso   1.000  C
  C37      1.0000 0.83108  0.50072  0.87059  Biso   1.000  C
  C38      1.0000 0.16892  0.50072  0.62941  Biso   1.000  C
  C39      1.0000 0.33108  0.00072  0.87059  Biso   1.000  C
  C40      1.0000 0.66892  0.00072  0.62941  Biso   1.000  C
  H49      1.0000 0.17215  0.66255  0.10262  Biso   1.000  H
  H50      1.0000 0.82785  0.66255  0.39738  Biso   1.000  H
  H51      1.0000 0.67215  0.16255  0.10262  Biso   1.000  H
  H52      1.0000 0.32785  0.16255  0.39738  Biso   1.000  H
  H53      1.0000 0.82785  0.33745  0.89738  Biso   1.000  H
  H54      1.0000 0.17215  0.33745  0.60262  Biso   1.000  H
  H55      1.0000 0.32785  0.83745  0.89738  Biso   1.000  H
  H56      1.0000 0.67215  0.83745  0.60262  Biso   1.000  H
  H57      1.0000 0.16492  0.54529  0.18298  Biso   1.000  H
  H58      1.0000 0.83508  0.54529  0.31702  Biso   1.000  H
  H59      1.0000 0.66492  0.04529  0.18298  Biso   1.000  H
  H60      1.0000 0.33508  0.04529  0.31702  Biso   1.000  H
  H61      1.0000 0.83508  0.45471  0.81702  Biso   1.000  H
  H62      1.0000 0.16492  0.45471  0.68298  Biso   1.000  H
  H63      1.0000 0.33508  0.95471  0.81702  Biso   1.000  H
  H64      1.0000 0.66492  0.95471  0.68298  Biso   1.000  H
  C41      1.0000 0.15057  0.37132  0.07694  Biso   1.000  C
  C42      1.0000 0.84943  0.37132  0.42306  Biso   1.000  C
  C43      1.0000 0.65057  0.87132  0.07694  Biso   1.000  C
  C44      1.0000 0.34943  0.87132  0.42306  Biso   1.000  C
  C45      1.0000 0.84943  0.62868  0.92306  Biso   1.000  C
  C46      1.0000 0.15057  0.62868  0.57694  Biso   1.000  C
  C47      1.0000 0.34943  0.12868  0.92306  Biso   1.000  C
  C48      1.0000 0.65057  0.12868  0.57694  Biso   1.000  C
  H65      1.0000 0.15466  0.32766  0.02319  Biso   1.000  H
  H66      1.0000 0.84534  0.32766  0.47681  Biso   1.000  H
  H67      1.0000 0.65466  0.82766  0.02319  Biso   1.000  H
  H68      1.0000 0.34534  0.82766  0.47681  Biso   1.000  H
  H69      1.0000 0.84534  0.67234  0.97681  Biso   1.000  H
  H70      1.0000 0.15466  0.67234  0.52319  Biso   1.000  H
  H71      1.0000 0.34534  0.17234  0.97681  Biso   1.000  H
  H72      1.0000 0.65466  0.17234  0.52319  Biso   1.000  H
  H73      1.0000 0.14760  0.20682  0.10333  Biso   1.000  H
  H74      1.0000 0.85240  0.20682  0.39667  Biso   1.000  H
  H75      1.0000 0.64760  0.70682  0.10333  Biso   1.000  H
  H76      1.0000 0.35240  0.70682  0.39667  Biso   1.000  H
  H77      1.0000 0.85240  0.79318  0.89667  Biso   1.000  H
  H78      1.0000 0.14760  0.79318  0.60333  Biso   1.000  H
  H79      1.0000 0.35240  0.29318  0.89667  Biso   1.000  H
  H80      1.0000 0.64760  0.29318  0.60333  Biso   1.000  H
  C49      1.0000 0.13116  0.52829  0.06213  Biso   1.000  C
  C50      1.0000 0.86884  0.52829  0.43787  Biso   1.000  C
  C51      1.0000 0.63116  0.02829  0.06213  Biso   1.000  C
  C52      1.0000 0.36884  0.02829  0.43787  Biso   1.000  C
  C53      1.0000 0.86884  0.47171  0.93787  Biso   1.000  C
  C54      1.0000 0.13116  0.47171  0.56213  Biso   1.000  C
  C55      1.0000 0.36884  0.97171  0.93787  Biso   1.000  C
  C56      1.0000 0.63116  0.97171  0.56213  Biso   1.000  C
  H81      1.0000 0.13381  0.68838  0.03247  Biso   1.000  H
  H82      1.0000 0.86619  0.68838  0.46753  Biso   1.000  H
  H83      1.0000 0.63381  0.18838  0.03247  Biso   1.000  H
  H84      1.0000 0.36619  0.18838  0.46753  Biso   1.000  H
  H85      1.0000 0.86619  0.31162  0.96753  Biso   1.000  H
  H86      1.0000 0.13381  0.31162  0.53247  Biso   1.000  H
  H87      1.0000 0.36619  0.81162  0.96753  Biso   1.000  H
  H88      1.0000 0.63381  0.81162  0.53247  Biso   1.000  H
  H89      1.0000 0.12734  0.58041  0.11559  Biso   1.000  H
  H90      1.0000 0.87266  0.58041  0.38441  Biso   1.000  H
  H91      1.0000 0.62734  0.08041  0.11559  Biso   1.000  H
  H92      1.0000 0.37266  0.08041  0.38441  Biso   1.000  H
  H93      1.0000 0.87266  0.41959  0.88441  Biso   1.000  H
  H94      1.0000 0.12734  0.41959  0.61559  Biso   1.000  H
  H95      1.0000 0.37266  0.91959  0.88441  Biso   1.000  H
  H96      1.0000 0.62734  0.91959  0.61559  Biso   1.000  H
  C57      1.0000 0.11348  0.38666  0.01440  Biso   1.000  C
  C58      1.0000 0.88652  0.38666  0.48560  Biso   1.000  C
  C59      1.0000 0.61348  0.88666  0.01440  Biso   1.000  C
  C60      1.0000 0.38652  0.88666  0.48560  Biso   1.000  C
  C61      1.0000 0.88652  0.61334  0.98560  Biso   1.000  C
  C62      1.0000 0.11348  0.61334  0.51440  Biso   1.000  C
  C63      1.0000 0.38652  0.11334  0.98560  Biso   1.000  C
  C64      1.0000 0.61348  0.11334  0.51440  Biso   1.000  C
  H97      1.0000 0.11136  0.22022  0.04168  Biso   1.000  H
  H98      1.0000 0.88864  0.22022  0.45832  Biso   1.000  H
  H99      1.0000 0.61136  0.72022  0.04168  Biso   1.000  H
  H100     1.0000 0.38864  0.72022  0.45832  Biso   1.000  H
  H101     1.0000 0.88864  0.77978  0.95832  Biso   1.000  H
  H102     1.0000 0.11136  0.77978  0.54168  Biso   1.000  H
  H103     1.0000 0.38864  0.27978  0.95832  Biso   1.000  H
  H104     1.0000 0.61136  0.27978  0.54168  Biso   1.000  H
  H105     1.0000 0.11673  0.34765  0.95912  Biso   1.000  H
  H106     1.0000 0.88327  0.34765  0.54088  Biso   1.000  H
  H107     1.0000 0.61673  0.84765  0.95912  Biso   1.000  H
  H108     1.0000 0.38327  0.84765  0.54088  Biso   1.000  H
  H109     1.0000 0.88327  0.65235  0.04088  Biso   1.000  H
  H110     1.0000 0.11673  0.65235  0.45912  Biso   1.000  H
  H111     1.0000 0.38327  0.15235  0.04088  Biso   1.000  H
  H112     1.0000 0.61673  0.15235  0.45912  Biso   1.000  H
  C65      1.0000 0.09387  0.54127  0.00666  Biso   1.000  C
  C66      1.0000 0.90613  0.54127  0.49334  Biso   1.000  C
  C67      1.0000 0.59387  0.04127  0.00666  Biso   1.000  C
  C68      1.0000 0.40613  0.04127  0.49334  Biso   1.000  C
  C69      1.0000 0.90613  0.45873  0.99334  Biso   1.000  C
  C70      1.0000 0.09387  0.45873  0.50666  Biso   1.000  C
  C71      1.0000 0.40613  0.95873  0.99334  Biso   1.000  C
  C72      1.0000 0.59387  0.95873  0.50666  Biso   1.000  C
  H113     1.0000 0.09012  0.57513  0.06164  Biso   1.000  H
  H114     1.0000 0.90988  0.57513  0.43836  Biso   1.000  H
  H115     1.0000 0.59012  0.07513  0.06164  Biso   1.000  H
  H116     1.0000 0.40988  0.07513  0.43836  Biso   1.000  H
  H117     1.0000 0.90988  0.42487  0.93836  Biso   1.000  H
  H118     1.0000 0.09012  0.42487  0.56164  Biso   1.000  H
  H119     1.0000 0.40988  0.92487  0.93836  Biso   1.000  H
  H120     1.0000 0.59012  0.92487  0.56164  Biso   1.000  H
  H121     1.0000 0.09590  0.71080  0.98090  Biso   1.000  H
  H122     1.0000 0.90410  0.71080  0.51910  Biso   1.000  H
  H123     1.0000 0.59590  0.21080  0.98090  Biso   1.000  H
  H124     1.0000 0.40410  0.21080  0.51910  Biso   1.000  H
  H125     1.0000 0.90410  0.28920  0.01910  Biso   1.000  H
  H126     1.0000 0.09590  0.28920  0.48090  Biso   1.000  H
  H127     1.0000 0.40410  0.78920  0.01910  Biso   1.000  H
  H128     1.0000 0.59590  0.78920  0.48090  Biso   1.000  H
  C73      1.0000 0.07662  0.39637  0.95556  Biso   1.000  C
  C74      1.0000 0.92338  0.39637  0.54444  Biso   1.000  C
  C75      1.0000 0.57662  0.89637  0.95556  Biso   1.000  C
  C76      1.0000 0.42338  0.89637  0.54444  Biso   1.000  C
  C77      1.0000 0.92338  0.60363  0.04444  Biso   1.000  C
  C78      1.0000 0.07662  0.60363  0.45556  Biso   1.000  C
  C79      1.0000 0.42338  0.10363  0.04444  Biso   1.000  C
  C80      1.0000 0.57662  0.10363  0.45556  Biso   1.000  C
  H129     1.0000 0.07485  0.22631  0.97992  Biso   1.000  H
  H130     1.0000 0.92515  0.22631  0.52008  Biso   1.000  H
  H131     1.0000 0.57485  0.72631  0.97992  Biso   1.000  H
  H132     1.0000 0.42515  0.72631  0.52008  Biso   1.000  H
  H133     1.0000 0.92515  0.77369  0.02008  Biso   1.000  H
  H134     1.0000 0.07485  0.77369  0.47992  Biso   1.000  H
  H135     1.0000 0.42515  0.27369  0.02008  Biso   1.000  H
  H136     1.0000 0.57485  0.27369  0.47992  Biso   1.000  H
  H137     1.0000 0.07986  0.37355  0.90002  Biso   1.000  H
  H138     1.0000 0.92014  0.37355  0.59998  Biso   1.000  H
  H139     1.0000 0.57986  0.87355  0.90002  Biso   1.000  H
  H140     1.0000 0.42014  0.87355  0.59998  Biso   1.000  H
  H141     1.0000 0.92014  0.62645  0.09998  Biso   1.000  H
  H142     1.0000 0.07986  0.62645  0.40002  Biso   1.000  H
  H143     1.0000 0.42014  0.12645  0.09998  Biso   1.000  H
  H144     1.0000 0.57986  0.12645  0.40002  Biso   1.000  H
  C81      1.0000 0.05681  0.55582  0.95357  Biso   1.000  C
  C82      1.0000 0.94319  0.55582  0.54643  Biso   1.000  C
  C83      1.0000 0.55681  0.05582  0.95357  Biso   1.000  C
  C84      1.0000 0.44319  0.05582  0.54643  Biso   1.000  C
  C85      1.0000 0.94319  0.44418  0.04643  Biso   1.000  C
  C86      1.0000 0.05681  0.44418  0.45357  Biso   1.000  C
  C87      1.0000 0.44319  0.94418  0.04643  Biso   1.000  C
  C88      1.0000 0.55681  0.94418  0.45357  Biso   1.000  C
  H145     1.0000 0.05883  0.74892  0.92598  Biso   1.000  H
  H146     1.0000 0.94117  0.74892  0.57402  Biso   1.000  H
  H147     1.0000 0.55883  0.24892  0.92598  Biso   1.000  H
  H148     1.0000 0.44117  0.24892  0.57402  Biso   1.000  H
  H149     1.0000 0.94117  0.25108  0.07402  Biso   1.000  H
  H150     1.0000 0.05883  0.25108  0.42598  Biso   1.000  H
  H151     1.0000 0.44117  0.75108  0.07402  Biso   1.000  H
  H152     1.0000 0.55883  0.75108  0.42598  Biso   1.000  H
  H153     1.0000 0.05317  0.58127  0.01671  Biso   1.000  H
  H154     1.0000 0.94683  0.58127  0.48329  Biso   1.000  H
  H155     1.0000 0.55317  0.08127  0.01671  Biso   1.000  H
  H156     1.0000 0.44683  0.08127  0.48329  Biso   1.000  H
  H157     1.0000 0.94683  0.41873  0.98329  Biso   1.000  H
  H158     1.0000 0.05317  0.41873  0.51671  Biso   1.000  H
  H159     1.0000 0.44683  0.91873  0.98329  Biso   1.000  H
  H160     1.0000 0.55317  0.91873  0.51671  Biso   1.000  H
  C89      1.0000 0.03933  0.40831  0.90163  Biso   1.000  C
  C90      1.0000 0.96067  0.40831  0.59837  Biso   1.000  C
  C91      1.0000 0.53933  0.90831  0.90163  Biso   1.000  C
  C92      1.0000 0.46067  0.90831  0.59837  Biso   1.000  C
  C93      1.0000 0.96067  0.59169  0.09837  Biso   1.000  C
  C94      1.0000 0.03933  0.59169  0.40163  Biso   1.000  C
  C95      1.0000 0.46067  0.09169  0.09837  Biso   1.000  C
  C96      1.0000 0.53933  0.09169  0.40163  Biso   1.000  C
  H161     1.0000 0.04327  0.37580  0.83923  Biso   1.000  H
  H162     1.0000 0.95673  0.37580  0.66077  Biso   1.000  H
  H163     1.0000 0.54327  0.87580  0.83923  Biso   1.000  H
  H164     1.0000 0.45673  0.87580  0.66077  Biso   1.000  H
  H165     1.0000 0.95673  0.62420  0.16077  Biso   1.000  H
  H166     1.0000 0.04327  0.62420  0.33923  Biso   1.000  H
  H167     1.0000 0.45673  0.12420  0.16077  Biso   1.000  H
  H168     1.0000 0.54327  0.12420  0.33923  Biso   1.000  H
  H169     1.0000 0.03655  0.22163  0.93176  Biso   1.000  H
  H170     1.0000 0.96345  0.22163  0.56824  Biso   1.000  H
  H171     1.0000 0.53655  0.72163  0.93176  Biso   1.000  H
  H172     1.0000 0.46345  0.72163  0.56824  Biso   1.000  H
  H173     1.0000 0.96345  0.77837  0.06824  Biso   1.000  H
  H174     1.0000 0.03655  0.77837  0.43176  Biso   1.000  H
  H175     1.0000 0.46345  0.27837  0.06824  Biso   1.000  H
  H176     1.0000 0.53655  0.27837  0.43176  Biso   1.000  H
  H177     1.0000 0.02533  0.52484  0.89843  Biso   1.000  H
  H178     1.0000 0.97467  0.52484  0.60157  Biso   1.000  H
  H179     1.0000 0.52533  0.02484  0.89843  Biso   1.000  H
  H180     1.0000 0.47467  0.02484  0.60157  Biso   1.000  H
  H181     1.0000 0.97467  0.47516  0.10157  Biso   1.000  H
  H182     1.0000 0.02533  0.47516  0.39843  Biso   1.000  H
  H183     1.0000 0.47467  0.97516  0.10157  Biso   1.000  H
  H184     1.0000 0.52533  0.97516  0.39843  Biso   1.000  H
  O17      1.0000 0.21740  0.25624  0.92638  Biso   1.000  O
  O18      1.0000 0.78260  0.25624  0.57362  Biso   1.000  O
  O19      1.0000 0.71740  0.75624  0.92638  Biso   1.000  O
  O20      1.0000 0.28260  0.75624  0.57362  Biso   1.000  O
  O21      1.0000 0.78260  0.74376  0.07362  Biso   1.000  O
  O22      1.0000 0.21740  0.74376  0.42638  Biso   1.000  O
  O23      1.0000 0.28260  0.24376  0.07362  Biso   1.000  O
  O24      1.0000 0.71740  0.24376  0.42638  Biso   1.000  O
  O25      1.0000 0.23279  0.88216  0.96677  Biso   1.000  O
  O26      1.0000 0.76721  0.88216  0.53323  Biso   1.000  O
  O27      1.0000 0.73279  0.38216  0.96677  Biso   1.000  O
  O28      1.0000 0.26721  0.38216  0.53323  Biso   1.000  O
  O29      1.0000 0.76721  0.11784  0.03323  Biso   1.000  O
  O30      1.0000 0.23279  0.11784  0.46677  Biso   1.000  O
  O31      1.0000 0.26721  0.61784  0.03323  Biso   1.000  O
  O32      1.0000 0.73279  0.61784  0.46677  Biso   1.000  O
  C97      1.0000 0.21687  0.01411  0.93829  Biso   1.000  C
  C98      1.0000 0.78313  0.01411  0.56171  Biso   1.000  C
  C99      1.0000 0.71687  0.51411  0.93829  Biso   1.000  C
  C100     1.0000 0.28313  0.51411  0.56171  Biso   1.000  C
  C101     1.0000 0.78313  0.98589  0.06171  Biso   1.000  C
  C102     1.0000 0.21687  0.98589  0.43829  Biso   1.000  C
  C103     1.0000 0.28313  0.48589  0.06171  Biso   1.000  C
  C104     1.0000 0.71687  0.48589  0.43829  Biso   1.000  C
  C105     1.0000 0.19761  0.86424  0.91638  Biso   1.000  C
  C106     1.0000 0.80239  0.86424  0.58362  Biso   1.000  C
  C107     1.0000 0.69761  0.36424  0.91638  Biso   1.000  C
  C108     1.0000 0.30239  0.36424  0.58362  Biso   1.000  C
  C109     1.0000 0.80239  0.13576  0.08362  Biso   1.000  C
  C110     1.0000 0.19761  0.13576  0.41638  Biso   1.000  C
  C111     1.0000 0.30239  0.63576  0.08362  Biso   1.000  C
  C112     1.0000 0.69761  0.63576  0.41638  Biso   1.000  C
  H185     1.0000 0.19352  0.79140  0.96699  Biso   1.000  H
  H186     1.0000 0.80648  0.79140  0.53301  Biso   1.000  H
  H187     1.0000 0.69352  0.29140  0.96699  Biso   1.000  H
  H188     1.0000 0.30648  0.29140  0.53301  Biso   1.000  H
  H189     1.0000 0.80648  0.20860  0.03301  Biso   1.000  H
  H190     1.0000 0.19352  0.20860  0.46699  Biso   1.000  H
  H191     1.0000 0.30648  0.70860  0.03301  Biso   1.000  H
  H192     1.0000 0.69352  0.70860  0.46699  Biso   1.000  H
  H193     1.0000 0.20043  0.71665  0.88138  Biso   1.000  H
  H194     1.0000 0.79957  0.71665  0.61862  Biso   1.000  H
  H195     1.0000 0.70043  0.21665  0.88138  Biso   1.000  H
  H196     1.0000 0.29957  0.21665  0.61862  Biso   1.000  H
  H197     1.0000 0.79957  0.28335  0.11862  Biso   1.000  H
  H198     1.0000 0.20043  0.28335  0.38138  Biso   1.000  H
  H199     1.0000 0.29957  0.78335  0.11862  Biso   1.000  H
  H200     1.0000 0.70043  0.78335  0.38138  Biso   1.000  H
  C113     1.0000 0.18001  0.01496  0.87291  Biso   1.000  C
  C114     1.0000 0.81999  0.01496  0.62709  Biso   1.000  C
  C115     1.0000 0.68001  0.51496  0.87291  Biso   1.000  C
  C116     1.0000 0.31999  0.51496  0.62709  Biso   1.000  C
  C117     1.0000 0.81999  0.98504  0.12709  Biso   1.000  C
  C118     1.0000 0.18001  0.98504  0.37291  Biso   1.000  C
  C119     1.0000 0.31999  0.48504  0.12709  Biso   1.000  C
  C120     1.0000 0.68001  0.48504  0.37291  Biso   1.000  C
  H201     1.0000 0.17783  0.17101  0.90543  Biso   1.000  H
  H202     1.0000 0.82217  0.17101  0.59457  Biso   1.000  H
  H203     1.0000 0.67783  0.67101  0.90543  Biso   1.000  H
  H204     1.0000 0.32217  0.67101  0.59457  Biso   1.000  H
  H205     1.0000 0.82217  0.82899  0.09457  Biso   1.000  H
  H206     1.0000 0.17783  0.82899  0.40543  Biso   1.000  H
  H207     1.0000 0.32217  0.32899  0.09457  Biso   1.000  H
  H208     1.0000 0.67783  0.32899  0.40543  Biso   1.000  H
  H209     1.0000 0.18346  0.07358  0.81965  Biso   1.000  H
  H210     1.0000 0.81654  0.07358  0.68035  Biso   1.000  H
  H211     1.0000 0.68346  0.57358  0.81965  Biso   1.000  H
  H212     1.0000 0.31654  0.57358  0.68035  Biso   1.000  H
  H213     1.0000 0.81654  0.92642  0.18035  Biso   1.000  H
  H214     1.0000 0.18346  0.92642  0.31965  Biso   1.000  H
  H215     1.0000 0.31654  0.42642  0.18035  Biso   1.000  H
  H216     1.0000 0.68346  0.42642  0.31965  Biso   1.000  H
  C121     1.0000 0.16048  0.86202  0.85891  Biso   1.000  C
  C122     1.0000 0.83952  0.86202  0.64109  Biso   1.000  C
  C123     1.0000 0.66048  0.36202  0.85891  Biso   1.000  C
  C124     1.0000 0.33952  0.36202  0.64109  Biso   1.000  C
  C125     1.0000 0.83952  0.13798  0.14109  Biso   1.000  C
  C126     1.0000 0.16048  0.13798  0.35891  Biso   1.000  C
  C127     1.0000 0.33952  0.63798  0.14109  Biso   1.000  C
  C128     1.0000 0.66048  0.63798  0.35891  Biso   1.000  C
  H217     1.0000 0.15691  0.80739  0.91249  Biso   1.000  H
  H218     1.0000 0.84309  0.80739  0.58751  Biso   1.000  H
  H219     1.0000 0.65691  0.30739  0.91249  Biso   1.000  H
  H220     1.0000 0.34309  0.30739  0.58751  Biso   1.000  H
  H221     1.0000 0.84309  0.19261  0.08751  Biso   1.000  H
  H222     1.0000 0.15691  0.19261  0.41249  Biso   1.000  H
  H223     1.0000 0.34309  0.69261  0.08751  Biso   1.000  H
  H224     1.0000 0.65691  0.69261  0.41249  Biso   1.000  H
  H225     1.0000 0.16288  0.70314  0.82811  Biso   1.000  H
  H226     1.0000 0.83712  0.70314  0.67189  Biso   1.000  H
  H227     1.0000 0.66288  0.20314  0.82811  Biso   1.000  H
  H228     1.0000 0.33712  0.20314  0.67189  Biso   1.000  H
  H229     1.0000 0.83712  0.29686  0.17189  Biso   1.000  H
  H230     1.0000 0.16288  0.29686  0.32811  Biso   1.000  H
  H231     1.0000 0.33712  0.79686  0.17189  Biso   1.000  H
  H232     1.0000 0.66288  0.79686  0.32811  Biso   1.000  H
  C129     1.0000 0.14252  0.00621  0.81290  Biso   1.000  C
  C130     1.0000 0.85748  0.00621  0.68710  Biso   1.000  C
  C131     1.0000 0.64252  0.50621  0.81290  Biso   1.000  C
  C132     1.0000 0.35748  0.50621  0.68710  Biso   1.000  C
  C133     1.0000 0.85748  0.99379  0.18710  Biso   1.000  C
  C134     1.0000 0.14252  0.99379  0.31290  Biso   1.000  C
  C135     1.0000 0.35748  0.49379  0.18710  Biso   1.000  C
  C136     1.0000 0.64252  0.49379  0.31290  Biso   1.000  C
  H233     1.0000 0.14047  0.16738  0.84301  Biso   1.000  H
  H234     1.0000 0.85953  0.16738  0.65699  Biso   1.000  H
  H235     1.0000 0.64047  0.66738  0.84301  Biso   1.000  H
  H236     1.0000 0.35953  0.66738  0.65699  Biso   1.000  H
  H237     1.0000 0.85953  0.83262  0.15699  Biso   1.000  H
  H238     1.0000 0.14047  0.83262  0.34301  Biso   1.000  H
  H239     1.0000 0.35953  0.33262  0.15699  Biso   1.000  H
  H240     1.0000 0.64047  0.33262  0.34301  Biso   1.000  H
  H241     1.0000 0.14611  0.05705  0.75891  Biso   1.000  H
  H242     1.0000 0.85389  0.05705  0.74109  Biso   1.000  H
  H243     1.0000 0.64611  0.55705  0.75891  Biso   1.000  H
  H244     1.0000 0.35389  0.55705  0.74109  Biso   1.000  H
  H245     1.0000 0.85389  0.94295  0.24109  Biso   1.000  H
  H246     1.0000 0.14611  0.94295  0.25891  Biso   1.000  H
  H247     1.0000 0.35389  0.44295  0.24109  Biso   1.000  H
  H248     1.0000 0.64611  0.44295  0.25891  Biso   1.000  H
  C137     1.0000 0.12289  0.86087  0.80001  Biso   1.000  C
  C138     1.0000 0.87711  0.86087  0.69999  Biso   1.000  C
  C139     1.0000 0.62289  0.36087  0.80001  Biso   1.000  C
  C140     1.0000 0.37711  0.36087  0.69999  Biso   1.000  C
  C141     1.0000 0.87711  0.13913  0.19999  Biso   1.000  C
  C142     1.0000 0.12289  0.13913  0.30001  Biso   1.000  C
  C143     1.0000 0.37711  0.63913  0.19999  Biso   1.000  C
  C144     1.0000 0.62289  0.63913  0.30001  Biso   1.000  C
  H249     1.0000 0.11970  0.80407  0.85392  Biso   1.000  H
  H250     1.0000 0.88030  0.80407  0.64608  Biso   1.000  H
  H251     1.0000 0.61970  0.30407  0.85392  Biso   1.000  H
  H252     1.0000 0.38030  0.30407  0.64608  Biso   1.000  H
  H253     1.0000 0.88030  0.19593  0.14608  Biso   1.000  H
  H254     1.0000 0.11970  0.19593  0.35392  Biso   1.000  H
  H255     1.0000 0.38030  0.69593  0.14608  Biso   1.000  H
  H256     1.0000 0.61970  0.69593  0.35392  Biso   1.000  H
  H257     1.0000 0.12493  0.70292  0.76830  Biso   1.000  H
  H258     1.0000 0.87507  0.70292  0.73170  Biso   1.000  H
  H259     1.0000 0.62493  0.20292  0.76830  Biso   1.000  H
  H260     1.0000 0.37507  0.20292  0.73170  Biso   1.000  H
  H261     1.0000 0.87507  0.29708  0.23170  Biso   1.000  H
  H262     1.0000 0.12493  0.29708  0.26830  Biso   1.000  H
  H263     1.0000 0.37507  0.79708  0.23170  Biso   1.000  H
  H264     1.0000 0.62493  0.79708  0.26830  Biso   1.000  H
  C145     1.0000 0.10473  0.00237  0.75729  Biso   1.000  C
  C146     1.0000 0.89527  0.00237  0.74271  Biso   1.000  C
  C147     1.0000 0.60473  0.50237  0.75729  Biso   1.000  C
  C148     1.0000 0.39527  0.50237  0.74271  Biso   1.000  C
  C149     1.0000 0.89527  0.99763  0.24271  Biso   1.000  C
  C150     1.0000 0.10473  0.99763  0.25729  Biso   1.000  C
  C151     1.0000 0.39527  0.49763  0.24271  Biso   1.000  C
  C152     1.0000 0.60473  0.49763  0.25729  Biso   1.000  C
  H265     1.0000 0.10796  0.06336  0.70384  Biso   1.000  H
  H266     1.0000 0.89204  0.06336  0.79616  Biso   1.000  H
  H267     1.0000 0.60796  0.56336  0.70384  Biso   1.000  H
  H268     1.0000 0.39204  0.56336  0.79616  Biso   1.000  H
  H269     1.0000 0.89204  0.93664  0.29616  Biso   1.000  H
  H270     1.0000 0.10796  0.93664  0.20384  Biso   1.000  H
  H271     1.0000 0.39204  0.43664  0.29616  Biso   1.000  H
  H272     1.0000 0.60796  0.43664  0.20384  Biso   1.000  H
  H273     1.0000 0.10241  0.15842  0.78973  Biso   1.000  H
  H274     1.0000 0.89759  0.15842  0.71027  Biso   1.000  H
  H275     1.0000 0.60241  0.65842  0.78973  Biso   1.000  H
  H276     1.0000 0.39759  0.65842  0.71027  Biso   1.000  H
  H277     1.0000 0.89759  0.84158  0.21027  Biso   1.000  H
  H278     1.0000 0.10241  0.84158  0.28973  Biso   1.000  H
  H279     1.0000 0.39759  0.34158  0.21027  Biso   1.000  H
  H280     1.0000 0.60241  0.34158  0.28973  Biso   1.000  H
  C153     1.0000 0.08549  0.85179  0.74338  Biso   1.000  C
  C154     1.0000 0.91451  0.85179  0.75662  Biso   1.000  C
  C155     1.0000 0.58549  0.35179  0.74338  Biso   1.000  C
  C156     1.0000 0.41451  0.35179  0.75662  Biso   1.000  C
  C157     1.0000 0.91451  0.14821  0.25662  Biso   1.000  C
  C158     1.0000 0.08549  0.14821  0.24338  Biso   1.000  C
  C159     1.0000 0.41451  0.64821  0.25662  Biso   1.000  C
  C160     1.0000 0.58549  0.64821  0.24338  Biso   1.000  C
  H281     1.0000 0.08788  0.69521  0.71167  Biso   1.000  H
  H282     1.0000 0.91212  0.69521  0.78833  Biso   1.000  H
  H283     1.0000 0.58788  0.19521  0.71167  Biso   1.000  H
  H284     1.0000 0.41212  0.19521  0.78833  Biso   1.000  H
  H285     1.0000 0.91212  0.30479  0.28833  Biso   1.000  H
  H286     1.0000 0.08788  0.30479  0.21167  Biso   1.000  H
  H287     1.0000 0.41212  0.80479  0.28833  Biso   1.000  H
  H288     1.0000 0.58788  0.80479  0.21167  Biso   1.000  H
  H289     1.0000 0.08217  0.79281  0.79709  Biso   1.000  H
  H290     1.0000 0.91783  0.79281  0.70291  Biso   1.000  H
  H291     1.0000 0.58217  0.29281  0.79709  Biso   1.000  H
  H292     1.0000 0.41783  0.29281  0.70291  Biso   1.000  H
  H293     1.0000 0.91783  0.20719  0.20291  Biso   1.000  H
  H294     1.0000 0.08217  0.20719  0.29709  Biso   1.000  H
  H295     1.0000 0.41783  0.70719  0.20291  Biso   1.000  H
  H296     1.0000 0.58217  0.70719  0.29709  Biso   1.000  H
  C161     1.0000 0.06701  0.99026  0.69972  Biso   1.000  C
  C162     1.0000 0.93299  0.99026  0.80028  Biso   1.000  C
  C163     1.0000 0.56701  0.49026  0.69972  Biso   1.000  C
  C164     1.0000 0.43299  0.49026  0.80028  Biso   1.000  C
  C165     1.0000 0.93299  0.00974  0.30028  Biso   1.000  C
  C166     1.0000 0.06701  0.00974  0.19972  Biso   1.000  C
  C167     1.0000 0.43299  0.50974  0.30028  Biso   1.000  C
  C168     1.0000 0.56701  0.50974  0.19972  Biso   1.000  C
  H297     1.0000 0.07042  0.05067  0.64653  Biso   1.000  H
  H298     1.0000 0.92958  0.05067  0.85347  Biso   1.000  H
  H299     1.0000 0.57042  0.55067  0.64653  Biso   1.000  H
  H300     1.0000 0.42958  0.55067  0.85347  Biso   1.000  H
  H301     1.0000 0.92958  0.94933  0.35347  Biso   1.000  H
  H302     1.0000 0.07042  0.94933  0.14653  Biso   1.000  H
  H303     1.0000 0.42958  0.44933  0.35347  Biso   1.000  H
  H304     1.0000 0.57042  0.44933  0.14653  Biso   1.000  H
  H305     1.0000 0.06461  0.14609  0.73187  Biso   1.000  H
  H306     1.0000 0.93539  0.14609  0.76813  Biso   1.000  H
  H307     1.0000 0.56461  0.64609  0.73187  Biso   1.000  H
  H308     1.0000 0.43539  0.64609  0.76813  Biso   1.000  H
  H309     1.0000 0.93539  0.85391  0.26813  Biso   1.000  H
  H310     1.0000 0.06461  0.85391  0.23187  Biso   1.000  H
  H311     1.0000 0.43539  0.35391  0.26813  Biso   1.000  H
  H312     1.0000 0.56461  0.35391  0.23187  Biso   1.000  H
  C169     1.0000 0.04740  0.84353  0.68428  Biso   1.000  C
  C170     1.0000 0.95260  0.84353  0.81572  Biso   1.000  C
  C171     1.0000 0.54740  0.34353  0.68428  Biso   1.000  C
  C172     1.0000 0.45260  0.34353  0.81572  Biso   1.000  C
  C173     1.0000 0.95260  0.15647  0.31572  Biso   1.000  C
  C174     1.0000 0.04740  0.15647  0.18428  Biso   1.000  C
  C175     1.0000 0.45260  0.65647  0.31572  Biso   1.000  C
  C176     1.0000 0.54740  0.65647  0.18428  Biso   1.000  C
  H313     1.0000 0.04188  0.81964  0.73569  Biso   1.000  H
  H314     1.0000 0.95812  0.81964  0.76431  Biso   1.000  H
  H315     1.0000 0.54188  0.31964  0.73569  Biso   1.000  H
  H316     1.0000 0.45812  0.31964  0.76431  Biso   1.000  H
  H317     1.0000 0.95812  0.18036  0.26431  Biso   1.000  H
  H318     1.0000 0.04188  0.18036  0.23569  Biso   1.000  H
  H319     1.0000 0.45812  0.68036  0.26431  Biso   1.000  H
  H320     1.0000 0.54188  0.68036  0.23569  Biso   1.000  H
  H321     1.0000 0.04977  0.67360  0.66081  Biso   1.000  H
  H322     1.0000 0.95023  0.67360  0.83919  Biso   1.000  H
  H323     1.0000 0.54977  0.17360  0.66081  Biso   1.000  H
  H324     1.0000 0.45023  0.17360  0.83919  Biso   1.000  H
  H325     1.0000 0.95023  0.32640  0.33919  Biso   1.000  H
  H326     1.0000 0.04977  0.32640  0.16081  Biso   1.000  H
  H327     1.0000 0.45023  0.82640  0.33919  Biso   1.000  H
  H328     1.0000 0.54977  0.82640  0.16081  Biso   1.000  H
  C177     1.0000 0.03215  0.99881  0.62360  Biso   1.000  C
  C178     1.0000 0.96785  0.99881  0.87640  Biso   1.000  C
  C179     1.0000 0.53215  0.49881  0.62360  Biso   1.000  C
  C180     1.0000 0.46785  0.49881  0.87640  Biso   1.000  C
  C181     1.0000 0.96785  0.00119  0.37640  Biso   1.000  C
  C182     1.0000 0.03215  0.00119  0.12360  Biso   1.000  C
  C183     1.0000 0.46785  0.50119  0.37640  Biso   1.000  C
  C184     1.0000 0.53215  0.50119  0.12360  Biso   1.000  C
  H329     1.0000 0.03840  0.02504  0.56513  Biso   1.000  H
  H330     1.0000 0.96160  0.02504  0.93487  Biso   1.000  H
  H331     1.0000 0.53840  0.52504  0.56513  Biso   1.000  H
  H332     1.0000 0.46160  0.52504  0.93487  Biso   1.000  H
  H333     1.0000 0.96160  0.97496  0.43487  Biso   1.000  H
  H334     1.0000 0.03840  0.97496  0.06513  Biso   1.000  H
  H335     1.0000 0.46160  0.47496  0.43487  Biso   1.000  H
  H336     1.0000 0.53840  0.47496  0.06513  Biso   1.000  H
  H337     1.0000 0.02944  0.19173  0.65006  Biso   1.000  H
  H338     1.0000 0.97056  0.19173  0.84994  Biso   1.000  H
  H339     1.0000 0.52944  0.69173  0.65006  Biso   1.000  H
  H340     1.0000 0.47056  0.69173  0.84994  Biso   1.000  H
  H341     1.0000 0.97056  0.80827  0.34994  Biso   1.000  H
  H342     1.0000 0.02944  0.80827  0.15006  Biso   1.000  H
  H343     1.0000 0.47056  0.30827  0.34994  Biso   1.000  H
  H344     1.0000 0.52944  0.30827  0.15006  Biso   1.000  H
  C185     1.0000 0.01193  0.84646  0.60787  Biso   1.000  C
  C186     1.0000 0.98807  0.84646  0.89213  Biso   1.000  C
  C187     1.0000 0.51193  0.34646  0.60787  Biso   1.000  C
  C188     1.0000 0.48807  0.34646  0.89213  Biso   1.000  C
  C189     1.0000 0.98807  0.15354  0.39213  Biso   1.000  C
  C190     1.0000 0.01193  0.15354  0.10787  Biso   1.000  C
  C191     1.0000 0.48807  0.65354  0.39213  Biso   1.000  C
  C192     1.0000 0.51193  0.65354  0.10787  Biso   1.000  C
  H345     1.0000 0.01476  0.65062  0.58379  Biso   1.000  H
  H346     1.0000 0.98524  0.65062  0.91621  Biso   1.000  H
  H347     1.0000 0.51476  0.15062  0.58379  Biso   1.000  H
  H348     1.0000 0.48524  0.15062  0.91621  Biso   1.000  H
  H349     1.0000 0.98524  0.34938  0.41621  Biso   1.000  H
  H350     1.0000 0.01476  0.34938  0.08379  Biso   1.000  H
  H351     1.0000 0.48524  0.84938  0.41621  Biso   1.000  H
  H352     1.0000 0.51476  0.84938  0.08379  Biso   1.000  H
  H353     1.0000 0.00511  0.83335  0.66549  Biso   1.000  H
  H354     1.0000 0.99489  0.83335  0.83451  Biso   1.000  H
  H355     1.0000 0.50511  0.33335  0.66549  Biso   1.000  H
  H356     1.0000 0.49489  0.33335  0.83451  Biso   1.000  H
  H357     1.0000 0.99489  0.16665  0.33451  Biso   1.000  H
  H358     1.0000 0.00511  0.16665  0.16549  Biso   1.000  H
  H359     1.0000 0.49489  0.66665  0.33451  Biso   1.000  H
  H360     1.0000 0.50511  0.66665  0.16549  Biso   1.000  H
  H361     1.0000 0.00123  0.95374  0.56303  Biso   1.000  H
  H362     1.0000 0.99877  0.95374  0.93697  Biso   1.000  H
  H363     1.0000 0.50123  0.45374  0.56303  Biso   1.000  H
  H364     1.0000 0.49877  0.45374  0.93697  Biso   1.000  H
  H365     1.0000 0.99877  0.04626  0.43697  Biso   1.000  H
  H366     1.0000 0.00123  0.04626  0.06303  Biso   1.000  H
  H367     1.0000 0.49877  0.54626  0.43697  Biso   1.000  H
  H368     1.0000 0.50123  0.54626  0.06303  Biso   1.000  H
