data_image0
_cell_length_a       60.548
_cell_length_b       5.06398
_cell_length_c       16.2467
_cell_angle_alpha    90
_cell_angle_beta     96.85
_cell_angle_gamma    90

_symmetry_space_group_name_H-M    "P 1"
_symmetry_int_tables_number       1

loop_
  _symmetry_equiv_pos_as_xyz
  'x, y, z'

loop_
  _atom_site_label
  _atom_site_occupancy
  _atom_site_fract_x
  _atom_site_fract_y
  _atom_site_fract_z
  _atom_site_thermal_displace_type
  _atom_site_B_iso_or_equiv
  _atom_site_type_symbol
  Cu1      1.0000 0.23767  0.46820  0.97191  Biso   1.000  Cu
  Cu2      1.0000 0.76233  0.46820  0.52809  Biso   1.000  Cu
  Cu3      1.0000 0.73767  0.96820  0.97191  Biso   1.000  Cu
  Cu4      1.0000 0.26233  0.96820  0.52809  Biso   1.000  Cu
  Cu5      1.0000 0.76233  0.53180  0.02809  Biso   1.000  Cu
  Cu6      1.0000 0.23767  0.53180  0.47191  Biso   1.000  Cu
  Cu7      1.0000 0.26233  0.03180  0.02809  Biso   1.000  Cu
  Cu8      1.0000 0.73767  0.03180  0.47191  Biso   1.000  Cu
  O1       1.0000 0.22548  0.44993  0.07791  Biso   1.000  O
  O2       1.0000 0.77452  0.44993  0.42209  Biso   1.000  O
  O3       1.0000 0.72548  0.94993  0.07791  Biso   1.000  O
  O4       1.0000 0.27452  0.94993  0.42209  Biso   1.000  O
  O5       1.0000 0.77452  0.55007  0.92209  Biso   1.000  O
  O6       1.0000 0.22548  0.55007  0.57791  Biso   1.000  O
  O7       1.0000 0.27452  0.05007  0.92209  Biso   1.000  O
  O8       1.0000 0.72548  0.05007  0.57791  Biso   1.000  O
  O9       1.0000 0.24238  0.07792  0.12106  Biso   1.000  O
  O10      1.0000 0.75762  0.07792  0.37894  Biso   1.000  O
  O11      1.0000 0.74238  0.57792  0.12106  Biso   1.000  O
  O12      1.0000 0.25762  0.57792  0.37894  Biso   1.000  O
  O13      1.0000 0.75762  0.92208  0.87894  Biso   1.000  O
  O14      1.0000 0.24238  0.92208  0.62106  Biso   1.000  O
  O15      1.0000 0.25762  0.42208  0.87894  Biso   1.000  O
  O16      1.0000 0.74238  0.42208  0.62106  Biso   1.000  O
  C1       1.0000 0.23019  0.26838  0.12827  Biso   1.000  C
  C2       1.0000 0.76981  0.26838  0.37173  Biso   1.000  C
  C3       1.0000 0.73019  0.76838  0.12827  Biso   1.000  C
  C4       1.0000 0.26981  0.76838  0.37173  Biso   1.000  C
  C5       1.0000 0.76981  0.73162  0.87173  Biso   1.000  C
  C6       1.0000 0.23019  0.73162  0.62827  Biso   1.000  C
  C7       1.0000 0.26981  0.23162  0.87173  Biso   1.000  C
  C8       1.0000 0.73019  0.23162  0.62827  Biso   1.000  C
  C9       1.0000 0.21868  0.28284  0.20659  Biso   1.000  C
  C10      1.0000 0.78132  0.28284  0.29341  Biso   1.000  C
  C11      1.0000 0.71868  0.78284  0.20659  Biso   1.000  C
  C12      1.0000 0.28132  0.78284  0.29341  Biso   1.000  C
  C13      1.0000 0.78132  0.71716  0.79341  Biso   1.000  C
  C14      1.0000 0.21868  0.71716  0.70659  Biso   1.000  C
  C15      1.0000 0.28132  0.21716  0.79341  Biso   1.000  C
  C16      1.0000 0.71868  0.21716  0.70659  Biso   1.000  C
  H1       1.0000 0.22896  0.35687  0.25102  Biso   1.000  H
  H2       1.0000 0.77104  0.35687  0.24898  Biso   1.000  H
  H3       1.0000 0.72896  0.85687  0.25102  Biso   1.000  H
  H4       1.0000 0.27104  0.85687  0.24898  Biso   1.000  H
  H5       1.0000 0.77104  0.64313  0.74898  Biso   1.000  H
  H6       1.0000 0.22896  0.64313  0.75102  Biso   1.000  H
  H7       1.0000 0.27104  0.14313  0.74898  Biso   1.000  H
  H8       1.0000 0.72896  0.14313  0.75102  Biso   1.000  H
  H9       1.0000 0.21509  0.10500  0.22271  Biso   1.000  H
  H10      1.0000 0.78491  0.10500  0.27729  Biso   1.000  H
  H11      1.0000 0.71509  0.60500  0.22271  Biso   1.000  H
  H12      1.0000 0.28491  0.60500  0.27729  Biso   1.000  H
  H13      1.0000 0.78491  0.89500  0.77729  Biso   1.000  H
  H14      1.0000 0.21509  0.89500  0.72271  Biso   1.000  H
  H15      1.0000 0.28491  0.39500  0.77729  Biso   1.000  H
  H16      1.0000 0.71509  0.39500  0.72271  Biso   1.000  H
  C17      1.0000 0.19739  0.44900  0.19686  Biso   1.000  C
  C18      1.0000 0.80261  0.44900  0.30314  Biso   1.000  C
  C19      1.0000 0.69739  0.94900  0.19686  Biso   1.000  C
  C20      1.0000 0.30261  0.94900  0.30314  Biso   1.000  C
  C21      1.0000 0.80261  0.55100  0.80314  Biso   1.000  C
  C22      1.0000 0.19739  0.55100  0.69686  Biso   1.000  C
  C23      1.0000 0.30261  0.05100  0.80314  Biso   1.000  C
  C24      1.0000 0.69739  0.05100  0.69686  Biso   1.000  C
  H17      1.0000 0.20080  0.62159  0.17554  Biso   1.000  H
  H18      1.0000 0.79920  0.62159  0.32446  Biso   1.000  H
  H19      1.0000 0.70080  0.12159  0.17554  Biso   1.000  H
  H20      1.0000 0.29920  0.12159  0.32446  Biso   1.000  H
  H21      1.0000 0.79920  0.37841  0.82446  Biso   1.000  H
  H22      1.0000 0.20080  0.37841  0.67554  Biso   1.000  H
  H23      1.0000 0.29920  0.87841  0.82446  Biso   1.000  H
  H24      1.0000 0.70080  0.87841  0.67554  Biso   1.000  H
  H25      1.0000 0.19254  0.47470  0.25104  Biso   1.000  H
  H26      1.0000 0.80746  0.47470  0.24896  Biso   1.000  H
  H27      1.0000 0.69254  0.97470  0.25104  Biso   1.000  H
  H28      1.0000 0.30746  0.97470  0.24896  Biso   1.000  H
  H29      1.0000 0.80746  0.52530  0.74896  Biso   1.000  H
  H30      1.0000 0.19254  0.52530  0.75104  Biso   1.000  H
  H31      1.0000 0.30746  0.02530  0.74896  Biso   1.000  H
  H32      1.0000 0.69254  0.02530  0.75104  Biso   1.000  H
  C25      1.0000 0.17841  0.32882  0.13969  Biso   1.000  C
  C26      1.0000 0.82159  0.32882  0.36031  Biso   1.000  C
  C27      1.0000 0.67841  0.82882  0.13969  Biso   1.000  C
  C28      1.0000 0.32159  0.82882  0.36031  Biso   1.000  C
  C29      1.0000 0.82159  0.67118  0.86031  Biso   1.000  C
  C30      1.0000 0.17841  0.67118  0.63969  Biso   1.000  C
  C31      1.0000 0.32159  0.17118  0.86031  Biso   1.000  C
  C32      1.0000 0.67841  0.17118  0.63969  Biso   1.000  C
  H33      1.0000 0.18356  0.29424  0.08639  Biso   1.000  H
  H34      1.0000 0.81644  0.29424  0.41361  Biso   1.000  H
  H35      1.0000 0.68356  0.79424  0.08639  Biso   1.000  H
  H36      1.0000 0.31644  0.79424  0.41361  Biso   1.000  H
  H37      1.0000 0.81644  0.70576  0.91361  Biso   1.000  H
  H38      1.0000 0.18356  0.70576  0.58639  Biso   1.000  H
  H39      1.0000 0.31644  0.20576  0.91361  Biso   1.000  H
  H40      1.0000 0.68356  0.20576  0.58639  Biso   1.000  H
  H41      1.0000 0.17455  0.16023  0.16262  Biso   1.000  H
  H42      1.0000 0.82545  0.16023  0.33738  Biso   1.000  H
  H43      1.0000 0.67455  0.66023  0.16262  Biso   1.000  H
  H44      1.0000 0.32545  0.66023  0.33738  Biso   1.000  H
  H45      1.0000 0.82545  0.83977  0.83738  Biso   1.000  H
  H46      1.0000 0.17455  0.83977  0.66262  Biso   1.000  H
  H47      1.0000 0.32545  0.33977  0.83738  Biso   1.000  H
  H48      1.0000 0.67455  0.33977  0.66262  Biso   1.000  H
  C33      1.0000 0.15848  0.48951  0.12630  Biso   1.000  C
  C34      1.0000 0.84152  0.48951  0.37370  Biso   1.000  C
  C35      1.0000 0.65848  0.98951  0.12630  Biso   1.000  C
  C36      1.0000 0.34152  0.98951  0.37370  Biso   1.000  C
  C37      1.0000 0.84152  0.51049  0.87370  Biso   1.000  C
  C38      1.0000 0.15848  0.51049  0.62630  Biso   1.000  C
  C39      1.0000 0.34152  0.01049  0.87370  Biso   1.000  C
  C40      1.0000 0.65848  0.01049  0.62630  Biso   1.000  C
  H49      1.0000 0.16215  0.65429  0.10073  Biso   1.000  H
  H50      1.0000 0.83785  0.65429  0.39927  Biso   1.000  H
  H51      1.0000 0.66215  0.15429  0.10073  Biso   1.000  H
  H52      1.0000 0.33785  0.15429  0.39927  Biso   1.000  H
  H53      1.0000 0.83785  0.34571  0.89927  Biso   1.000  H
  H54      1.0000 0.16215  0.34571  0.60073  Biso   1.000  H
  H55      1.0000 0.33785  0.84571  0.89927  Biso   1.000  H
  H56      1.0000 0.66215  0.84571  0.60073  Biso   1.000  H
  H57      1.0000 0.15386  0.53217  0.17982  Biso   1.000  H
  H58      1.0000 0.84614  0.53217  0.32018  Biso   1.000  H
  H59      1.0000 0.65386  0.03217  0.17982  Biso   1.000  H
  H60      1.0000 0.34614  0.03217  0.32018  Biso   1.000  H
  H61      1.0000 0.84614  0.46783  0.82018  Biso   1.000  H
  H62      1.0000 0.15386  0.46783  0.67982  Biso   1.000  H
  H63      1.0000 0.34614  0.96783  0.82018  Biso   1.000  H
  H64      1.0000 0.65386  0.96783  0.67982  Biso   1.000  H
  C41      1.0000 0.13875  0.36490  0.07252  Biso   1.000  C
  C42      1.0000 0.86125  0.36490  0.42748  Biso   1.000  C
  C43      1.0000 0.63875  0.86490  0.07252  Biso   1.000  C
  C44      1.0000 0.36125  0.86490  0.42748  Biso   1.000  C
  C45      1.0000 0.86125  0.63510  0.92748  Biso   1.000  C
  C46      1.0000 0.13875  0.63510  0.57252  Biso   1.000  C
  C47      1.0000 0.36125  0.13510  0.92748  Biso   1.000  C
  C48      1.0000 0.63875  0.13510  0.57252  Biso   1.000  C
  H65      1.0000 0.14345  0.32460  0.01884  Biso   1.000  H
  H66      1.0000 0.85655  0.32460  0.48116  Biso   1.000  H
  H67      1.0000 0.64345  0.82460  0.01884  Biso   1.000  H
  H68      1.0000 0.35655  0.82460  0.48116  Biso   1.000  H
  H69      1.0000 0.85655  0.67540  0.98116  Biso   1.000  H
  H70      1.0000 0.14345  0.67540  0.51884  Biso   1.000  H
  H71      1.0000 0.35655  0.17540  0.98116  Biso   1.000  H
  H72      1.0000 0.64345  0.17540  0.51884  Biso   1.000  H
  H73      1.0000 0.13535  0.19891  0.09771  Biso   1.000  H
  H74      1.0000 0.86465  0.19891  0.40229  Biso   1.000  H
  H75      1.0000 0.63535  0.69891  0.09771  Biso   1.000  H
  H76      1.0000 0.36465  0.69891  0.40229  Biso   1.000  H
  H77      1.0000 0.86465  0.80109  0.90229  Biso   1.000  H
  H78      1.0000 0.13535  0.80109  0.59771  Biso   1.000  H
  H79      1.0000 0.36465  0.30109  0.90229  Biso   1.000  H
  H80      1.0000 0.63535  0.30109  0.59771  Biso   1.000  H
  C49      1.0000 0.11773  0.52264  0.05797  Biso   1.000  C
  C50      1.0000 0.88227  0.52264  0.44203  Biso   1.000  C
  C51      1.0000 0.61773  0.02264  0.05797  Biso   1.000  C
  C52      1.0000 0.38227  0.02264  0.44203  Biso   1.000  C
  C53      1.0000 0.88227  0.47736  0.94203  Biso   1.000  C
  C54      1.0000 0.11773  0.47736  0.55797  Biso   1.000  C
  C55      1.0000 0.38227  0.97736  0.94203  Biso   1.000  C
  C56      1.0000 0.61773  0.97736  0.55797  Biso   1.000  C
  H81      1.0000 0.12080  0.68442  0.02949  Biso   1.000  H
  H82      1.0000 0.87920  0.68442  0.47051  Biso   1.000  H
  H83      1.0000 0.62080  0.18442  0.02949  Biso   1.000  H
  H84      1.0000 0.37920  0.18442  0.47051  Biso   1.000  H
  H85      1.0000 0.87920  0.31558  0.97051  Biso   1.000  H
  H86      1.0000 0.12080  0.31558  0.52949  Biso   1.000  H
  H87      1.0000 0.37920  0.81558  0.97051  Biso   1.000  H
  H88      1.0000 0.62080  0.81558  0.52949  Biso   1.000  H
  H89      1.0000 0.11332  0.57141  0.11143  Biso   1.000  H
  H90      1.0000 0.88668  0.57141  0.38857  Biso   1.000  H
  H91      1.0000 0.61332  0.07141  0.11143  Biso   1.000  H
  H92      1.0000 0.38668  0.07141  0.38857  Biso   1.000  H
  H93      1.0000 0.88668  0.42859  0.88857  Biso   1.000  H
  H94      1.0000 0.11332  0.42859  0.61143  Biso   1.000  H
  H95      1.0000 0.38668  0.92859  0.88857  Biso   1.000  H
  H96      1.0000 0.61332  0.92859  0.61143  Biso   1.000  H
  C57      1.0000 0.09871  0.38408  0.00887  Biso   1.000  C
  C58      1.0000 0.90129  0.38408  0.49113  Biso   1.000  C
  C59      1.0000 0.59871  0.88408  0.00887  Biso   1.000  C
  C60      1.0000 0.40129  0.88408  0.49113  Biso   1.000  C
  C61      1.0000 0.90129  0.61592  0.99113  Biso   1.000  C
  C62      1.0000 0.09871  0.61592  0.50887  Biso   1.000  C
  C63      1.0000 0.40129  0.11592  0.99113  Biso   1.000  C
  C64      1.0000 0.59871  0.11592  0.50887  Biso   1.000  C
  H97      1.0000 0.09624  0.21610  0.03496  Biso   1.000  H
  H98      1.0000 0.90376  0.21610  0.46504  Biso   1.000  H
  H99      1.0000 0.59624  0.71610  0.03496  Biso   1.000  H
  H100     1.0000 0.40376  0.71610  0.46504  Biso   1.000  H
  H101     1.0000 0.90376  0.78390  0.96504  Biso   1.000  H
  H102     1.0000 0.09624  0.78390  0.53496  Biso   1.000  H
  H103     1.0000 0.40376  0.28390  0.96504  Biso   1.000  H
  H104     1.0000 0.59624  0.28390  0.53496  Biso   1.000  H
  H105     1.0000 0.10252  0.34852  0.95365  Biso   1.000  H
  H106     1.0000 0.89748  0.34852  0.54635  Biso   1.000  H
  H107     1.0000 0.60252  0.84852  0.95365  Biso   1.000  H
  H108     1.0000 0.39748  0.84852  0.54635  Biso   1.000  H
  H109     1.0000 0.89748  0.65148  0.04635  Biso   1.000  H
  H110     1.0000 0.10252  0.65148  0.45365  Biso   1.000  H
  H111     1.0000 0.39748  0.15148  0.04635  Biso   1.000  H
  H112     1.0000 0.60252  0.15148  0.45365  Biso   1.000  H
  C65      1.0000 0.07745  0.53904  0.00134  Biso   1.000  C
  C66      1.0000 0.92255  0.53904  0.49866  Biso   1.000  C
  C67      1.0000 0.57745  0.03904  0.00134  Biso   1.000  C
  C68      1.0000 0.42255  0.03904  0.49866  Biso   1.000  C
  C69      1.0000 0.92255  0.46096  0.99866  Biso   1.000  C
  C70      1.0000 0.07745  0.46096  0.50134  Biso   1.000  C
  C71      1.0000 0.42255  0.96096  0.99866  Biso   1.000  C
  C72      1.0000 0.57745  0.96096  0.50134  Biso   1.000  C
  H113     1.0000 0.07310  0.56947  0.05620  Biso   1.000  H
  H114     1.0000 0.92690  0.56947  0.44380  Biso   1.000  H
  H115     1.0000 0.57310  0.06947  0.05620  Biso   1.000  H
  H116     1.0000 0.42690  0.06947  0.44380  Biso   1.000  H
  H117     1.0000 0.92690  0.43053  0.94380  Biso   1.000  H
  H118     1.0000 0.07310  0.43053  0.55620  Biso   1.000  H
  H119     1.0000 0.42690  0.93053  0.94380  Biso   1.000  H
  H120     1.0000 0.57310  0.93053  0.55620  Biso   1.000  H
  H121     1.0000 0.07982  0.71001  0.97678  Biso   1.000  H
  H122     1.0000 0.92018  0.71001  0.52322  Biso   1.000  H
  H123     1.0000 0.57982  0.21001  0.97678  Biso   1.000  H
  H124     1.0000 0.42018  0.21001  0.52322  Biso   1.000  H
  H125     1.0000 0.92018  0.28999  0.02322  Biso   1.000  H
  H126     1.0000 0.07982  0.28999  0.47678  Biso   1.000  H
  H127     1.0000 0.42018  0.78999  0.02322  Biso   1.000  H
  H128     1.0000 0.57982  0.78999  0.47678  Biso   1.000  H
  C73      1.0000 0.05891  0.39741  0.94886  Biso   1.000  C
  C74      1.0000 0.94109  0.39741  0.55114  Biso   1.000  C
  C75      1.0000 0.55891  0.89741  0.94886  Biso   1.000  C
  C76      1.0000 0.44109  0.89741  0.55114  Biso   1.000  C
  C77      1.0000 0.94109  0.60259  0.05114  Biso   1.000  C
  C78      1.0000 0.05891  0.60259  0.44886  Biso   1.000  C
  C79      1.0000 0.44109  0.10259  0.05114  Biso   1.000  C
  C80      1.0000 0.55891  0.10259  0.44886  Biso   1.000  C
  H129     1.0000 0.05683  0.22600  0.97204  Biso   1.000  H
  H130     1.0000 0.94317  0.22600  0.52796  Biso   1.000  H
  H131     1.0000 0.55683  0.72600  0.97204  Biso   1.000  H
  H132     1.0000 0.44317  0.72600  0.52796  Biso   1.000  H
  H133     1.0000 0.94317  0.77400  0.02796  Biso   1.000  H
  H134     1.0000 0.05683  0.77400  0.47204  Biso   1.000  H
  H135     1.0000 0.44317  0.27400  0.02796  Biso   1.000  H
  H136     1.0000 0.55683  0.27400  0.47204  Biso   1.000  H
  H137     1.0000 0.06271  0.37805  0.89349  Biso   1.000  H
  H138     1.0000 0.93729  0.37805  0.60651  Biso   1.000  H
  H139     1.0000 0.56271  0.87805  0.89349  Biso   1.000  H
  H140     1.0000 0.43729  0.87805  0.60651  Biso   1.000  H
  H141     1.0000 0.93729  0.62195  0.10651  Biso   1.000  H
  H142     1.0000 0.06271  0.62195  0.39349  Biso   1.000  H
  H143     1.0000 0.43729  0.12195  0.10651  Biso   1.000  H
  H144     1.0000 0.56271  0.12195  0.39349  Biso   1.000  H
  C81      1.0000 0.03740  0.55685  0.94709  Biso   1.000  C
  C82      1.0000 0.96260  0.55685  0.55291  Biso   1.000  C
  C83      1.0000 0.53740  0.05685  0.94709  Biso   1.000  C
  C84      1.0000 0.46260  0.05685  0.55291  Biso   1.000  C
  C85      1.0000 0.96260  0.44315  0.05291  Biso   1.000  C
  C86      1.0000 0.03740  0.44315  0.44709  Biso   1.000  C
  C87      1.0000 0.46260  0.94315  0.05291  Biso   1.000  C
  C88      1.0000 0.53740  0.94315  0.44709  Biso   1.000  C
  H145     1.0000 0.03976  0.75149  0.92085  Biso   1.000  H
  H146     1.0000 0.96024  0.75149  0.57915  Biso   1.000  H
  H147     1.0000 0.53976  0.25149  0.92085  Biso   1.000  H
  H148     1.0000 0.46024  0.25149  0.57915  Biso   1.000  H
  H149     1.0000 0.96024  0.24851  0.07915  Biso   1.000  H
  H150     1.0000 0.03976  0.24851  0.42085  Biso   1.000  H
  H151     1.0000 0.46024  0.74851  0.07915  Biso   1.000  H
  H152     1.0000 0.53976  0.74851  0.42085  Biso   1.000  H
  H153     1.0000 0.03312  0.57837  0.01003  Biso   1.000  H
  H154     1.0000 0.96688  0.57837  0.48997  Biso   1.000  H
  H155     1.0000 0.53312  0.07837  0.01003  Biso   1.000  H
  H156     1.0000 0.46688  0.07837  0.48997  Biso   1.000  H
  H157     1.0000 0.96688  0.42163  0.98997  Biso   1.000  H
  H158     1.0000 0.03312  0.42163  0.51003  Biso   1.000  H
  H159     1.0000 0.46688  0.92163  0.98997  Biso   1.000  H
  H160     1.0000 0.53312  0.92163  0.51003  Biso   1.000  H
  H161     1.0000 0.02403  0.45425  0.90914  Biso   1.000  H
  H162     1.0000 0.97597  0.45425  0.59086  Biso   1.000  H
  H163     1.0000 0.52403  0.95425  0.90914  Biso   1.000  H
  H164     1.0000 0.47597  0.95425  0.59086  Biso   1.000  H
  H165     1.0000 0.97597  0.54575  0.09086  Biso   1.000  H
  H166     1.0000 0.02403  0.54575  0.40914  Biso   1.000  H
  H167     1.0000 0.47597  0.04575  0.09086  Biso   1.000  H
  H168     1.0000 0.52403  0.04575  0.40914  Biso   1.000  H
  O17      1.0000 0.21219  0.25923  0.92433  Biso   1.000  O
  O18      1.0000 0.78781  0.25923  0.57567  Biso   1.000  O
  O19      1.0000 0.71219  0.75923  0.92433  Biso   1.000  O
  O20      1.0000 0.28781  0.75923  0.57567  Biso   1.000  O
  O21      1.0000 0.78781  0.74077  0.07567  Biso   1.000  O
  O22      1.0000 0.21219  0.74077  0.42433  Biso   1.000  O
  O23      1.0000 0.28781  0.24077  0.07567  Biso   1.000  O
  O24      1.0000 0.71219  0.24077  0.42433  Biso   1.000  O
  O25      1.0000 0.22866  0.88299  0.96290  Biso   1.000  O
  O26      1.0000 0.77134  0.88299  0.53710  Biso   1.000  O
  O27      1.0000 0.72866  0.38299  0.96290  Biso   1.000  O
  O28      1.0000 0.27134  0.38299  0.53710  Biso   1.000  O
  O29      1.0000 0.77134  0.11701  0.03710  Biso   1.000  O
  O30      1.0000 0.22866  0.11701  0.46290  Biso   1.000  O
  O31      1.0000 0.27134  0.61701  0.03710  Biso   1.000  O
  O32      1.0000 0.72866  0.61701  0.46290  Biso   1.000  O
  C89      1.0000 0.21150  0.01657  0.93470  Biso   1.000  C
  C90      1.0000 0.78850  0.01657  0.56530  Biso   1.000  C
  C91      1.0000 0.71150  0.51657  0.93470  Biso   1.000  C
  C92      1.0000 0.28850  0.51657  0.56530  Biso   1.000  C
  C93      1.0000 0.78850  0.98343  0.06530  Biso   1.000  C
  C94      1.0000 0.21150  0.98343  0.43470  Biso   1.000  C
  C95      1.0000 0.28850  0.48343  0.06530  Biso   1.000  C
  C96      1.0000 0.71150  0.48343  0.43470  Biso   1.000  C
  C97      1.0000 0.19063  0.86819  0.91121  Biso   1.000  C
  C98      1.0000 0.80937  0.86819  0.58879  Biso   1.000  C
  C99      1.0000 0.69063  0.36819  0.91121  Biso   1.000  C
  C100     1.0000 0.30937  0.36819  0.58879  Biso   1.000  C
  C101     1.0000 0.80937  0.13181  0.08879  Biso   1.000  C
  C102     1.0000 0.19063  0.13181  0.41121  Biso   1.000  C
  C103     1.0000 0.30937  0.63181  0.08879  Biso   1.000  C
  C104     1.0000 0.69063  0.63181  0.41121  Biso   1.000  C
  H169     1.0000 0.18592  0.79228  0.96105  Biso   1.000  H
  H170     1.0000 0.81408  0.79228  0.53895  Biso   1.000  H
  H171     1.0000 0.68592  0.29228  0.96105  Biso   1.000  H
  H172     1.0000 0.31408  0.29228  0.53895  Biso   1.000  H
  H173     1.0000 0.81408  0.20772  0.03895  Biso   1.000  H
  H174     1.0000 0.18592  0.20772  0.46105  Biso   1.000  H
  H175     1.0000 0.31408  0.70772  0.03895  Biso   1.000  H
  H176     1.0000 0.68592  0.70772  0.46105  Biso   1.000  H
  H177     1.0000 0.19385  0.72289  0.87554  Biso   1.000  H
  H178     1.0000 0.80615  0.72289  0.62446  Biso   1.000  H
  H179     1.0000 0.69385  0.22289  0.87554  Biso   1.000  H
  H180     1.0000 0.30615  0.22289  0.62446  Biso   1.000  H
  H181     1.0000 0.80615  0.27711  0.12446  Biso   1.000  H
  H182     1.0000 0.19385  0.27711  0.37554  Biso   1.000  H
  H183     1.0000 0.30615  0.77711  0.12446  Biso   1.000  H
  H184     1.0000 0.69385  0.77711  0.37554  Biso   1.000  H
  C105     1.0000 0.17173  0.02146  0.86813  Biso   1.000  C
  C106     1.0000 0.82827  0.02146  0.63187  Biso   1.000  C
  C107     1.0000 0.67173  0.52146  0.86813  Biso   1.000  C
  C108     1.0000 0.32827  0.52146  0.63187  Biso   1.000  C
  C109     1.0000 0.82827  0.97854  0.13187  Biso   1.000  C
  C110     1.0000 0.17173  0.97854  0.36813  Biso   1.000  C
  C111     1.0000 0.32827  0.47854  0.13187  Biso   1.000  C
  C112     1.0000 0.67173  0.47854  0.36813  Biso   1.000  C
  H185     1.0000 0.16922  0.17537  0.90141  Biso   1.000  H
  H186     1.0000 0.83078  0.17537  0.59859  Biso   1.000  H
  H187     1.0000 0.66922  0.67537  0.90141  Biso   1.000  H
  H188     1.0000 0.33078  0.67537  0.59859  Biso   1.000  H
  H189     1.0000 0.83078  0.82463  0.09859  Biso   1.000  H
  H190     1.0000 0.16922  0.82463  0.40141  Biso   1.000  H
  H191     1.0000 0.33078  0.32463  0.09859  Biso   1.000  H
  H192     1.0000 0.66922  0.32463  0.40141  Biso   1.000  H
  H193     1.0000 0.17576  0.08332  0.81555  Biso   1.000  H
  H194     1.0000 0.82424  0.08332  0.68445  Biso   1.000  H
  H195     1.0000 0.67576  0.58332  0.81555  Biso   1.000  H
  H196     1.0000 0.32424  0.58332  0.68445  Biso   1.000  H
  H197     1.0000 0.82424  0.91668  0.18445  Biso   1.000  H
  H198     1.0000 0.17576  0.91668  0.31555  Biso   1.000  H
  H199     1.0000 0.32424  0.41668  0.18445  Biso   1.000  H
  H200     1.0000 0.67576  0.41668  0.31555  Biso   1.000  H
  C113     1.0000 0.15052  0.86951  0.85250  Biso   1.000  C
  C114     1.0000 0.84948  0.86951  0.64750  Biso   1.000  C
  C115     1.0000 0.65052  0.36951  0.85250  Biso   1.000  C
  C116     1.0000 0.34948  0.36951  0.64750  Biso   1.000  C
  C117     1.0000 0.84948  0.13049  0.14750  Biso   1.000  C
  C118     1.0000 0.15052  0.13049  0.35250  Biso   1.000  C
  C119     1.0000 0.34948  0.63049  0.14750  Biso   1.000  C
  C120     1.0000 0.65052  0.63049  0.35250  Biso   1.000  C
  H201     1.0000 0.14636  0.81162  0.90542  Biso   1.000  H
  H202     1.0000 0.85364  0.81162  0.59458  Biso   1.000  H
  H203     1.0000 0.64636  0.31162  0.90542  Biso   1.000  H
  H204     1.0000 0.35364  0.31162  0.59458  Biso   1.000  H
  H205     1.0000 0.85364  0.18838  0.09458  Biso   1.000  H
  H206     1.0000 0.14636  0.18838  0.40542  Biso   1.000  H
  H207     1.0000 0.35364  0.68838  0.09458  Biso   1.000  H
  H208     1.0000 0.64636  0.68838  0.40542  Biso   1.000  H
  H209     1.0000 0.15327  0.71267  0.82092  Biso   1.000  H
  H210     1.0000 0.84673  0.71267  0.67908  Biso   1.000  H
  H211     1.0000 0.65327  0.21267  0.82092  Biso   1.000  H
  H212     1.0000 0.34673  0.21267  0.67908  Biso   1.000  H
  H213     1.0000 0.84673  0.28733  0.17908  Biso   1.000  H
  H214     1.0000 0.15327  0.28733  0.32092  Biso   1.000  H
  H215     1.0000 0.34673  0.78733  0.17908  Biso   1.000  H
  H216     1.0000 0.65327  0.78733  0.32092  Biso   1.000  H
  C121     1.0000 0.13124  0.01642  0.80684  Biso   1.000  C
  C122     1.0000 0.86876  0.01642  0.69316  Biso   1.000  C
  C123     1.0000 0.63124  0.51642  0.80684  Biso   1.000  C
  C124     1.0000 0.36876  0.51642  0.69316  Biso   1.000  C
  C125     1.0000 0.86876  0.98358  0.19316  Biso   1.000  C
  C126     1.0000 0.13124  0.98358  0.30684  Biso   1.000  C
  C127     1.0000 0.36876  0.48358  0.19316  Biso   1.000  C
  C128     1.0000 0.63124  0.48358  0.30684  Biso   1.000  C
  H217     1.0000 0.12890  0.17560  0.83775  Biso   1.000  H
  H218     1.0000 0.87110  0.17560  0.66225  Biso   1.000  H
  H219     1.0000 0.62890  0.67560  0.83775  Biso   1.000  H
  H220     1.0000 0.37110  0.67560  0.66225  Biso   1.000  H
  H221     1.0000 0.87110  0.82440  0.16225  Biso   1.000  H
  H222     1.0000 0.12890  0.82440  0.33775  Biso   1.000  H
  H223     1.0000 0.37110  0.32440  0.16225  Biso   1.000  H
  H224     1.0000 0.62890  0.32440  0.33775  Biso   1.000  H
  H225     1.0000 0.13543  0.07055  0.75348  Biso   1.000  H
  H226     1.0000 0.86457  0.07055  0.74652  Biso   1.000  H
  H227     1.0000 0.63543  0.57055  0.75348  Biso   1.000  H
  H228     1.0000 0.36457  0.57055  0.74652  Biso   1.000  H
  H229     1.0000 0.86457  0.92945  0.24652  Biso   1.000  H
  H230     1.0000 0.13543  0.92945  0.25348  Biso   1.000  H
  H231     1.0000 0.36457  0.42945  0.24652  Biso   1.000  H
  H232     1.0000 0.63543  0.42945  0.25348  Biso   1.000  H
  C129     1.0000 0.10993  0.87200  0.79234  Biso   1.000  C
  C130     1.0000 0.89007  0.87200  0.70766  Biso   1.000  C
  C131     1.0000 0.60993  0.37200  0.79234  Biso   1.000  C
  C132     1.0000 0.39007  0.37200  0.70766  Biso   1.000  C
  C133     1.0000 0.89007  0.12800  0.20766  Biso   1.000  C
  C134     1.0000 0.10993  0.12800  0.29234  Biso   1.000  C
  C135     1.0000 0.39007  0.62800  0.20766  Biso   1.000  C
  C136     1.0000 0.60993  0.62800  0.29234  Biso   1.000  C
  H233     1.0000 0.10618  0.81192  0.84561  Biso   1.000  H
  H234     1.0000 0.89382  0.81192  0.65439  Biso   1.000  H
  H235     1.0000 0.60618  0.31192  0.84561  Biso   1.000  H
  H236     1.0000 0.39382  0.31192  0.65439  Biso   1.000  H
  H237     1.0000 0.89382  0.18808  0.15439  Biso   1.000  H
  H238     1.0000 0.10618  0.18808  0.34561  Biso   1.000  H
  H239     1.0000 0.39382  0.68808  0.15439  Biso   1.000  H
  H240     1.0000 0.60618  0.68808  0.34561  Biso   1.000  H
  H241     1.0000 0.11228  0.71615  0.75986  Biso   1.000  H
  H242     1.0000 0.88772  0.71615  0.74014  Biso   1.000  H
  H243     1.0000 0.61228  0.21615  0.75986  Biso   1.000  H
  H244     1.0000 0.38772  0.21615  0.74014  Biso   1.000  H
  H245     1.0000 0.88772  0.28385  0.24014  Biso   1.000  H
  H246     1.0000 0.11228  0.28385  0.25986  Biso   1.000  H
  H247     1.0000 0.38772  0.78385  0.24014  Biso   1.000  H
  H248     1.0000 0.61228  0.78385  0.25986  Biso   1.000  H
  C137     1.0000 0.09041  0.01602  0.74994  Biso   1.000  C
  C138     1.0000 0.90959  0.01602  0.75006  Biso   1.000  C
  C139     1.0000 0.59041  0.51602  0.74994  Biso   1.000  C
  C140     1.0000 0.40959  0.51602  0.75006  Biso   1.000  C
  C141     1.0000 0.90959  0.98398  0.25006  Biso   1.000  C
  C142     1.0000 0.09041  0.98398  0.24994  Biso   1.000  C
  C143     1.0000 0.40959  0.48398  0.25006  Biso   1.000  C
  C144     1.0000 0.59041  0.48398  0.24994  Biso   1.000  C
  H249     1.0000 0.09420  0.08026  0.69716  Biso   1.000  H
  H250     1.0000 0.90580  0.08026  0.80284  Biso   1.000  H
  H251     1.0000 0.59420  0.58026  0.69716  Biso   1.000  H
  H252     1.0000 0.40580  0.58026  0.80284  Biso   1.000  H
  H253     1.0000 0.90580  0.91974  0.30284  Biso   1.000  H
  H254     1.0000 0.09420  0.91974  0.19716  Biso   1.000  H
  H255     1.0000 0.40580  0.41974  0.30284  Biso   1.000  H
  H256     1.0000 0.59420  0.41974  0.19716  Biso   1.000  H
  H257     1.0000 0.08775  0.16993  0.78313  Biso   1.000  H
  H258     1.0000 0.91225  0.16993  0.71687  Biso   1.000  H
  H259     1.0000 0.58775  0.66993  0.78313  Biso   1.000  H
  H260     1.0000 0.41225  0.66993  0.71687  Biso   1.000  H
  H261     1.0000 0.91225  0.83007  0.21687  Biso   1.000  H
  H262     1.0000 0.08775  0.83007  0.28313  Biso   1.000  H
  H263     1.0000 0.41225  0.33007  0.21687  Biso   1.000  H
  H264     1.0000 0.58775  0.33007  0.28313  Biso   1.000  H
  C145     1.0000 0.06953  0.86642  0.73441  Biso   1.000  C
  C146     1.0000 0.93047  0.86642  0.76559  Biso   1.000  C
  C147     1.0000 0.56953  0.36642  0.73441  Biso   1.000  C
  C148     1.0000 0.43047  0.36642  0.76559  Biso   1.000  C
  C149     1.0000 0.93047  0.13358  0.26559  Biso   1.000  C
  C150     1.0000 0.06953  0.13358  0.23441  Biso   1.000  C
  C151     1.0000 0.43047  0.63358  0.26559  Biso   1.000  C
  C152     1.0000 0.56953  0.63358  0.23441  Biso   1.000  C
  H265     1.0000 0.07226  0.71194  0.70195  Biso   1.000  H
  H266     1.0000 0.92774  0.71194  0.79805  Biso   1.000  H
  H267     1.0000 0.57226  0.21194  0.70195  Biso   1.000  H
  H268     1.0000 0.42774  0.21194  0.79805  Biso   1.000  H
  H269     1.0000 0.92774  0.28806  0.29805  Biso   1.000  H
  H270     1.0000 0.07226  0.28806  0.20195  Biso   1.000  H
  H271     1.0000 0.42774  0.78806  0.29805  Biso   1.000  H
  H272     1.0000 0.57226  0.78806  0.20195  Biso   1.000  H
  H273     1.0000 0.06564  0.80417  0.78746  Biso   1.000  H
  H274     1.0000 0.93436  0.80417  0.71254  Biso   1.000  H
  H275     1.0000 0.56564  0.30417  0.78746  Biso   1.000  H
  H276     1.0000 0.43436  0.30417  0.71254  Biso   1.000  H
  H277     1.0000 0.93436  0.19583  0.21254  Biso   1.000  H
  H278     1.0000 0.06564  0.19583  0.28746  Biso   1.000  H
  H279     1.0000 0.43436  0.69583  0.21254  Biso   1.000  H
  H280     1.0000 0.56564  0.69583  0.28746  Biso   1.000  H
  C153     1.0000 0.04966  0.00747  0.69103  Biso   1.000  C
  C154     1.0000 0.95034  0.00747  0.80897  Biso   1.000  C
  C155     1.0000 0.54966  0.50747  0.69103  Biso   1.000  C
  C156     1.0000 0.45034  0.50747  0.80897  Biso   1.000  C
  C157     1.0000 0.95034  0.99253  0.30897  Biso   1.000  C
  C158     1.0000 0.04966  0.99253  0.19103  Biso   1.000  C
  C159     1.0000 0.45034  0.49253  0.30897  Biso   1.000  C
  C160     1.0000 0.54966  0.49253  0.19103  Biso   1.000  C
  H281     1.0000 0.05365  0.07111  0.63852  Biso   1.000  H
  H282     1.0000 0.94635  0.07111  0.86148  Biso   1.000  H
  H283     1.0000 0.55365  0.57111  0.63852  Biso   1.000  H
  H284     1.0000 0.44635  0.57111  0.86148  Biso   1.000  H
  H285     1.0000 0.94635  0.92889  0.36148  Biso   1.000  H
  H286     1.0000 0.05365  0.92889  0.13852  Biso   1.000  H
  H287     1.0000 0.44635  0.42889  0.36148  Biso   1.000  H
  H288     1.0000 0.55365  0.42889  0.13852  Biso   1.000  H
  H289     1.0000 0.04692  0.16118  0.72394  Biso   1.000  H
  H290     1.0000 0.95308  0.16118  0.77606  Biso   1.000  H
  H291     1.0000 0.54692  0.66118  0.72394  Biso   1.000  H
  H292     1.0000 0.45308  0.66118  0.77606  Biso   1.000  H
  H293     1.0000 0.95308  0.83882  0.27606  Biso   1.000  H
  H294     1.0000 0.04692  0.83882  0.22394  Biso   1.000  H
  H295     1.0000 0.45308  0.33882  0.27606  Biso   1.000  H
  H296     1.0000 0.54692  0.33882  0.22394  Biso   1.000  H
  C161     1.0000 0.02953  0.86968  0.67492  Biso   1.000  C
  C162     1.0000 0.97047  0.86968  0.82508  Biso   1.000  C
  C163     1.0000 0.52953  0.36968  0.67492  Biso   1.000  C
  C164     1.0000 0.47047  0.36968  0.82508  Biso   1.000  C
  C165     1.0000 0.97047  0.13032  0.32508  Biso   1.000  C
  C166     1.0000 0.02953  0.13032  0.17492  Biso   1.000  C
  C167     1.0000 0.47047  0.63032  0.32508  Biso   1.000  C
  C168     1.0000 0.52953  0.63032  0.17492  Biso   1.000  C
  H297     1.0000 0.02326  0.84263  0.72580  Biso   1.000  H
  H298     1.0000 0.97674  0.84263  0.77420  Biso   1.000  H
  H299     1.0000 0.52326  0.34263  0.72580  Biso   1.000  H
  H300     1.0000 0.47674  0.34263  0.77420  Biso   1.000  H
  H301     1.0000 0.97674  0.15737  0.27420  Biso   1.000  H
  H302     1.0000 0.02326  0.15737  0.22580  Biso   1.000  H
  H303     1.0000 0.47674  0.65737  0.27420  Biso   1.000  H
  H304     1.0000 0.52326  0.65737  0.22580  Biso   1.000  H
  H305     1.0000 0.03220  0.70135  0.65058  Biso   1.000  H
  H306     1.0000 0.96780  0.70135  0.84942  Biso   1.000  H
  H307     1.0000 0.53220  0.20135  0.65058  Biso   1.000  H
  H308     1.0000 0.46780  0.20135  0.84942  Biso   1.000  H
  H309     1.0000 0.96780  0.29865  0.34942  Biso   1.000  H
  H310     1.0000 0.03220  0.29865  0.15058  Biso   1.000  H
  H311     1.0000 0.46780  0.79865  0.34942  Biso   1.000  H
  H312     1.0000 0.53220  0.79865  0.15058  Biso   1.000  H
  C169     1.0000 0.01327  0.02857  0.61480  Biso   1.000  C
  C170     1.0000 0.98673  0.02857  0.88520  Biso   1.000  C
  C171     1.0000 0.51327  0.52857  0.61480  Biso   1.000  C
  C172     1.0000 0.48673  0.52857  0.88520  Biso   1.000  C
  C173     1.0000 0.98673  0.97143  0.38520  Biso   1.000  C
  C174     1.0000 0.01327  0.97143  0.11480  Biso   1.000  C
  C175     1.0000 0.48673  0.47143  0.38520  Biso   1.000  C
  C176     1.0000 0.51327  0.47143  0.11480  Biso   1.000  C
  H313     1.0000 0.02036  0.05840  0.55693  Biso   1.000  H
  H314     1.0000 0.97964  0.05840  0.94307  Biso   1.000  H
  H315     1.0000 0.52036  0.55840  0.55693  Biso   1.000  H
  H316     1.0000 0.47964  0.55840  0.94307  Biso   1.000  H
  H317     1.0000 0.97964  0.94160  0.44307  Biso   1.000  H
  H318     1.0000 0.02036  0.94160  0.05693  Biso   1.000  H
  H319     1.0000 0.47964  0.44160  0.44307  Biso   1.000  H
  H320     1.0000 0.52036  0.44160  0.05693  Biso   1.000  H
  H321     1.0000 0.01023  0.21969  0.64225  Biso   1.000  H
  H322     1.0000 0.98977  0.21969  0.85775  Biso   1.000  H
  H323     1.0000 0.51023  0.71969  0.64225  Biso   1.000  H
  H324     1.0000 0.48977  0.71969  0.85775  Biso   1.000  H
  H325     1.0000 0.98977  0.78031  0.35775  Biso   1.000  H
  H326     1.0000 0.01023  0.78031  0.14225  Biso   1.000  H
  H327     1.0000 0.48977  0.28031  0.35775  Biso   1.000  H
  H328     1.0000 0.51023  0.28031  0.14225  Biso   1.000  H
  H329     1.0000 0.99765  0.92089  0.60243  Biso   1.000  H
  H330     1.0000 0.00235  0.92089  0.89757  Biso   1.000  H
  H331     1.0000 0.49765  0.42089  0.60243  Biso   1.000  H
  H332     1.0000 0.50235  0.42089  0.89757  Biso   1.000  H
  H333     1.0000 0.00235  0.07911  0.39757  Biso   1.000  H
  H334     1.0000 0.99765  0.07911  0.10243  Biso   1.000  H
  H335     1.0000 0.50235  0.57911  0.39757  Biso   1.000  H
  H336     1.0000 0.49765  0.57911  0.10243  Biso   1.000  H
