data_image0
_cell_length_a       16.6868
_cell_length_b       13.6318
_cell_length_c       15.1712
_cell_angle_alpha    90
_cell_angle_beta     107.42
_cell_angle_gamma    90

_symmetry_space_group_name_H-M    "P 1"
_symmetry_int_tables_number       1

loop_
  _symmetry_equiv_pos_as_xyz
  'x, y, z'

loop_
  _atom_site_label
  _atom_site_occupancy
  _atom_site_fract_x
  _atom_site_fract_y
  _atom_site_fract_z
  _atom_site_thermal_displace_type
  _atom_site_B_iso_or_equiv
  _atom_site_type_symbol
  C1       1.0000 0.39501  0.09560  0.23300  Biso   1.000  C
  C2       1.0000 0.60499  0.09560  0.26700  Biso   1.000  C
  C3       1.0000 0.60499  0.90440  0.76700  Biso   1.000  C
  C4       1.0000 0.39501  0.90440  0.73300  Biso   1.000  C
  H1       1.0000 0.41780  0.09570  0.29690  Biso   1.000  H
  H2       1.0000 0.58220  0.09570  0.20310  Biso   1.000  H
  H3       1.0000 0.58220  0.90430  0.70310  Biso   1.000  H
  H4       1.0000 0.41780  0.90430  0.79690  Biso   1.000  H
  C5       1.0000 0.33756  0.02400  0.19270  Biso   1.000  C
  C6       1.0000 0.66244  0.02400  0.30730  Biso   1.000  C
  C7       1.0000 0.66244  0.97600  0.80730  Biso   1.000  C
  C8       1.0000 0.33756  0.97600  0.69270  Biso   1.000  C
  H5       1.0000 0.32210  0.97710  0.22900  Biso   1.000  H
  H6       1.0000 0.67790  0.97710  0.27100  Biso   1.000  H
  H7       1.0000 0.67790  0.02290  0.77100  Biso   1.000  H
  H8       1.0000 0.32210  0.02290  0.72900  Biso   1.000  H
  C9       1.0000 0.30276  0.02239  0.09700  Biso   1.000  C
  C10      1.0000 0.69724  0.02239  0.40300  Biso   1.000  C
  C11      1.0000 0.69724  0.97761  0.90300  Biso   1.000  C
  C12      1.0000 0.30276  0.97761  0.59700  Biso   1.000  C
  C13      1.0000 0.32871  0.09380  0.04580  Biso   1.000  C
  C14      1.0000 0.67129  0.09380  0.45420  Biso   1.000  C
  C15      1.0000 0.67129  0.90620  0.95420  Biso   1.000  C
  C16      1.0000 0.32871  0.90620  0.54580  Biso   1.000  C
  H9       1.0000 0.30750  0.09510  0.98170  Biso   1.000  H
  H10      1.0000 0.69250  0.09510  0.51830  Biso   1.000  H
  H11      1.0000 0.69250  0.90490  0.01830  Biso   1.000  H
  H12      1.0000 0.30750  0.90490  0.48170  Biso   1.000  H
  C17      1.0000 0.38657  0.16260  0.09220  Biso   1.000  C
  C18      1.0000 0.61343  0.16260  0.40780  Biso   1.000  C
  C19      1.0000 0.61343  0.83740  0.90780  Biso   1.000  C
  C20      1.0000 0.38657  0.83740  0.59220  Biso   1.000  C
  H13      1.0000 0.40360  0.21000  0.05750  Biso   1.000  H
  H14      1.0000 0.59640  0.21000  0.44250  Biso   1.000  H
  H15      1.0000 0.59640  0.79000  0.94250  Biso   1.000  H
  H16      1.0000 0.40360  0.79000  0.55750  Biso   1.000  H
  C21      1.0000 0.44065  0.43600  0.12150  Biso   1.000  C
  C22      1.0000 0.55935  0.43600  0.37850  Biso   1.000  C
  C23      1.0000 0.55935  0.56400  0.87850  Biso   1.000  C
  C24      1.0000 0.44065  0.56400  0.62150  Biso   1.000  C
  H17      1.0000 0.49540  0.43540  0.11830  Biso   1.000  H
  H18      1.0000 0.50460  0.43540  0.38170  Biso   1.000  H
  H19      1.0000 0.50460  0.56460  0.88170  Biso   1.000  H
  H20      1.0000 0.49540  0.56460  0.61830  Biso   1.000  H
  C25      1.0000 0.38452  0.50130  0.06690  Biso   1.000  C
  C26      1.0000 0.61548  0.50130  0.43310  Biso   1.000  C
  C27      1.0000 0.61548  0.49870  0.93310  Biso   1.000  C
  C28      1.0000 0.38452  0.49870  0.56690  Biso   1.000  C
  H21      1.0000 0.40160  0.54400  0.02820  Biso   1.000  H
  H22      1.0000 0.59840  0.54400  0.47180  Biso   1.000  H
  H23      1.0000 0.59840  0.45600  0.97180  Biso   1.000  H
  H24      1.0000 0.40160  0.45600  0.52820  Biso   1.000  H
  C29      1.0000 0.30154  0.50320  0.06989  Biso   1.000  C
  C30      1.0000 0.69846  0.50320  0.43011  Biso   1.000  C
  C31      1.0000 0.69846  0.49680  0.93011  Biso   1.000  C
  C32      1.0000 0.30154  0.49680  0.56989  Biso   1.000  C
  C33      1.0000 0.28058  0.43830  0.12950  Biso   1.000  C
  C34      1.0000 0.71942  0.43830  0.37050  Biso   1.000  C
  C35      1.0000 0.71942  0.56170  0.87050  Biso   1.000  C
  C36      1.0000 0.28058  0.56170  0.62950  Biso   1.000  C
  H25      1.0000 0.22630  0.43670  0.13420  Biso   1.000  H
  H26      1.0000 0.77370  0.43670  0.36580  Biso   1.000  H
  H27      1.0000 0.77370  0.56330  0.86580  Biso   1.000  H
  H28      1.0000 0.22630  0.56330  0.63420  Biso   1.000  H
  C37      1.0000 0.34117  0.37630  0.18170  Biso   1.000  C
  C38      1.0000 0.65883  0.37630  0.31830  Biso   1.000  C
  C39      1.0000 0.65883  0.62370  0.81830  Biso   1.000  C
  C40      1.0000 0.34117  0.62370  0.68170  Biso   1.000  C
  H29      1.0000 0.32620  0.33340  0.22180  Biso   1.000  H
  H30      1.0000 0.67380  0.33340  0.27820  Biso   1.000  H
  H31      1.0000 0.67380  0.66660  0.77820  Biso   1.000  H
  H32      1.0000 0.32620  0.66660  0.72180  Biso   1.000  H
  C41      1.0000 0.16263  0.58336  0.00927  Biso   1.000  C
  C42      1.0000 0.83737  0.58336  0.49073  Biso   1.000  C
  C43      1.0000 0.83737  0.41664  0.99073  Biso   1.000  C
  C44      1.0000 0.16263  0.41664  0.50927  Biso   1.000  C
  C45      1.0000 0.17475  0.76500  0.98471  Biso   1.000  C
  C46      1.0000 0.82525  0.76500  0.51529  Biso   1.000  C
  C47      1.0000 0.82525  0.23500  0.01529  Biso   1.000  C
  C48      1.0000 0.17475  0.23500  0.48471  Biso   1.000  C
  H33      1.0000 0.23240  0.76160  0.01330  Biso   1.000  H
  H34      1.0000 0.76760  0.76160  0.48670  Biso   1.000  H
  H35      1.0000 0.76760  0.23840  0.98670  Biso   1.000  H
  H36      1.0000 0.23240  0.23840  0.51330  Biso   1.000  H
  C49      1.0000 0.13685  0.85390  0.95471  Biso   1.000  C
  C50      1.0000 0.86315  0.85390  0.54529  Biso   1.000  C
  C51      1.0000 0.86315  0.14610  0.04529  Biso   1.000  C
  C52      1.0000 0.13685  0.14610  0.45471  Biso   1.000  C
  C53      1.0000 0.05074  0.85920  0.90859  Biso   1.000  C
  C54      1.0000 0.94926  0.85920  0.59141  Biso   1.000  C
  C55      1.0000 0.94926  0.14080  0.09141  Biso   1.000  C
  C56      1.0000 0.05074  0.14080  0.40859  Biso   1.000  C
  H37      1.0000 0.02680  0.91920  0.88600  Biso   1.000  H
  H38      1.0000 0.97320  0.91920  0.61400  Biso   1.000  H
  H39      1.0000 0.97320  0.08080  0.11400  Biso   1.000  H
  H40      1.0000 0.02680  0.08080  0.38600  Biso   1.000  H
  C57      1.0000 0.00057  0.77602  0.89618  Biso   1.000  C
  C58      1.0000 0.99943  0.77602  0.60382  Biso   1.000  C
  C59      1.0000 0.99943  0.22398  0.10382  Biso   1.000  C
  C60      1.0000 0.00057  0.22398  0.39618  Biso   1.000  C
  C61      1.0000 0.03927  0.68665  0.93043  Biso   1.000  C
  C62      1.0000 0.96073  0.68665  0.56957  Biso   1.000  C
  C63      1.0000 0.96073  0.31335  0.06957  Biso   1.000  C
  C64      1.0000 0.03927  0.31335  0.43043  Biso   1.000  C
  H41      1.0000 0.00650  0.63050  0.92550  Biso   1.000  H
  H42      1.0000 0.99350  0.63050  0.57450  Biso   1.000  H
  H43      1.0000 0.99350  0.36950  0.07450  Biso   1.000  H
  H44      1.0000 0.00650  0.36950  0.42550  Biso   1.000  H
  C65      1.0000 0.90476  0.78061  0.85217  Biso   1.000  C
  C66      1.0000 0.09524  0.78061  0.64783  Biso   1.000  C
  C67      1.0000 0.09524  0.21939  0.14783  Biso   1.000  C
  C68      1.0000 0.90476  0.21939  0.35217  Biso   1.000  C
  C69      1.0000 0.87660  0.70070  0.77833  Biso   1.000  C
  C70      1.0000 0.12340  0.70070  0.72167  Biso   1.000  C
  C71      1.0000 0.12340  0.29930  0.22167  Biso   1.000  C
  C72      1.0000 0.87660  0.29930  0.27833  Biso   1.000  C
  H45      1.0000 0.88890  0.63730  0.80680  Biso   1.000  H
  H46      1.0000 0.11110  0.63730  0.69320  Biso   1.000  H
  H47      1.0000 0.11110  0.36270  0.19320  Biso   1.000  H
  H48      1.0000 0.88890  0.36270  0.30680  Biso   1.000  H
  H49      1.0000 0.90600  0.70840  0.73320  Biso   1.000  H
  H50      1.0000 0.09400  0.70840  0.76680  Biso   1.000  H
  H51      1.0000 0.09400  0.29160  0.26680  Biso   1.000  H
  H52      1.0000 0.90600  0.29160  0.23320  Biso   1.000  H
  H53      1.0000 0.81730  0.70630  0.74870  Biso   1.000  H
  H54      1.0000 0.18270  0.70630  0.75130  Biso   1.000  H
  H55      1.0000 0.18270  0.29370  0.25130  Biso   1.000  H
  H56      1.0000 0.81730  0.29370  0.24870  Biso   1.000  H
  C73      1.0000 0.86366  0.76400  0.92910  Biso   1.000  C
  C74      1.0000 0.13634  0.76400  0.57090  Biso   1.000  C
  C75      1.0000 0.13634  0.23600  0.07090  Biso   1.000  C
  C76      1.0000 0.86366  0.23600  0.42910  Biso   1.000  C
  H57      1.0000 0.80370  0.76820  0.90370  Biso   1.000  H
  H58      1.0000 0.19630  0.76820  0.59630  Biso   1.000  H
  H59      1.0000 0.19630  0.23180  0.09630  Biso   1.000  H
  H60      1.0000 0.80370  0.23180  0.40370  Biso   1.000  H
  H61      1.0000 0.88290  0.81320  0.97600  Biso   1.000  H
  H62      1.0000 0.11710  0.81320  0.52400  Biso   1.000  H
  H63      1.0000 0.11710  0.18680  0.02400  Biso   1.000  H
  H64      1.0000 0.88290  0.18680  0.47600  Biso   1.000  H
  H65      1.0000 0.87870  0.70020  0.95580  Biso   1.000  H
  H66      1.0000 0.12130  0.70020  0.54420  Biso   1.000  H
  H67      1.0000 0.12130  0.29980  0.04420  Biso   1.000  H
  H68      1.0000 0.87870  0.29980  0.45580  Biso   1.000  H
  C77      1.0000 0.87626  0.88070  0.80710  Biso   1.000  C
  C78      1.0000 0.12374  0.88070  0.69290  Biso   1.000  C
  C79      1.0000 0.12374  0.11930  0.19290  Biso   1.000  C
  C80      1.0000 0.87626  0.11930  0.30710  Biso   1.000  C
  H69      1.0000 0.90430  0.89390  0.76170  Biso   1.000  H
  H70      1.0000 0.09570  0.89390  0.73830  Biso   1.000  H
  H71      1.0000 0.09570  0.10610  0.23830  Biso   1.000  H
  H72      1.0000 0.90430  0.10610  0.26170  Biso   1.000  H
  H73      1.0000 0.89000  0.93100  0.85360  Biso   1.000  H
  H74      1.0000 0.11000  0.93100  0.64640  Biso   1.000  H
  H75      1.0000 0.11000  0.06900  0.14640  Biso   1.000  H
  H76      1.0000 0.89000  0.06900  0.35360  Biso   1.000  H
  H77      1.0000 0.81660  0.87980  0.77800  Biso   1.000  H
  H78      1.0000 0.18340  0.87980  0.72200  Biso   1.000  H
  H79      1.0000 0.18340  0.12020  0.22200  Biso   1.000  H
  H80      1.0000 0.81660  0.12020  0.27800  Biso   1.000  H
  C81      1.0000 0.18775  0.94680  0.97310  Biso   1.000  C
  C82      1.0000 0.81225  0.94680  0.52690  Biso   1.000  C
  C83      1.0000 0.81225  0.05320  0.02690  Biso   1.000  C
  C84      1.0000 0.18775  0.05320  0.47310  Biso   1.000  C
  C85      1.0000 0.12571  0.68027  0.97164  Biso   1.000  C
  C86      1.0000 0.87429  0.68027  0.52836  Biso   1.000  C
  C87      1.0000 0.87429  0.31973  0.02836  Biso   1.000  C
  C88      1.0000 0.12571  0.31973  0.47164  Biso   1.000  C
  Cu1      1.0000 0.50000  0.27074  0.25000  Biso   1.000  Cu
  Cu2      1.0000 0.50000  0.72926  0.75000  Biso   1.000  Cu
  N1       1.0000 0.41967  0.16564  0.18396  Biso   1.000  N
  N2       1.0000 0.58033  0.16564  0.31604  Biso   1.000  N
  N3       1.0000 0.58033  0.83436  0.81604  Biso   1.000  N
  N4       1.0000 0.41967  0.83436  0.68396  Biso   1.000  N
  N5       1.0000 0.42029  0.37352  0.17865  Biso   1.000  N
  N6       1.0000 0.57971  0.37352  0.32135  Biso   1.000  N
  N7       1.0000 0.57971  0.62648  0.82135  Biso   1.000  N
  N8       1.0000 0.42029  0.62648  0.67865  Biso   1.000  N
  N9       1.0000 0.24728  0.57336  0.01655  Biso   1.000  N
  N10      1.0000 0.75272  0.57336  0.48345  Biso   1.000  N
  N11      1.0000 0.75272  0.42664  0.98345  Biso   1.000  N
  N12      1.0000 0.24728  0.42664  0.51655  Biso   1.000  N
  N13      1.0000 0.24513  0.94772  0.05991  Biso   1.000  N
  N14      1.0000 0.75487  0.94772  0.44009  Biso   1.000  N
  N15      1.0000 0.75487  0.05228  0.94009  Biso   1.000  N
  N16      1.0000 0.24513  0.05228  0.55991  Biso   1.000  N
  N17      1.0000 0.38090  0.28130  0.41270  Biso   1.000  N
  N18      1.0000 0.61910  0.28130  0.08730  Biso   1.000  N
  N19      1.0000 0.61910  0.71870  0.58730  Biso   1.000  N
  N20      1.0000 0.38090  0.71870  0.91270  Biso   1.000  N
  O1       1.0000 0.12187  0.52062  0.03358  Biso   1.000  O
  O2       1.0000 0.87813  0.52062  0.46642  Biso   1.000  O
  O3       1.0000 0.87813  0.47938  0.96642  Biso   1.000  O
  O4       1.0000 0.12187  0.47938  0.53358  Biso   1.000  O
  O5       1.0000 0.17590  0.01518  0.91842  Biso   1.000  O
  O6       1.0000 0.82410  0.01518  0.58158  Biso   1.000  O
  O7       1.0000 0.82410  0.98482  0.08158  Biso   1.000  O
  O8       1.0000 0.17590  0.98482  0.41842  Biso   1.000  O
  O9       1.0000 0.33910  0.34940  0.39420  Biso   1.000  O
  O10      1.0000 0.66090  0.34940  0.10580  Biso   1.000  O
  O11      1.0000 0.66090  0.65060  0.60580  Biso   1.000  O
  O12      1.0000 0.33910  0.65060  0.89420  Biso   1.000  O
  O13      1.0000 0.43609  0.25707  0.37965  Biso   1.000  O
  O14      1.0000 0.56391  0.25707  0.12035  Biso   1.000  O
  O15      1.0000 0.56391  0.74293  0.62035  Biso   1.000  O
  O16      1.0000 0.43609  0.74293  0.87965  Biso   1.000  O
  O17      1.0000 0.36380  0.23250  0.46850  Biso   1.000  O
  O18      1.0000 0.63620  0.23250  0.03150  Biso   1.000  O
  O19      1.0000 0.63620  0.76750  0.53150  Biso   1.000  O
  O20      1.0000 0.36380  0.76750  0.96850  Biso   1.000  O
  C89      1.0000 0.25450  0.61810  0.27320  Biso   1.000  C
  C90      1.0000 0.74550  0.61810  0.22680  Biso   1.000  C
  C91      1.0000 0.74550  0.38190  0.72680  Biso   1.000  C
  C92      1.0000 0.25450  0.38190  0.77320  Biso   1.000  C
  H81      1.0000 0.25910  0.62910  0.21240  Biso   1.000  H
  H82      1.0000 0.74090  0.62910  0.28760  Biso   1.000  H
  H83      1.0000 0.74090  0.37090  0.78760  Biso   1.000  H
  H84      1.0000 0.25910  0.37090  0.71240  Biso   1.000  H
  H85      1.0000 0.20990  0.57220  0.26980  Biso   1.000  H
  H86      1.0000 0.79010  0.57220  0.23020  Biso   1.000  H
  H87      1.0000 0.79010  0.42780  0.73020  Biso   1.000  H
  H88      1.0000 0.20990  0.42780  0.76980  Biso   1.000  H
  H89      1.0000 0.30640  0.59200  0.31230  Biso   1.000  H
  H90      1.0000 0.69360  0.59200  0.18770  Biso   1.000  H
  H91      1.0000 0.69360  0.40800  0.68770  Biso   1.000  H
  H92      1.0000 0.30640  0.40800  0.81230  Biso   1.000  H
  C93      1.0000 0.21050  0.70490  0.39310  Biso   1.000  C
  C94      1.0000 0.78950  0.70490  0.10690  Biso   1.000  C
  C95      1.0000 0.78950  0.29510  0.60690  Biso   1.000  C
  C96      1.0000 0.21050  0.29510  0.89310  Biso   1.000  C
  H93      1.0000 0.19630  0.76990  0.40790  Biso   1.000  H
  H94      1.0000 0.80370  0.76990  0.09210  Biso   1.000  H
  H95      1.0000 0.80370  0.23010  0.59210  Biso   1.000  H
  H96      1.0000 0.19630  0.23010  0.90790  Biso   1.000  H
  H97      1.0000 0.25550  0.67970  0.44340  Biso   1.000  H
  H98      1.0000 0.74450  0.67970  0.05660  Biso   1.000  H
  H99      1.0000 0.74450  0.32030  0.55660  Biso   1.000  H
  H100     1.0000 0.25550  0.32030  0.94340  Biso   1.000  H
  H101     1.0000 0.16220  0.66310  0.38300  Biso   1.000  H
  H102     1.0000 0.83780  0.66310  0.11700  Biso   1.000  H
  H103     1.0000 0.83780  0.33690  0.61700  Biso   1.000  H
  H104     1.0000 0.16220  0.33690  0.88300  Biso   1.000  H
  C97      1.0000 0.23700  0.79260  0.26740  Biso   1.000  C
  C98      1.0000 0.76300  0.79260  0.23260  Biso   1.000  C
  C99      1.0000 0.76300  0.20740  0.73260  Biso   1.000  C
  C100     1.0000 0.23700  0.20740  0.76740  Biso   1.000  C
  H105     1.0000 0.21990  0.84820  0.29250  Biso   1.000  H
  H106     1.0000 0.78010  0.84820  0.20750  Biso   1.000  H
  H107     1.0000 0.78010  0.15180  0.70750  Biso   1.000  H
  H108     1.0000 0.21990  0.15180  0.79250  Biso   1.000  H
  N21      1.0000 0.23657  0.70810  0.31030  Biso   1.000  N
  N22      1.0000 0.76343  0.70810  0.18970  Biso   1.000  N
  N23      1.0000 0.76343  0.29190  0.68970  Biso   1.000  N
  N24      1.0000 0.23657  0.29190  0.81030  Biso   1.000  N
  O21      1.0000 0.25802  0.80349  0.19731  Biso   1.000  O
  O22      1.0000 0.74198  0.80349  0.30269  Biso   1.000  O
  O23      1.0000 0.74198  0.19651  0.80269  Biso   1.000  O
  O24      1.0000 0.25802  0.19651  0.69731  Biso   1.000  O
  C101     1.0000 0.98740  0.58540  0.28770  Biso   1.000  C
  C102     1.0000 0.01260  0.58540  0.21230  Biso   1.000  C
  C103     1.0000 0.01260  0.41460  0.71230  Biso   1.000  C
  C104     1.0000 0.98740  0.41460  0.78770  Biso   1.000  C
  H109     1.0000 0.97940  0.52630  0.31460  Biso   1.000  H
  H110     1.0000 0.02060  0.52630  0.18540  Biso   1.000  H
  H111     1.0000 0.02060  0.47370  0.68540  Biso   1.000  H
  H112     1.0000 0.97940  0.47370  0.81460  Biso   1.000  H
  C105     1.0000 0.97320  0.67280  0.32580  Biso   1.000  C
  C106     1.0000 0.02680  0.67280  0.17420  Biso   1.000  C
  C107     1.0000 0.02680  0.32720  0.67420  Biso   1.000  C
  C108     1.0000 0.97320  0.32720  0.82580  Biso   1.000  C
  H113     1.0000 0.95430  0.67190  0.37760  Biso   1.000  H
  H114     1.0000 0.04570  0.67190  0.12240  Biso   1.000  H
  H115     1.0000 0.04570  0.32810  0.62240  Biso   1.000  H
  H116     1.0000 0.95430  0.32810  0.87760  Biso   1.000  H
  C109     1.0000 0.98614  0.76100  0.28930  Biso   1.000  C
  C110     1.0000 0.01386  0.76100  0.21070  Biso   1.000  C
  C111     1.0000 0.01386  0.23900  0.71070  Biso   1.000  C
  C112     1.0000 0.98614  0.23900  0.78930  Biso   1.000  C
  C113     1.0000 0.97130  0.85660  0.33160  Biso   1.000  C
  C114     1.0000 0.02870  0.85660  0.16840  Biso   1.000  C
  C115     1.0000 0.02870  0.14340  0.66840  Biso   1.000  C
  C116     1.0000 0.97130  0.14340  0.83160  Biso   1.000  C
  H117     1.0000 0.94790  0.84390  0.38110  Biso   1.000  H
  H118     1.0000 0.05210  0.84390  0.11890  Biso   1.000  H
  H119     1.0000 0.05210  0.15610  0.61890  Biso   1.000  H
  H120     1.0000 0.94790  0.15610  0.88110  Biso   1.000  H
  H121     1.0000 0.93300  0.89610  0.28550  Biso   1.000  H
  H122     1.0000 0.06700  0.89610  0.21450  Biso   1.000  H
  H123     1.0000 0.06700  0.10390  0.71450  Biso   1.000  H
  H124     1.0000 0.93300  0.10390  0.78550  Biso   1.000  H
  H125     1.0000 0.02370  0.89090  0.35530  Biso   1.000  H
  H126     1.0000 0.97630  0.89090  0.14470  Biso   1.000  H
  H127     1.0000 0.97630  0.10910  0.64470  Biso   1.000  H
  H128     1.0000 0.02370  0.10910  0.85530  Biso   1.000  H
