data_image0
_cell_length_a       5.9048
_cell_length_b       11.0358
_cell_length_c       12.4823
_cell_angle_alpha    90
_cell_angle_beta     91.137
_cell_angle_gamma    90

_symmetry_space_group_name_H-M    "P 1"
_symmetry_int_tables_number       1

loop_
  _symmetry_equiv_pos_as_xyz
  'x, y, z'

loop_
  _atom_site_label
  _atom_site_occupancy
  _atom_site_fract_x
  _atom_site_fract_y
  _atom_site_fract_z
  _atom_site_thermal_displace_type
  _atom_site_B_iso_or_equiv
  _atom_site_type_symbol
  Cu1      1.0000 0.96717  0.68265  0.32860  Biso   1.000  Cu
  Cu2      1.0000 0.03283  0.18265  0.67140  Biso   1.000  Cu
  O1       1.0000 0.98310  0.53080  0.19590  Biso   1.000  O
  O2       1.0000 0.01690  0.03080  0.80410  Biso   1.000  O
  H1       1.0000 0.04900  0.47000  0.22900  Biso   1.000  H
  H2       1.0000 0.95100  0.97000  0.77100  Biso   1.000  H
  C1       1.0000 0.10030  0.57370  0.10980  Biso   1.000  C
  C2       1.0000 0.89970  0.07370  0.89020  Biso   1.000  C
  C3       1.0000 0.28670  0.51700  0.06900  Biso   1.000  C
  C4       1.0000 0.71330  0.01700  0.93100  Biso   1.000  C
  H3       1.0000 0.34160  0.44550  0.10100  Biso   1.000  H
  H4       1.0000 0.65840  0.94550  0.89900  Biso   1.000  H
  C5       1.0000 0.39400  0.56440  0.98120  Biso   1.000  C
  C6       1.0000 0.60600  0.06440  0.01880  Biso   1.000  C
  H5       1.0000 0.51820  0.52310  0.95260  Biso   1.000  H
  H6       1.0000 0.48180  0.02310  0.04740  Biso   1.000  H
  C7       1.0000 0.32120  0.67250  0.93440  Biso   1.000  C
  C8       1.0000 0.67880  0.17250  0.06560  Biso   1.000  C
  C9       1.0000 0.13510  0.72750  0.97820  Biso   1.000  C
  C10      1.0000 0.86490  0.22750  0.02180  Biso   1.000  C
  H7       1.0000 0.08300  0.80020  0.94720  Biso   1.000  H
  H8       1.0000 0.91700  0.30020  0.05280  Biso   1.000  H
  C11      1.0000 0.02050  0.68220  0.06490  Biso   1.000  C
  C12      1.0000 0.97950  0.18220  0.93510  Biso   1.000  C
  C13      1.0000 0.81900  0.74340  0.11170  Biso   1.000  C
  C14      1.0000 0.18100  0.24340  0.88830  Biso   1.000  C
  H9       1.0000 0.69820  0.68340  0.12000  Biso   1.000  H
  H10      1.0000 0.30180  0.18340  0.88000  Biso   1.000  H
  H11      1.0000 0.76350  0.80530  0.06140  Biso   1.000  H
  H12      1.0000 0.23650  0.30530  0.93860  Biso   1.000  H
  N1       1.0000 0.86750  0.80200  0.21850  Biso   1.000  N
  N2       1.0000 0.13250  0.30200  0.78150  Biso   1.000  N
  H13      1.0000 0.73560  0.83710  0.24120  Biso   1.000  H
  H14      1.0000 0.26440  0.33710  0.75880  Biso   1.000  H
  C15      1.0000 0.04110  0.89740  0.21300  Biso   1.000  C
  C16      1.0000 0.95890  0.39740  0.78700  Biso   1.000  C
  H15      1.0000 0.05490  0.92280  0.13740  Biso   1.000  H
  H16      1.0000 0.94510  0.42280  0.86260  Biso   1.000  H
  C17      1.0000 0.26930  0.84970  0.25240  Biso   1.000  C
  C18      1.0000 0.73070  0.34970  0.74760  Biso   1.000  C
  O3       1.0000 0.26750  0.74790  0.30383  Biso   1.000  O
  O4       1.0000 0.73250  0.24790  0.69617  Biso   1.000  O
  O5       1.0000 0.44010  0.90770  0.23530  Biso   1.000  O
  O6       1.0000 0.55990  0.40770  0.76470  Biso   1.000  O
  C19      1.0000 0.97740  0.00900  0.27990  Biso   1.000  C
  C20      1.0000 0.02260  0.50900  0.72010  Biso   1.000  C
  H17      1.0000 0.09930  0.06900  0.27570  Biso   1.000  H
  H18      1.0000 0.90070  0.56900  0.72430  Biso   1.000  H
  H19      1.0000 0.83990  0.04560  0.24880  Biso   1.000  H
  H20      1.0000 0.16010  0.54560  0.75120  Biso   1.000  H
  C21      1.0000 0.93690  0.97940  0.39760  Biso   1.000  C
  C22      1.0000 0.06310  0.47940  0.60240  Biso   1.000  C
  H21      1.0000 0.79430  0.93460  0.40270  Biso   1.000  H
  H22      1.0000 0.20570  0.43460  0.59730  Biso   1.000  H
  H23      1.0000 0.05900  0.92650  0.42390  Biso   1.000  H
  H24      1.0000 0.94100  0.42650  0.57610  Biso   1.000  H
  C23      1.0000 0.92600  0.09020  0.46920  Biso   1.000  C
  C24      1.0000 0.07400  0.59020  0.53080  Biso   1.000  C
  O7       1.0000 0.92120  0.06340  0.56945  Biso   1.000  O
  O8       1.0000 0.07880  0.56340  0.43055  Biso   1.000  O
  O9       1.0000 0.92360  0.19440  0.43349  Biso   1.000  O
  O10      1.0000 0.07640  0.69440  0.56651  Biso   1.000  O
  C25      1.0000 0.44220  0.72310  0.83950  Biso   1.000  C
  C26      1.0000 0.55780  0.22310  0.16050  Biso   1.000  C
  H25      1.0000 0.43570  0.66510  0.78120  Biso   1.000  H
  H26      1.0000 0.56430  0.16510  0.21880  Biso   1.000  H
  H27      1.0000 0.59920  0.73900  0.85930  Biso   1.000  H
  H28      1.0000 0.40080  0.23900  0.14070  Biso   1.000  H
  H29      1.0000 0.36990  0.79810  0.81680  Biso   1.000  H
  H30      1.0000 0.63010  0.29810  0.18320  Biso   1.000  H
  O11      1.0000 0.65980  0.63920  0.37180  Biso   1.000  O
  O12      1.0000 0.34020  0.13920  0.62820  Biso   1.000  O
  H31      1.0000 0.52100  0.66100  0.34800  Biso   1.000  H
  H32      1.0000 0.47900  0.16100  0.65200  Biso   1.000  H
  H33      1.0000 0.64200  0.55880  0.38000  Biso   1.000  H
  H34      1.0000 0.35800  0.05880  0.62000  Biso   1.000  H
  O13      1.0000 0.16780  0.36060  0.32130  Biso   1.000  O
  O14      1.0000 0.83220  0.86060  0.67870  Biso   1.000  O
  H35      1.0000 0.10400  0.29400  0.34900  Biso   1.000  H
  H36      1.0000 0.89600  0.79400  0.65100  Biso   1.000  H
  H37      1.0000 0.14100  0.41600  0.37300  Biso   1.000  H
  H38      1.0000 0.85900  0.91600  0.62700  Biso   1.000  H
  O15      1.0000 0.60210  0.39780  0.41810  Biso   1.000  O
  O16      1.0000 0.39790  0.89780  0.58190  Biso   1.000  O
  H39      1.0000 0.47100  0.36400  0.39600  Biso   1.000  H
  H40      1.0000 0.52900  0.86400  0.60400  Biso   1.000  H
  H41      1.0000 0.68700  0.33100  0.42900  Biso   1.000  H
  H42      1.0000 0.31300  0.83100  0.57100  Biso   1.000  H
