data_image0
_cell_length_a       7.583
_cell_length_b       7.936
_cell_length_c       10.134
_cell_angle_alpha    76.489
_cell_angle_beta     76.103
_cell_angle_gamma    70.856

_symmetry_space_group_name_H-M    "P 1"
_symmetry_int_tables_number       1

loop_
  _symmetry_equiv_pos_as_xyz
  'x, y, z'

loop_
  _atom_site_label
  _atom_site_occupancy
  _atom_site_fract_x
  _atom_site_fract_y
  _atom_site_fract_z
  _atom_site_thermal_displace_type
  _atom_site_B_iso_or_equiv
  _atom_site_type_symbol
  Cu1      1.0000 0.50000  0.50000  0.50000  Biso   1.000  Cu
  C1       1.0000 0.15470  0.50760  0.70520  Biso   1.000  C
  C2       1.0000 0.84530  0.49240  0.29480  Biso   1.000  C
  C3       1.0000 0.07240  0.50300  0.85850  Biso   1.000  C
  C4       1.0000 0.92760  0.49700  0.14150  Biso   1.000  C
  C5       1.0000 0.09050  0.34000  0.94950  Biso   1.000  C
  C6       1.0000 0.90950  0.66000  0.05050  Biso   1.000  C
  C7       1.0000 0.98070  0.66280  0.91000  Biso   1.000  C
  C8       1.0000 0.01930  0.33720  0.09000  Biso   1.000  C
  C9       1.0000 0.63060  0.04410  0.55080  Biso   1.000  C
  C10      1.0000 0.36940  0.95590  0.44920  Biso   1.000  C
  H1       1.0000 0.58300  0.03450  0.64930  Biso   1.000  H
  H2       1.0000 0.41700  0.96550  0.35070  Biso   1.000  H
  H3       1.0000 0.74840  0.07580  0.53240  Biso   1.000  H
  H4       1.0000 0.25160  0.92420  0.46760  Biso   1.000  H
  C11      1.0000 0.66980  0.86490  0.50950  Biso   1.000  C
  C12      1.0000 0.33020  0.13510  0.49050  Biso   1.000  C
  H5       1.0000 0.75020  0.77260  0.56830  Biso   1.000  H
  H6       1.0000 0.24980  0.22740  0.43170  Biso   1.000  H
  H7       1.0000 0.73830  0.86800  0.41540  Biso   1.000  H
  H8       1.0000 0.26170  0.13200  0.58460  Biso   1.000  H
  C13      1.0000 0.57800  0.33750  0.94890  Biso   1.000  C
  C14      1.0000 0.42200  0.66250  0.05110  Biso   1.000  C
  H9       1.0000 0.68240  0.22850  0.93760  Biso   1.000  H
  H10      1.0000 0.31760  0.77150  0.06240  Biso   1.000  H
  H11      1.0000 0.47610  0.33160  0.90940  Biso   1.000  H
  H12      1.0000 0.52390  0.66840  0.09060  Biso   1.000  H
  C15      1.0000 0.50980  0.34620  0.10030  Biso   1.000  C
  C16      1.0000 0.49020  0.65380  0.89970  Biso   1.000  C
  H13      1.0000 0.46490  0.24220  0.14550  Biso   1.000  H
  H14      1.0000 0.53510  0.75780  0.85450  Biso   1.000  H
  H15      1.0000 0.61500  0.34110  0.14140  Biso   1.000  H
  H16      1.0000 0.38500  0.65890  0.85860  Biso   1.000  H
  Cl1      1.0000 0.20164  0.13997  0.88587  Biso   1.000  Cl
  Cl2      1.0000 0.79836  0.86003  0.11413  Biso   1.000  Cl
  Cl3      1.0000 0.95590  0.86692  0.79755  Biso   1.000  Cl
  Cl4      1.0000 0.04410  0.13308  0.20245  Biso   1.000  Cl
  O1       1.0000 0.04940  0.52060  0.62620  Biso   1.000  O
  O2       1.0000 0.95060  0.47940  0.37380  Biso   1.000  O
  O3       1.0000 0.32940  0.49800  0.67679  Biso   1.000  O
  O4       1.0000 0.67060  0.50200  0.32321  Biso   1.000  O
  O5       1.0000 0.49830  0.18270  0.48090  Biso   1.000  O
  O6       1.0000 0.50170  0.81730  0.51910  Biso   1.000  O
  O7       1.0000 0.29020  0.59150  0.39382  Biso   1.000  O
  O8       1.0000 0.70980  0.40850  0.60618  Biso   1.000  O
  H17      1.0000 0.20440  0.57640  0.43780  Biso   1.000  H
  H18      1.0000 0.79560  0.42360  0.56220  Biso   1.000  H
  H19      1.0000 0.30950  0.56330  0.31960  Biso   1.000  H
  H20      1.0000 0.69050  0.43670  0.68040  Biso   1.000  H
  O9       1.0000 0.63920  0.49220  0.87748  Biso   1.000  O
  O10      1.0000 0.36080  0.50780  0.12252  Biso   1.000  O
