data_image0
_cell_length_a       9.9291
_cell_length_b       10.2915
_cell_length_c       21.886
_cell_angle_alpha    79.664
_cell_angle_beta     79.563
_cell_angle_gamma    83.743

_symmetry_space_group_name_H-M    "P 1"
_symmetry_int_tables_number       1

loop_
  _symmetry_equiv_pos_as_xyz
  'x, y, z'

loop_
  _atom_site_label
  _atom_site_occupancy
  _atom_site_fract_x
  _atom_site_fract_y
  _atom_site_fract_z
  _atom_site_thermal_displace_type
  _atom_site_B_iso_or_equiv
  _atom_site_type_symbol
  Cu1      1.0000 0.06841  0.09401  0.79207  Biso   1.000  Cu
  Cu2      1.0000 0.93159  0.90599  0.20793  Biso   1.000  Cu
  Cu3      1.0000 0.08860  0.05999  0.29407  Biso   1.000  Cu
  Cu4      1.0000 0.91140  0.94001  0.70593  Biso   1.000  Cu
  Cl1      1.0000 0.34018  0.91006  0.96491  Biso   1.000  Cl
  Cl2      1.0000 0.65982  0.08994  0.03509  Biso   1.000  Cl
  Cl3      1.0000 0.34801  0.92200  0.10658  Biso   1.000  Cl
  Cl4      1.0000 0.65199  0.07800  0.89342  Biso   1.000  Cl
  Cl5      1.0000 0.96229  0.32533  0.95819  Biso   1.000  Cl
  Cl6      1.0000 0.03771  0.67467  0.04181  Biso   1.000  Cl
  Cl7      1.0000 0.96996  0.33886  0.09851  Biso   1.000  Cl
  Cl8      1.0000 0.03004  0.66114  0.90149  Biso   1.000  Cl
  Cl9      1.0000 0.34002  0.95080  0.47311  Biso   1.000  Cl
  Cl10     1.0000 0.65998  0.04920  0.52689  Biso   1.000  Cl
  Cl11     1.0000 0.32528  0.98702  0.61312  Biso   1.000  Cl
  Cl12     1.0000 0.67472  0.01298  0.38688  Biso   1.000  Cl
  Cl13     1.0000 0.92074  0.32288  0.44942  Biso   1.000  Cl
  Cl14     1.0000 0.07926  0.67712  0.55058  Biso   1.000  Cl
  Cl15     1.0000 0.91146  0.36616  0.58841  Biso   1.000  Cl
  Cl16     1.0000 0.08854  0.63384  0.41159  Biso   1.000  Cl
  O1       1.0000 0.23730  0.20160  0.86206  Biso   1.000  O
  O2       1.0000 0.76270  0.79840  0.13794  Biso   1.000  O
  O3       1.0000 0.07690  0.05690  0.88206  Biso   1.000  O
  O4       1.0000 0.92310  0.94310  0.11794  Biso   1.000  O
  O5       1.0000 0.23780  0.21490  0.17540  Biso   1.000  O
  O6       1.0000 0.76220  0.78510  0.82460  Biso   1.000  O
  O7       1.0000 0.07920  0.06780  0.20431  Biso   1.000  O
  O8       1.0000 0.92080  0.93220  0.79569  Biso   1.000  O
  O9       1.0000 0.22030  0.21030  0.36130  Biso   1.000  O
  O10      1.0000 0.77970  0.78970  0.63870  Biso   1.000  O
  O11      1.0000 0.08420  0.04360  0.38456  Biso   1.000  O
  O12      1.0000 0.91580  0.95640  0.61544  Biso   1.000  O
  O13      1.0000 0.18460  0.27780  0.67128  Biso   1.000  O
  O14      1.0000 0.81540  0.72220  0.32872  Biso   1.000  O
  O15      1.0000 0.04700  0.11250  0.70307  Biso   1.000  O
  O16      1.0000 0.95300  0.88750  0.29693  Biso   1.000  O
  O17      1.0000 0.93010  0.23930  0.80970  Biso   1.000  O
  O18      1.0000 0.06990  0.76070  0.19030  Biso   1.000  O
  O19      1.0000 0.23920  0.98330  0.77124  Biso   1.000  O
  O20      1.0000 0.76080  0.01670  0.22876  Biso   1.000  O
  O21      1.0000 0.25690  0.94120  0.28103  Biso   1.000  O
  O22      1.0000 0.74310  0.05880  0.71897  Biso   1.000  O
  O23      1.0000 0.94270  0.20380  0.30260  Biso   1.000  O
  O24      1.0000 0.05730  0.79620  0.69740  Biso   1.000  O
  O25      1.0000 0.60390  0.62110  0.10964  Biso   1.000  O
  O26      1.0000 0.39610  0.37890  0.89036  Biso   1.000  O
  H1       1.0000 0.65930  0.66960  0.11520  Biso   1.000  H
  H2       1.0000 0.34070  0.33040  0.88480  Biso   1.000  H
  O27      1.0000 0.38400  0.38350  0.39211  Biso   1.000  O
  O28      1.0000 0.61600  0.61650  0.60789  Biso   1.000  O
  H3       1.0000 0.33120  0.33200  0.38690  Biso   1.000  H
  H4       1.0000 0.66880  0.66800  0.61310  Biso   1.000  H
  C1       1.0000 0.93630  0.30930  0.26467  Biso   1.000  C
  C2       1.0000 0.06370  0.69070  0.73533  Biso   1.000  C
  H5       1.0000 0.00710  0.32270  0.23060  Biso   1.000  H
  H6       1.0000 0.99290  0.67730  0.76940  Biso   1.000  H
  N1       1.0000 0.78530  0.41830  0.78533  Biso   1.000  N
  N2       1.0000 0.21470  0.58170  0.21467  Biso   1.000  N
  N3       1.0000 0.39370  0.81410  0.79929  Biso   1.000  N
  N4       1.0000 0.60630  0.18590  0.20071  Biso   1.000  N
  N5       1.0000 0.42030  0.79040  0.31600  Biso   1.000  N
  N6       1.0000 0.57970  0.20960  0.68400  Biso   1.000  N
  N7       1.0000 0.83600  0.40240  0.26983  Biso   1.000  N
  N8       1.0000 0.16400  0.59760  0.73017  Biso   1.000  N
  C3       1.0000 0.15290  0.12000  0.96835  Biso   1.000  C
  C4       1.0000 0.84710  0.88000  0.03165  Biso   1.000  C
  C5       1.0000 0.23720  0.02840  0.00228  Biso   1.000  C
  C6       1.0000 0.76280  0.97160  0.99772  Biso   1.000  C
  C7       1.0000 0.24100  0.03310  0.06553  Biso   1.000  C
  C8       1.0000 0.75900  0.96690  0.93447  Biso   1.000  C
  C9       1.0000 0.15920  0.12870  0.09581  Biso   1.000  C
  C10      1.0000 0.84080  0.87130  0.90419  Biso   1.000  C
  C11      1.0000 0.07300  0.21740  0.06186  Biso   1.000  C
  C12      1.0000 0.92700  0.78260  0.93814  Biso   1.000  C
  C13      1.0000 0.06870  0.21300  0.99906  Biso   1.000  C
  C14      1.0000 0.93130  0.78700  0.00094  Biso   1.000  C
  C15      1.0000 0.15830  0.12700  0.89807  Biso   1.000  C
  C16      1.0000 0.84170  0.87300  0.10193  Biso   1.000  C
  C17      1.0000 0.16290  0.13910  0.16378  Biso   1.000  C
  C18      1.0000 0.83710  0.86090  0.83622  Biso   1.000  C
  C19      1.0000 0.13040  0.14100  0.46793  Biso   1.000  C
  C20      1.0000 0.86960  0.85900  0.53207  Biso   1.000  C
  C21      1.0000 0.21850  0.06400  0.50545  Biso   1.000  C
  C22      1.0000 0.78150  0.93600  0.49455  Biso   1.000  C
  C23      1.0000 0.21410  0.07990  0.56756  Biso   1.000  C
  C24      1.0000 0.78590  0.92010  0.43244  Biso   1.000  C
  C25      1.0000 0.11990  0.17400  0.59376  Biso   1.000  C
  C26      1.0000 0.88010  0.82600  0.40624  Biso   1.000  C
  C27      1.0000 0.03050  0.24910  0.55685  Biso   1.000  C
  C28      1.0000 0.96950  0.75090  0.44315  Biso   1.000  C
  C29      1.0000 0.03400  0.23160  0.49470  Biso   1.000  C
  C30      1.0000 0.96600  0.76840  0.50530  Biso   1.000  C
  C31      1.0000 0.14730  0.13210  0.39847  Biso   1.000  C
  C32      1.0000 0.85270  0.86790  0.60153  Biso   1.000  C
  C33      1.0000 0.11920  0.19250  0.66109  Biso   1.000  C
  C34      1.0000 0.88080  0.80750  0.33891  Biso   1.000  C
  C35      1.0000 0.83080  0.52220  0.22258  Biso   1.000  C
  C36      1.0000 0.16920  0.47780  0.77742  Biso   1.000  C
  H7       1.0000 0.91200  0.52120  0.19120  Biso   1.000  H
  H8       1.0000 0.08800  0.47880  0.80880  Biso   1.000  H
  H9       1.0000 0.82580  0.59880  0.24250  Biso   1.000  H
  H10      1.0000 0.17420  0.40120  0.75750  Biso   1.000  H
  H11      1.0000 0.75120  0.52530  0.20300  Biso   1.000  H
  H12      1.0000 0.24880  0.47470  0.79700  Biso   1.000  H
  C37      1.0000 0.72330  0.39280  0.32260  Biso   1.000  C
  C38      1.0000 0.27670  0.60720  0.67740  Biso   1.000  C
  H13      1.0000 0.73660  0.31110  0.35070  Biso   1.000  H
  H14      1.0000 0.26340  0.68890  0.64930  Biso   1.000  H
  H15      1.0000 0.63820  0.39500  0.30740  Biso   1.000  H
  H16      1.0000 0.36180  0.60500  0.69260  Biso   1.000  H
  H17      1.0000 0.72080  0.46590  0.34470  Biso   1.000  H
  H18      1.0000 0.27920  0.53410  0.65530  Biso   1.000  H
  C39      1.0000 0.50220  0.78820  0.25350  Biso   1.000  C
  C40      1.0000 0.49780  0.21180  0.74650  Biso   1.000  C
  H19      1.0000 0.50090  0.70300  0.24170  Biso   1.000  H
  H20      1.0000 0.49910  0.29700  0.75830  Biso   1.000  H
  H21      1.0000 0.59520  0.80460  0.25430  Biso   1.000  H
  H22      1.0000 0.40480  0.19540  0.74570  Biso   1.000  H
  H23      1.0000 0.46440  0.85550  0.22350  Biso   1.000  H
  H24      1.0000 0.53560  0.14450  0.77650  Biso   1.000  H
  C41      1.0000 0.46980  0.70200  0.36820  Biso   1.000  C
  C42      1.0000 0.53020  0.29800  0.63180  Biso   1.000  C
  H25      1.0000 0.41200  0.71660  0.40700  Biso   1.000  H
  H26      1.0000 0.58800  0.28340  0.59300  Biso   1.000  H
  H27      1.0000 0.56230  0.71910  0.36950  Biso   1.000  H
  H28      1.0000 0.43770  0.28090  0.63050  Biso   1.000  H
  H29      1.0000 0.46770  0.61180  0.36270  Biso   1.000  H
  H30      1.0000 0.53230  0.38820  0.63730  Biso   1.000  H
  C43      1.0000 0.30580  0.86650  0.32449  Biso   1.000  C
  C44      1.0000 0.69420  0.13350  0.67551  Biso   1.000  C
  H31      1.0000 0.25840  0.86460  0.36530  Biso   1.000  H
  H32      1.0000 0.74160  0.13540  0.63470  Biso   1.000  H
  C45      1.0000 0.73410  0.43440  0.84999  Biso   1.000  C
  C46      1.0000 0.26590  0.56560  0.15001  Biso   1.000  C
  H33      1.0000 0.77840  0.36690  0.87760  Biso   1.000  H
  H34      1.0000 0.22160  0.63310  0.12240  Biso   1.000  H
  H35      1.0000 0.63670  0.42690  0.85890  Biso   1.000  H
  H36      1.0000 0.36330  0.57310  0.14110  Biso   1.000  H
  H37      1.0000 0.75310  0.52010  0.85630  Biso   1.000  H
  H38      1.0000 0.24690  0.47990  0.14370  Biso   1.000  H
  C47      1.0000 0.72950  0.51450  0.73680  Biso   1.000  C
  C48      1.0000 0.27050  0.48550  0.26320  Biso   1.000  C
  H39      1.0000 0.77340  0.49660  0.69600  Biso   1.000  H
  H40      1.0000 0.22660  0.50340  0.30400  Biso   1.000  H
  H41      1.0000 0.74610  0.60220  0.74120  Biso   1.000  H
  H42      1.0000 0.25390  0.39780  0.25880  Biso   1.000  H
  H43      1.0000 0.63240  0.50770  0.74130  Biso   1.000  H
  H44      1.0000 0.36760  0.49230  0.25870  Biso   1.000  H
  C49      1.0000 0.87760  0.32100  0.77105  Biso   1.000  C
  C50      1.0000 0.12240  0.67900  0.22895  Biso   1.000  C
  H45      1.0000 0.90460  0.31410  0.72870  Biso   1.000  H
  H46      1.0000 0.09540  0.68590  0.27130  Biso   1.000  H
  C51      1.0000 0.27720  0.88640  0.80979  Biso   1.000  C
  C52      1.0000 0.72280  0.11360  0.19021  Biso   1.000  C
  H47      1.0000 0.21930  0.86470  0.84800  Biso   1.000  H
  H48      1.0000 0.78070  0.13530  0.15200  Biso   1.000  H
  C53      1.0000 0.49320  0.84320  0.74140  Biso   1.000  C
  C54      1.0000 0.50680  0.15680  0.25860  Biso   1.000  C
  H49      1.0000 0.49670  0.77490  0.71630  Biso   1.000  H
  H50      1.0000 0.50330  0.22510  0.28370  Biso   1.000  H
  H51      1.0000 0.58230  0.84680  0.75190  Biso   1.000  H
  H52      1.0000 0.41770  0.15320  0.24810  Biso   1.000  H
  H53      1.0000 0.46560  0.92700  0.71800  Biso   1.000  H
  H54      1.0000 0.53440  0.07300  0.28200  Biso   1.000  H
  C55      1.0000 0.43020  0.70210  0.84630  Biso   1.000  C
  C56      1.0000 0.56980  0.29790  0.15370  Biso   1.000  C
  H55      1.0000 0.35870  0.69510  0.88240  Biso   1.000  H
  H56      1.0000 0.64130  0.30490  0.11760  Biso   1.000  H
  H57      1.0000 0.51480  0.71560  0.85870  Biso   1.000  H
  H58      1.0000 0.48520  0.28440  0.14130  Biso   1.000  H
  H59      1.0000 0.44100  0.62190  0.82860  Biso   1.000  H
  H60      1.0000 0.55900  0.37810  0.17140  Biso   1.000  H
  C57      1.0000 0.61440  0.61960  0.04610  Biso   1.000  C
  C58      1.0000 0.38560  0.38040  0.95390  Biso   1.000  C
  H61      1.0000 0.59460  0.70770  0.02470  Biso   1.000  H
  H62      1.0000 0.40540  0.29230  0.97530  Biso   1.000  H
  H63      1.0000 0.55000  0.56230  0.03960  Biso   1.000  H
  H64      1.0000 0.45000  0.43770  0.96040  Biso   1.000  H
  H65      1.0000 0.70590  0.58770  0.02970  Biso   1.000  H
  H66      1.0000 0.29410  0.41230  0.97030  Biso   1.000  H
  C59      1.0000 0.41110  0.35330  0.45360  Biso   1.000  C
  C60      1.0000 0.58890  0.64670  0.54640  Biso   1.000  C
  H67      1.0000 0.47880  0.40870  0.45860  Biso   1.000  H
  H68      1.0000 0.52120  0.59130  0.54140  Biso   1.000  H
  H69      1.0000 0.44510  0.26200  0.46200  Biso   1.000  H
  H70      1.0000 0.55490  0.73800  0.53800  Biso   1.000  H
  H71      1.0000 0.32810  0.36830  0.48250  Biso   1.000  H
  H72      1.0000 0.67190  0.63170  0.51750  Biso   1.000  H
