data_image0
_cell_length_a       15.624
_cell_length_b       9.131
_cell_length_c       18.261
_cell_angle_alpha    90
_cell_angle_beta     107.847
_cell_angle_gamma    90

_symmetry_space_group_name_H-M    "P 1"
_symmetry_int_tables_number       1

loop_
  _symmetry_equiv_pos_as_xyz
  'x, y, z'

loop_
  _atom_site_label
  _atom_site_occupancy
  _atom_site_fract_x
  _atom_site_fract_y
  _atom_site_fract_z
  _atom_site_thermal_displace_type
  _atom_site_B_iso_or_equiv
  _atom_site_type_symbol
  Cu1      1.0000 0.00000  0.95709  0.25000  Biso   1.000  Cu
  Cu2      1.0000 0.50000  0.45709  0.25000  Biso   1.000  Cu
  Cu3      1.0000 0.00000  0.04291  0.75000  Biso   1.000  Cu
  Cu4      1.0000 0.50000  0.54291  0.75000  Biso   1.000  Cu
  C1       1.0000 0.12426  0.04810  0.39437  Biso   1.000  C
  C2       1.0000 0.87574  0.04810  0.10563  Biso   1.000  C
  C3       1.0000 0.62426  0.54810  0.39437  Biso   1.000  C
  C4       1.0000 0.37574  0.54810  0.10563  Biso   1.000  C
  C5       1.0000 0.87574  0.95190  0.60563  Biso   1.000  C
  C6       1.0000 0.12426  0.95190  0.89437  Biso   1.000  C
  C7       1.0000 0.37574  0.45190  0.60563  Biso   1.000  C
  C8       1.0000 0.62426  0.45190  0.89437  Biso   1.000  C
  C9       1.0000 0.18955  0.15250  0.44980  Biso   1.000  C
  C10      1.0000 0.81045  0.15250  0.05020  Biso   1.000  C
  C11      1.0000 0.68955  0.65250  0.44980  Biso   1.000  C
  C12      1.0000 0.31045  0.65250  0.05020  Biso   1.000  C
  C13      1.0000 0.81045  0.84750  0.55020  Biso   1.000  C
  C14      1.0000 0.18955  0.84750  0.94980  Biso   1.000  C
  C15      1.0000 0.31045  0.34750  0.55020  Biso   1.000  C
  C16      1.0000 0.68955  0.34750  0.94980  Biso   1.000  C
  C17      1.0000 0.16100  0.24530  0.49832  Biso   1.000  C
  C18      1.0000 0.83900  0.24530  0.00168  Biso   1.000  C
  C19      1.0000 0.66100  0.74530  0.49832  Biso   1.000  C
  C20      1.0000 0.33900  0.74530  0.00168  Biso   1.000  C
  C21      1.0000 0.83900  0.75470  0.50168  Biso   1.000  C
  C22      1.0000 0.16100  0.75470  0.99832  Biso   1.000  C
  C23      1.0000 0.33900  0.25470  0.50168  Biso   1.000  C
  C24      1.0000 0.66100  0.25470  0.99832  Biso   1.000  C
  C25      1.0000 0.22084  0.34160  0.54747  Biso   1.000  C
  C26      1.0000 0.77916  0.34160  0.95253  Biso   1.000  C
  C27      1.0000 0.72084  0.84160  0.54747  Biso   1.000  C
  C28      1.0000 0.27916  0.84160  0.95253  Biso   1.000  C
  C29      1.0000 0.77916  0.65840  0.45253  Biso   1.000  C
  C30      1.0000 0.22084  0.65840  0.04747  Biso   1.000  C
  C31      1.0000 0.27916  0.15840  0.45253  Biso   1.000  C
  C32      1.0000 0.72084  0.15840  0.04747  Biso   1.000  C
  C33      1.0000 0.17534  0.87060  0.23141  Biso   1.000  C
  C34      1.0000 0.82466  0.87060  0.26859  Biso   1.000  C
  C35      1.0000 0.67534  0.37060  0.23141  Biso   1.000  C
  C36      1.0000 0.32466  0.37060  0.26859  Biso   1.000  C
  C37      1.0000 0.82466  0.12940  0.76859  Biso   1.000  C
  C38      1.0000 0.17534  0.12940  0.73141  Biso   1.000  C
  C39      1.0000 0.32466  0.62940  0.76859  Biso   1.000  C
  C40      1.0000 0.67534  0.62940  0.73141  Biso   1.000  C
  H1       1.0000 0.17410  0.79820  0.26690  Biso   1.000  H
  H2       1.0000 0.82590  0.79820  0.23310  Biso   1.000  H
  H3       1.0000 0.67410  0.29820  0.26690  Biso   1.000  H
  H4       1.0000 0.32590  0.29820  0.23310  Biso   1.000  H
  H5       1.0000 0.82590  0.20180  0.73310  Biso   1.000  H
  H6       1.0000 0.17410  0.20180  0.76690  Biso   1.000  H
  H7       1.0000 0.32590  0.70180  0.73310  Biso   1.000  H
  H8       1.0000 0.67410  0.70180  0.76690  Biso   1.000  H
  C41      1.0000 0.24910  0.87980  0.20535  Biso   1.000  C
  C42      1.0000 0.75090  0.87980  0.29465  Biso   1.000  C
  C43      1.0000 0.74910  0.37980  0.20535  Biso   1.000  C
  C44      1.0000 0.25090  0.37980  0.29465  Biso   1.000  C
  C45      1.0000 0.75090  0.12020  0.79465  Biso   1.000  C
  C46      1.0000 0.24910  0.12020  0.70535  Biso   1.000  C
  C47      1.0000 0.25090  0.62020  0.79465  Biso   1.000  C
  C48      1.0000 0.74910  0.62020  0.70535  Biso   1.000  C
  H9       1.0000 0.29650  0.81420  0.22290  Biso   1.000  H
  H10      1.0000 0.70350  0.81420  0.27710  Biso   1.000  H
  H11      1.0000 0.79650  0.31420  0.22290  Biso   1.000  H
  H12      1.0000 0.20350  0.31420  0.27710  Biso   1.000  H
  H13      1.0000 0.70350  0.18580  0.77710  Biso   1.000  H
  H14      1.0000 0.29650  0.18580  0.72290  Biso   1.000  H
  H15      1.0000 0.20350  0.68580  0.77710  Biso   1.000  H
  H16      1.0000 0.79650  0.68580  0.72290  Biso   1.000  H
  C49      1.0000 0.25204  0.98650  0.15327  Biso   1.000  C
  C50      1.0000 0.74796  0.98650  0.34673  Biso   1.000  C
  C51      1.0000 0.75204  0.48650  0.15327  Biso   1.000  C
  C52      1.0000 0.24796  0.48650  0.34673  Biso   1.000  C
  C53      1.0000 0.74796  0.01350  0.84673  Biso   1.000  C
  C54      1.0000 0.25204  0.01350  0.65327  Biso   1.000  C
  C55      1.0000 0.24796  0.51350  0.84673  Biso   1.000  C
  C56      1.0000 0.75204  0.51350  0.65327  Biso   1.000  C
  H17      1.0000 0.30090  0.99330  0.13440  Biso   1.000  H
  H18      1.0000 0.69910  0.99330  0.36560  Biso   1.000  H
  H19      1.0000 0.80090  0.49330  0.13440  Biso   1.000  H
  H20      1.0000 0.19910  0.49330  0.36560  Biso   1.000  H
  H21      1.0000 0.69910  0.00670  0.86560  Biso   1.000  H
  H22      1.0000 0.30090  0.00670  0.63440  Biso   1.000  H
  H23      1.0000 0.19910  0.50670  0.86560  Biso   1.000  H
  H24      1.0000 0.80090  0.50670  0.63440  Biso   1.000  H
  C57      1.0000 0.18153  0.08330  0.12941  Biso   1.000  C
  C58      1.0000 0.81847  0.08330  0.37059  Biso   1.000  C
  C59      1.0000 0.68153  0.58330  0.12941  Biso   1.000  C
  C60      1.0000 0.31847  0.58330  0.37059  Biso   1.000  C
  C61      1.0000 0.81847  0.91670  0.87059  Biso   1.000  C
  C62      1.0000 0.18153  0.91670  0.62941  Biso   1.000  C
  C63      1.0000 0.31847  0.41670  0.87059  Biso   1.000  C
  C64      1.0000 0.68153  0.41670  0.62941  Biso   1.000  C
  H25      1.0000 0.18210  0.15740  0.09460  Biso   1.000  H
  H26      1.0000 0.81790  0.15740  0.40540  Biso   1.000  H
  H27      1.0000 0.68210  0.65740  0.09460  Biso   1.000  H
  H28      1.0000 0.31790  0.65740  0.40540  Biso   1.000  H
  H29      1.0000 0.81790  0.84260  0.90540  Biso   1.000  H
  H30      1.0000 0.18210  0.84260  0.59460  Biso   1.000  H
  H31      1.0000 0.31790  0.34260  0.90540  Biso   1.000  H
  H32      1.0000 0.68210  0.34260  0.59460  Biso   1.000  H
  C65      1.0000 0.10972  0.06860  0.15810  Biso   1.000  C
  C66      1.0000 0.89028  0.06860  0.34190  Biso   1.000  C
  C67      1.0000 0.60972  0.56860  0.15810  Biso   1.000  C
  C68      1.0000 0.39028  0.56860  0.34190  Biso   1.000  C
  C69      1.0000 0.89028  0.93140  0.84190  Biso   1.000  C
  C70      1.0000 0.10972  0.93140  0.65810  Biso   1.000  C
  C71      1.0000 0.39028  0.43140  0.84190  Biso   1.000  C
  C72      1.0000 0.60972  0.43140  0.65810  Biso   1.000  C
  H33      1.0000 0.06260  0.13520  0.14250  Biso   1.000  H
  H34      1.0000 0.93740  0.13520  0.35750  Biso   1.000  H
  H35      1.0000 0.56260  0.63520  0.14250  Biso   1.000  H
  H36      1.0000 0.43740  0.63520  0.35750  Biso   1.000  H
  H37      1.0000 0.93740  0.86480  0.85750  Biso   1.000  H
  H38      1.0000 0.06260  0.86480  0.64250  Biso   1.000  H
  H39      1.0000 0.43740  0.36480  0.85750  Biso   1.000  H
  H40      1.0000 0.56260  0.36480  0.64250  Biso   1.000  H
  C73      1.0000 0.00789  0.65530  0.31506  Biso   1.000  C
  C74      1.0000 0.99211  0.65530  0.18494  Biso   1.000  C
  C75      1.0000 0.50789  0.15530  0.31506  Biso   1.000  C
  C76      1.0000 0.49211  0.15530  0.18494  Biso   1.000  C
  C77      1.0000 0.99211  0.34470  0.68494  Biso   1.000  C
  C78      1.0000 0.00789  0.34470  0.81506  Biso   1.000  C
  C79      1.0000 0.49211  0.84470  0.68494  Biso   1.000  C
  C80      1.0000 0.50789  0.84470  0.81506  Biso   1.000  C
  H41      1.0000 0.01350  0.70680  0.36020  Biso   1.000  H
  H42      1.0000 0.98650  0.70680  0.13980  Biso   1.000  H
  H43      1.0000 0.51350  0.20680  0.36020  Biso   1.000  H
  H44      1.0000 0.48650  0.20680  0.13980  Biso   1.000  H
  H45      1.0000 0.98650  0.29320  0.63980  Biso   1.000  H
  H46      1.0000 0.01350  0.29320  0.86020  Biso   1.000  H
  H47      1.0000 0.48650  0.79320  0.63980  Biso   1.000  H
  H48      1.0000 0.51350  0.79320  0.86020  Biso   1.000  H
  C81      1.0000 0.00786  0.50380  0.31687  Biso   1.000  C
  C82      1.0000 0.99214  0.50380  0.18313  Biso   1.000  C
  C83      1.0000 0.50786  0.00380  0.31687  Biso   1.000  C
  C84      1.0000 0.49214  0.00380  0.18313  Biso   1.000  C
  C85      1.0000 0.99214  0.49620  0.68313  Biso   1.000  C
  C86      1.0000 0.00786  0.49620  0.81687  Biso   1.000  C
  C87      1.0000 0.49214  0.99620  0.68313  Biso   1.000  C
  C88      1.0000 0.50786  0.99620  0.81687  Biso   1.000  C
  H49      1.0000 0.01310  0.45430  0.36250  Biso   1.000  H
  H50      1.0000 0.98690  0.45430  0.13750  Biso   1.000  H
  H51      1.0000 0.51310  0.95430  0.36250  Biso   1.000  H
  H52      1.0000 0.48690  0.95430  0.13750  Biso   1.000  H
  H53      1.0000 0.98690  0.54570  0.63750  Biso   1.000  H
  H54      1.0000 0.01310  0.54570  0.86250  Biso   1.000  H
  H55      1.0000 0.48690  0.04570  0.63750  Biso   1.000  H
  H56      1.0000 0.51310  0.04570  0.86250  Biso   1.000  H
  C89      1.0000 0.00000  0.42720  0.25000  Biso   1.000  C
  C90      1.0000 0.50000  0.92720  0.25000  Biso   1.000  C
  C91      1.0000 0.00000  0.57280  0.75000  Biso   1.000  C
  C92      1.0000 0.50000  0.07280  0.75000  Biso   1.000  C
  H57      1.0000 0.00000  0.32540  0.25000  Biso   1.000  H
  H58      1.0000 0.50000  0.82540  0.25000  Biso   1.000  H
  H59      1.0000 0.00000  0.67460  0.75000  Biso   1.000  H
  H60      1.0000 0.50000  0.17460  0.75000  Biso   1.000  H
  Cl1      1.0000 0.05094  0.23462  0.49974  Biso   1.000  Cl
  Cl2      1.0000 0.94906  0.23462  0.00026  Biso   1.000  Cl
  Cl3      1.0000 0.55094  0.73462  0.49974  Biso   1.000  Cl
  Cl4      1.0000 0.44906  0.73462  0.00026  Biso   1.000  Cl
  Cl5      1.0000 0.94906  0.76538  0.50026  Biso   1.000  Cl
  Cl6      1.0000 0.05094  0.76538  0.99974  Biso   1.000  Cl
  Cl7      1.0000 0.44906  0.26538  0.50026  Biso   1.000  Cl
  Cl8      1.0000 0.55094  0.26538  0.99974  Biso   1.000  Cl
  Cl9      1.0000 0.18397  0.45362  0.60846  Biso   1.000  Cl
  Cl10     1.0000 0.81603  0.45362  0.89154  Biso   1.000  Cl
  Cl11     1.0000 0.68397  0.95362  0.60846  Biso   1.000  Cl
  Cl12     1.0000 0.31603  0.95362  0.89154  Biso   1.000  Cl
  Cl13     1.0000 0.81603  0.54638  0.39154  Biso   1.000  Cl
  Cl14     1.0000 0.18397  0.54638  0.10846  Biso   1.000  Cl
  Cl15     1.0000 0.31603  0.04638  0.39154  Biso   1.000  Cl
  Cl16     1.0000 0.68397  0.04638  0.10846  Biso   1.000  Cl
  N1       1.0000 0.10512  0.96245  0.20748  Biso   1.000  N
  N2       1.0000 0.89488  0.96245  0.29252  Biso   1.000  N
  N3       1.0000 0.60512  0.46245  0.20748  Biso   1.000  N
  N4       1.0000 0.39488  0.46245  0.29252  Biso   1.000  N
  N5       1.0000 0.89488  0.03755  0.79252  Biso   1.000  N
  N6       1.0000 0.10512  0.03755  0.70748  Biso   1.000  N
  N7       1.0000 0.39488  0.53755  0.79252  Biso   1.000  N
  N8       1.0000 0.60512  0.53755  0.70748  Biso   1.000  N
  N9       1.0000 0.00000  0.73030  0.25000  Biso   1.000  N
  N10      1.0000 0.50000  0.23030  0.25000  Biso   1.000  N
  N11      1.0000 0.00000  0.26970  0.75000  Biso   1.000  N
  N12      1.0000 0.50000  0.76970  0.75000  Biso   1.000  N
  O1       1.0000 0.07644  0.10650  0.33301  Biso   1.000  O
  O2       1.0000 0.92356  0.10650  0.16699  Biso   1.000  O
  O3       1.0000 0.57644  0.60650  0.33301  Biso   1.000  O
  O4       1.0000 0.42356  0.60650  0.16699  Biso   1.000  O
  O5       1.0000 0.92356  0.89350  0.66699  Biso   1.000  O
  O6       1.0000 0.07644  0.89350  0.83301  Biso   1.000  O
  O7       1.0000 0.42356  0.39350  0.66699  Biso   1.000  O
  O8       1.0000 0.57644  0.39350  0.83301  Biso   1.000  O
  O9       1.0000 0.12386  0.91940  0.41240  Biso   1.000  O
  O10      1.0000 0.87614  0.91940  0.08760  Biso   1.000  O
  O11      1.0000 0.62386  0.41940  0.41240  Biso   1.000  O
  O12      1.0000 0.37614  0.41940  0.08760  Biso   1.000  O
  O13      1.0000 0.87614  0.08060  0.58760  Biso   1.000  O
  O14      1.0000 0.12386  0.08060  0.91240  Biso   1.000  O
  O15      1.0000 0.37614  0.58060  0.58760  Biso   1.000  O
  O16      1.0000 0.62386  0.58060  0.91240  Biso   1.000  O
  O17      1.0000 0.30720  0.16860  0.02390  Biso   1.000  O
  O18      1.0000 0.69280  0.16860  0.47610  Biso   1.000  O
  O19      1.0000 0.80720  0.66860  0.02390  Biso   1.000  O
  O20      1.0000 0.19280  0.66860  0.47610  Biso   1.000  O
  O21      1.0000 0.69280  0.83140  0.97610  Biso   1.000  O
  O22      1.0000 0.30720  0.83140  0.52390  Biso   1.000  O
  O23      1.0000 0.19280  0.33140  0.97610  Biso   1.000  O
  O24      1.0000 0.80720  0.33140  0.52390  Biso   1.000  O
  H61      1.0000 0.32230  0.25240  0.04400  Biso   1.000  H
  H62      1.0000 0.67770  0.25240  0.45600  Biso   1.000  H
  H63      1.0000 0.82230  0.75240  0.04400  Biso   1.000  H
  H64      1.0000 0.17770  0.75240  0.45600  Biso   1.000  H
  H65      1.0000 0.67770  0.74760  0.95600  Biso   1.000  H
  H66      1.0000 0.32230  0.74760  0.54400  Biso   1.000  H
  H67      1.0000 0.17770  0.24760  0.95600  Biso   1.000  H
  H68      1.0000 0.82230  0.24760  0.54400  Biso   1.000  H
  H69      1.0000 0.25690  0.16270  0.98880  Biso   1.000  H
  H70      1.0000 0.74310  0.16270  0.51120  Biso   1.000  H
  H71      1.0000 0.75690  0.66270  0.98880  Biso   1.000  H
  H72      1.0000 0.24310  0.66270  0.51120  Biso   1.000  H
  H73      1.0000 0.74310  0.83730  0.01120  Biso   1.000  H
  H74      1.0000 0.25690  0.83730  0.48880  Biso   1.000  H
  H75      1.0000 0.24310  0.33730  0.01120  Biso   1.000  H
  H76      1.0000 0.75690  0.33730  0.48880  Biso   1.000  H
