data_image0
_cell_length_a       6.8879
_cell_length_b       16.14
_cell_length_c       8.2562
_cell_angle_alpha    90
_cell_angle_beta     90
_cell_angle_gamma    90

_symmetry_space_group_name_H-M    "P 1"
_symmetry_int_tables_number       1

loop_
  _symmetry_equiv_pos_as_xyz
  'x, y, z'

loop_
  _atom_site_label
  _atom_site_occupancy
  _atom_site_fract_x
  _atom_site_fract_y
  _atom_site_fract_z
  _atom_site_thermal_displace_type
  _atom_site_B_iso_or_equiv
  _atom_site_type_symbol
  F1       1.0000 0.05800  0.12400  0.00000  Biso   1.000  F
  F2       1.0000 0.94200  0.12400  0.00000  Biso   1.000  F
  F3       1.0000 0.55800  0.62400  0.00000  Biso   1.000  F
  F4       1.0000 0.44200  0.62400  0.00000  Biso   1.000  F
  F5       1.0000 0.24540  0.23730  0.00000  Biso   1.000  F
  F6       1.0000 0.75460  0.23730  0.00000  Biso   1.000  F
  F7       1.0000 0.74540  0.73730  0.00000  Biso   1.000  F
  F8       1.0000 0.25460  0.73730  0.00000  Biso   1.000  F
  F9       1.0000 0.20400  0.28030  0.00000  Biso   1.000  F
  F10      1.0000 0.79600  0.28030  0.00000  Biso   1.000  F
  F11      1.0000 0.70400  0.78030  0.00000  Biso   1.000  F
  F12      1.0000 0.29600  0.78030  0.00000  Biso   1.000  F
  Cu1      1.0000 0.00000  0.22440  0.50000  Biso   1.000  Cu
  Cu2      1.0000 0.50000  0.72440  0.50000  Biso   1.000  Cu
  N1       1.0000 0.00000  0.34890  0.50000  Biso   1.000  N
  N2       1.0000 0.50000  0.84890  0.50000  Biso   1.000  N
  C1       1.0000 0.00000  0.39670  0.36000  Biso   1.000  C
  C2       1.0000 0.00000  0.39670  0.64000  Biso   1.000  C
  C3       1.0000 0.50000  0.89670  0.36000  Biso   1.000  C
  C4       1.0000 0.50000  0.89670  0.64000  Biso   1.000  C
  H1       1.0000 0.00000  0.36970  0.26050  Biso   1.000  H
  H2       1.0000 0.00000  0.36970  0.73950  Biso   1.000  H
  H3       1.0000 0.50000  0.86970  0.26050  Biso   1.000  H
  H4       1.0000 0.50000  0.86970  0.73950  Biso   1.000  H
  F13      1.0000 0.00000  0.22640  0.20910  Biso   1.000  F
  F14      1.0000 0.00000  0.22640  0.79090  Biso   1.000  F
  F15      1.0000 0.50000  0.72640  0.20910  Biso   1.000  F
  F16      1.0000 0.50000  0.72640  0.79090  Biso   1.000  F
  N3       1.0000 0.70270  0.22670  0.50000  Biso   1.000  N
  N4       1.0000 0.29730  0.22670  0.50000  Biso   1.000  N
  N5       1.0000 0.20270  0.72670  0.50000  Biso   1.000  N
  N6       1.0000 0.79730  0.72670  0.50000  Biso   1.000  N
  N7       1.0000 0.00000  0.09710  0.50000  Biso   1.000  N
  N8       1.0000 0.50000  0.59710  0.50000  Biso   1.000  N
  N9       1.0000 0.00000  0.52330  0.50000  Biso   1.000  N
  N10      1.0000 0.50000  0.02330  0.50000  Biso   1.000  N
  C5       1.0000 0.00000  0.48360  0.36110  Biso   1.000  C
  C6       1.0000 0.00000  0.48360  0.63890  Biso   1.000  C
  C7       1.0000 0.50000  0.98360  0.36110  Biso   1.000  C
  C8       1.0000 0.50000  0.98360  0.63890  Biso   1.000  C
  H5       1.0000 0.00000  0.51290  0.26410  Biso   1.000  H
  H6       1.0000 0.00000  0.51290  0.73590  Biso   1.000  H
  H7       1.0000 0.50000  0.01290  0.26410  Biso   1.000  H
  H8       1.0000 0.50000  0.01290  0.73590  Biso   1.000  H
  Si1      1.0000 0.00000  0.22350  0.00000  Biso   1.000  Si
  Si2      1.0000 0.50000  0.72350  0.00000  Biso   1.000  Si
  C9       1.0000 0.60110  0.22530  0.36260  Biso   1.000  C
  C10      1.0000 0.39890  0.22530  0.63740  Biso   1.000  C
  C11      1.0000 0.39890  0.22530  0.36260  Biso   1.000  C
  C12      1.0000 0.60110  0.22530  0.63740  Biso   1.000  C
  C13      1.0000 0.10110  0.72530  0.36260  Biso   1.000  C
  C14      1.0000 0.89890  0.72530  0.63740  Biso   1.000  C
  C15      1.0000 0.89890  0.72530  0.36260  Biso   1.000  C
  C16      1.0000 0.10110  0.72530  0.63740  Biso   1.000  C
  H9       1.0000 0.66690  0.22430  0.26430  Biso   1.000  H
  H10      1.0000 0.33310  0.22430  0.73570  Biso   1.000  H
  H11      1.0000 0.33310  0.22430  0.26430  Biso   1.000  H
  H12      1.0000 0.66690  0.22430  0.73570  Biso   1.000  H
  H13      1.0000 0.16690  0.72430  0.26430  Biso   1.000  H
  H14      1.0000 0.83310  0.72430  0.73570  Biso   1.000  H
  H15      1.0000 0.83310  0.72430  0.26430  Biso   1.000  H
  H16      1.0000 0.16690  0.72430  0.73570  Biso   1.000  H
  N11      1.0000 0.00000  0.92370  0.50000  Biso   1.000  N
  N12      1.0000 0.50000  0.42370  0.50000  Biso   1.000  N
  C17      1.0000 0.00000  0.97140  0.36700  Biso   1.000  C
  C18      1.0000 0.00000  0.97140  0.63300  Biso   1.000  C
  C19      1.0000 0.50000  0.47140  0.36700  Biso   1.000  C
  C20      1.0000 0.50000  0.47140  0.63300  Biso   1.000  C
  H17      1.0000 0.00000  0.94440  0.26750  Biso   1.000  H
  H18      1.0000 0.00000  0.94440  0.73250  Biso   1.000  H
  H19      1.0000 0.50000  0.44440  0.26750  Biso   1.000  H
  H20      1.0000 0.50000  0.44440  0.73250  Biso   1.000  H
  C21      1.0000 0.00000  0.05700  0.36450  Biso   1.000  C
  C22      1.0000 0.00000  0.05700  0.63550  Biso   1.000  C
  C23      1.0000 0.50000  0.55700  0.36450  Biso   1.000  C
  C24      1.0000 0.50000  0.55700  0.63550  Biso   1.000  C
  H21      1.0000 0.00000  0.08540  0.26650  Biso   1.000  H
  H22      1.0000 0.00000  0.08540  0.73350  Biso   1.000  H
  H23      1.0000 0.50000  0.58540  0.26650  Biso   1.000  H
  H24      1.0000 0.50000  0.58540  0.73350  Biso   1.000  H
  F17      1.0000 0.14300  0.13930  0.00000  Biso   1.000  F
  F18      1.0000 0.85700  0.13930  0.00000  Biso   1.000  F
  F19      1.0000 0.64300  0.63930  0.00000  Biso   1.000  F
  F20      1.0000 0.35700  0.63930  0.00000  Biso   1.000  F
  F21      1.0000 0.05800  0.32730  0.00000  Biso   1.000  F
  F22      1.0000 0.94200  0.32730  0.00000  Biso   1.000  F
  F23      1.0000 0.55800  0.82730  0.00000  Biso   1.000  F
  F24      1.0000 0.44200  0.82730  0.00000  Biso   1.000  F
  F25      1.0000 0.23000  0.18880  0.00000  Biso   1.000  F
  F26      1.0000 0.77000  0.18880  0.00000  Biso   1.000  F
  F27      1.0000 0.73000  0.68880  0.00000  Biso   1.000  F
  F28      1.0000 0.27000  0.68880  0.00000  Biso   1.000  F
  O1       1.0000 0.50000  0.03200  0.00000  Biso   1.000  O
  O2       1.0000 0.00000  0.53200  0.00000  Biso   1.000  O
  O3       1.0000 0.50000  0.36810  0.00000  Biso   1.000  O
  O4       1.0000 0.00000  0.86810  0.00000  Biso   1.000  O
