data_image0
_cell_length_a       10.737
_cell_length_b       6.8406
_cell_length_c       7.763
_cell_angle_alpha    90
_cell_angle_beta     128.12
_cell_angle_gamma    90

_symmetry_space_group_name_H-M    "P 1"
_symmetry_int_tables_number       1

loop_
  _symmetry_equiv_pos_as_xyz
  'x, y, z'

loop_
  _atom_site_label
  _atom_site_occupancy
  _atom_site_fract_x
  _atom_site_fract_y
  _atom_site_fract_z
  _atom_site_thermal_displace_type
  _atom_site_B_iso_or_equiv
  _atom_site_type_symbol
  Cu1      1.0000 0.00000  0.50000  0.50000  Biso   1.000  Cu
  Cu2      1.0000 0.50000  0.00000  0.50000  Biso   1.000  Cu
  O1       1.0000 0.77460  0.50000  0.25180  Biso   1.000  O
  O2       1.0000 0.22540  0.50000  0.74820  Biso   1.000  O
  O3       1.0000 0.27460  0.00000  0.25180  Biso   1.000  O
  O4       1.0000 0.72540  0.00000  0.74820  Biso   1.000  O
  N1       1.0000 0.00000  0.20310  0.50000  Biso   1.000  N
  N2       1.0000 0.50000  0.70310  0.50000  Biso   1.000  N
  N3       1.0000 0.00000  0.79690  0.50000  Biso   1.000  N
  N4       1.0000 0.50000  0.29690  0.50000  Biso   1.000  N
  C1       1.0000 0.05720  0.10120  0.41580  Biso   1.000  C
  C2       1.0000 0.94280  0.10120  0.58420  Biso   1.000  C
  C3       1.0000 0.55720  0.60120  0.41580  Biso   1.000  C
  C4       1.0000 0.44280  0.60120  0.58420  Biso   1.000  C
  C5       1.0000 0.94280  0.89880  0.58420  Biso   1.000  C
  C6       1.0000 0.05720  0.89880  0.41580  Biso   1.000  C
  C7       1.0000 0.44280  0.39880  0.58420  Biso   1.000  C
  C8       1.0000 0.55720  0.39880  0.41580  Biso   1.000  C
  Si1      1.0000 0.00000  0.50000  0.00000  Biso   1.000  Si
  Si2      1.0000 0.50000  0.00000  0.00000  Biso   1.000  Si
  F1       1.0000 0.92190  0.50000  0.73220  Biso   1.000  F
  F2       1.0000 0.07810  0.50000  0.26780  Biso   1.000  F
  F3       1.0000 0.42190  0.00000  0.73220  Biso   1.000  F
  F4       1.0000 0.57810  0.00000  0.26780  Biso   1.000  F
  F5       1.0000 0.87110  0.67290  0.95060  Biso   1.000  F
  F6       1.0000 0.12890  0.67290  0.04940  Biso   1.000  F
  F7       1.0000 0.37110  0.17290  0.95060  Biso   1.000  F
  F8       1.0000 0.62890  0.17290  0.04940  Biso   1.000  F
  F9       1.0000 0.12890  0.32710  0.04940  Biso   1.000  F
  F10      1.0000 0.87110  0.32710  0.95060  Biso   1.000  F
  F11      1.0000 0.62890  0.82710  0.04940  Biso   1.000  F
  F12      1.0000 0.37110  0.82710  0.95060  Biso   1.000  F
  H1       1.0000 0.10100  0.17100  0.36800  Biso   1.000  H
  H2       1.0000 0.89900  0.17100  0.63200  Biso   1.000  H
  H3       1.0000 0.60100  0.67100  0.36800  Biso   1.000  H
  H4       1.0000 0.39900  0.67100  0.63200  Biso   1.000  H
  H5       1.0000 0.89900  0.82900  0.63200  Biso   1.000  H
  H6       1.0000 0.10100  0.82900  0.36800  Biso   1.000  H
  H7       1.0000 0.39900  0.32900  0.63200  Biso   1.000  H
  H8       1.0000 0.60100  0.32900  0.36800  Biso   1.000  H
  H9       1.0000 0.74100  0.58800  0.19200  Biso   1.000  H
  H10      1.0000 0.25900  0.58800  0.80800  Biso   1.000  H
  H11      1.0000 0.24100  0.08800  0.19200  Biso   1.000  H
  H12      1.0000 0.75900  0.08800  0.80800  Biso   1.000  H
  H13      1.0000 0.25900  0.41200  0.80800  Biso   1.000  H
  H14      1.0000 0.74100  0.41200  0.19200  Biso   1.000  H
  H15      1.0000 0.75900  0.91200  0.80800  Biso   1.000  H
  H16      1.0000 0.24100  0.91200  0.19200  Biso   1.000  H
