data_image0
_cell_length_a       7.7882
_cell_length_b       10.6489
_cell_length_c       13.2933
_cell_angle_alpha    90
_cell_angle_beta     90.7
_cell_angle_gamma    90

_symmetry_space_group_name_H-M    "P 1"
_symmetry_int_tables_number       1

loop_
  _symmetry_equiv_pos_as_xyz
  'x, y, z'

loop_
  _atom_site_label
  _atom_site_occupancy
  _atom_site_fract_x
  _atom_site_fract_y
  _atom_site_fract_z
  _atom_site_thermal_displace_type
  _atom_site_B_iso_or_equiv
  _atom_site_type_symbol
  Ru1      1.0000 0.50000  0.50000  0.50000  Biso   1.000  Ru
  Ru2      1.0000 0.00000  0.00000  0.00000  Biso   1.000  Ru
  Cu1      1.0000 0.50740  0.22456  0.18429  Biso   1.000  Cu
  Cu2      1.0000 0.99260  0.72456  0.31571  Biso   1.000  Cu
  Cu3      1.0000 0.49260  0.77544  0.81571  Biso   1.000  Cu
  Cu4      1.0000 0.00740  0.27544  0.68429  Biso   1.000  Cu
  N1       1.0000 0.46300  0.32780  0.30550  Biso   1.000  N
  N2       1.0000 0.03700  0.82780  0.19450  Biso   1.000  N
  N3       1.0000 0.53700  0.67220  0.69450  Biso   1.000  N
  N4       1.0000 0.96300  0.17220  0.80550  Biso   1.000  N
  N5       1.0000 0.22380  0.69260  0.41020  Biso   1.000  N
  N6       1.0000 0.27620  0.19260  0.08980  Biso   1.000  N
  N7       1.0000 0.77620  0.30740  0.58980  Biso   1.000  N
  N8       1.0000 0.72380  0.80740  0.91020  Biso   1.000  N
  N9       1.0000 0.19330  0.36620  0.61160  Biso   1.000  N
  N10      1.0000 0.30670  0.86620  0.88840  Biso   1.000  N
  N11      1.0000 0.80670  0.63380  0.38840  Biso   1.000  N
  N12      1.0000 0.69330  0.13380  0.11160  Biso   1.000  N
  N13      1.0000 0.55620  0.38070  0.10130  Biso   1.000  N
  N14      1.0000 0.94380  0.88070  0.39870  Biso   1.000  N
  N15      1.0000 0.44380  0.61930  0.89870  Biso   1.000  N
  N16      1.0000 0.05620  0.11930  0.60130  Biso   1.000  N
  N17      1.0000 0.05290  0.56800  0.24110  Biso   1.000  N
  N18      1.0000 0.44710  0.06800  0.25890  Biso   1.000  N
  N19      1.0000 0.94710  0.43200  0.75890  Biso   1.000  N
  N20      1.0000 0.55290  0.93200  0.74110  Biso   1.000  N
  C1       1.0000 0.47100  0.38820  0.37660  Biso   1.000  C
  C2       1.0000 0.02900  0.88820  0.12340  Biso   1.000  C
  C3       1.0000 0.52900  0.61180  0.62340  Biso   1.000  C
  C4       1.0000 0.97100  0.11180  0.87660  Biso   1.000  C
  C5       1.0000 0.32730  0.62500  0.44290  Biso   1.000  C
  C6       1.0000 0.17270  0.12500  0.05710  Biso   1.000  C
  C7       1.0000 0.67270  0.37500  0.55710  Biso   1.000  C
  C8       1.0000 0.82730  0.87500  0.94290  Biso   1.000  C
  C9       1.0000 0.30620  0.41210  0.57080  Biso   1.000  C
  C10      1.0000 0.19380  0.91210  0.92920  Biso   1.000  C
  C11      1.0000 0.69380  0.58790  0.42920  Biso   1.000  C
  C12      1.0000 0.80620  0.08790  0.07080  Biso   1.000  C
  C13      1.0000 0.72570  0.41710  0.06420  Biso   1.000  C
  C14      1.0000 0.77430  0.91710  0.43580  Biso   1.000  C
  C15      1.0000 0.27430  0.58290  0.93580  Biso   1.000  C
  C16      1.0000 0.22570  0.08290  0.56420  Biso   1.000  C
  C17      1.0000 0.99930  0.52610  0.14270  Biso   1.000  C
  C18      1.0000 0.50070  0.02610  0.35730  Biso   1.000  C
  C19      1.0000 0.00070  0.47390  0.85730  Biso   1.000  C
  C20      1.0000 0.49930  0.97390  0.64270  Biso   1.000  C
  C21      1.0000 0.82600  0.53100  0.11550  Biso   1.000  C
  C22      1.0000 0.67400  0.03100  0.38450  Biso   1.000  C
  C23      1.0000 0.17400  0.46900  0.88450  Biso   1.000  C
  C24      1.0000 0.32600  0.96900  0.61550  Biso   1.000  C
  C25      1.0000 0.81020  0.46470  0.17010  Biso   1.000  C
  C26      1.0000 0.68980  0.96470  0.32990  Biso   1.000  C
  C27      1.0000 0.18980  0.53530  0.82990  Biso   1.000  C
  C28      1.0000 0.31020  0.03530  0.67010  Biso   1.000  C
  C29      1.0000 0.87670  0.42270  0.12260  Biso   1.000  C
  C30      1.0000 0.62330  0.92270  0.37740  Biso   1.000  C
  C31      1.0000 0.12330  0.57730  0.87740  Biso   1.000  C
  C32      1.0000 0.37670  0.07730  0.62260  Biso   1.000  C
  C33      1.0000 0.77100  0.41710  0.15880  Biso   1.000  C
  C34      1.0000 0.72900  0.91710  0.34120  Biso   1.000  C
  C35      1.0000 0.22900  0.58290  0.84120  Biso   1.000  C
  C36      1.0000 0.27100  0.08290  0.65880  Biso   1.000  C
  O1       1.0000 0.07090  0.11890  0.30280  Biso   1.000  O
  O2       1.0000 0.42910  0.61890  0.19720  Biso   1.000  O
  O3       1.0000 0.92910  0.88110  0.69720  Biso   1.000  O
  O4       1.0000 0.57090  0.38110  0.80280  Biso   1.000  O
  O5       1.0000 0.01230  0.34880  0.39650  Biso   1.000  O
  O6       1.0000 0.48770  0.84880  0.10350  Biso   1.000  O
  O7       1.0000 0.98770  0.65120  0.60350  Biso   1.000  O
  O8       1.0000 0.51230  0.15120  0.89650  Biso   1.000  O
  H1       1.0000 0.48460  0.37630  0.04580  Biso   1.000  H
  H2       1.0000 0.01540  0.87630  0.45420  Biso   1.000  H
  H3       1.0000 0.51540  0.62370  0.95420  Biso   1.000  H
  H4       1.0000 0.98460  0.12370  0.54580  Biso   1.000  H
  H5       1.0000 0.17090  0.56850  0.23850  Biso   1.000  H
  H6       1.0000 0.32910  0.06850  0.26150  Biso   1.000  H
  H7       1.0000 0.82910  0.43150  0.76150  Biso   1.000  H
  H8       1.0000 0.67090  0.93150  0.73850  Biso   1.000  H
  H9       1.0000 0.02490  0.50340  0.28390  Biso   1.000  H
  H10      1.0000 0.47510  0.00340  0.21610  Biso   1.000  H
  H11      1.0000 0.97510  0.49660  0.71610  Biso   1.000  H
  H12      1.0000 0.52490  0.99660  0.78390  Biso   1.000  H
  H13      1.0000 0.49560  0.45150  0.14700  Biso   1.000  H
  H14      1.0000 0.00440  0.95150  0.35300  Biso   1.000  H
  H15      1.0000 0.50440  0.54850  0.85300  Biso   1.000  H
  H16      1.0000 0.99560  0.04850  0.64700  Biso   1.000  H
  H17      1.0000 0.71990  0.48510  0.01340  Biso   1.000  H
  H18      1.0000 0.78010  0.98510  0.48660  Biso   1.000  H
  H19      1.0000 0.28010  0.51490  0.98660  Biso   1.000  H
  H20      1.0000 0.21990  0.01490  0.51340  Biso   1.000  H
  H21      1.0000 0.78850  0.34410  0.03670  Biso   1.000  H
  H22      1.0000 0.71150  0.84410  0.46330  Biso   1.000  H
  H23      1.0000 0.21150  0.65590  0.96330  Biso   1.000  H
  H24      1.0000 0.28850  0.15590  0.53670  Biso   1.000  H
  H25      1.0000 0.71250  0.43820  0.99200  Biso   1.000  H
  H26      1.0000 0.78750  0.93820  0.50800  Biso   1.000  H
  H27      1.0000 0.28750  0.56180  0.00800  Biso   1.000  H
  H28      1.0000 0.21250  0.06180  0.49200  Biso   1.000  H
  H29      1.0000 0.79960  0.34160  0.06840  Biso   1.000  H
  H30      1.0000 0.70040  0.84160  0.43160  Biso   1.000  H
  H31      1.0000 0.20040  0.65840  0.93160  Biso   1.000  H
  H32      1.0000 0.29960  0.15840  0.56840  Biso   1.000  H
  H33      1.0000 0.75280  0.35660  0.01000  Biso   1.000  H
  H34      1.0000 0.74720  0.85660  0.49000  Biso   1.000  H
  H35      1.0000 0.24720  0.64340  0.99000  Biso   1.000  H
  H36      1.0000 0.25280  0.14340  0.51000  Biso   1.000  H
  H37      1.0000 0.71280  0.50020  0.03160  Biso   1.000  H
  H38      1.0000 0.78720  0.00020  0.46840  Biso   1.000  H
  H39      1.0000 0.28720  0.49980  0.96840  Biso   1.000  H
  H40      1.0000 0.21280  0.99980  0.53160  Biso   1.000  H
  H41      1.0000 0.78130  0.35220  0.02230  Biso   1.000  H
  H42      1.0000 0.71870  0.85220  0.47770  Biso   1.000  H
  H43      1.0000 0.21870  0.64780  0.97770  Biso   1.000  H
  H44      1.0000 0.28130  0.14780  0.52230  Biso   1.000  H
  H45      1.0000 0.73220  0.50140  0.03300  Biso   1.000  H
  H46      1.0000 0.76780  0.00140  0.46700  Biso   1.000  H
  H47      1.0000 0.26780  0.49860  0.96700  Biso   1.000  H
  H48      1.0000 0.23220  0.99860  0.53300  Biso   1.000  H
  H49      1.0000 0.81340  0.62290  0.17350  Biso   1.000  H
  H50      1.0000 0.68660  0.12290  0.32650  Biso   1.000  H
  H51      1.0000 0.18660  0.37710  0.82650  Biso   1.000  H
  H52      1.0000 0.31340  0.87710  0.67350  Biso   1.000  H
  H53      1.0000 0.93210  0.55230  0.09510  Biso   1.000  H
  H54      1.0000 0.56790  0.05230  0.40490  Biso   1.000  H
  H55      1.0000 0.06790  0.44770  0.90490  Biso   1.000  H
  H56      1.0000 0.43210  0.94770  0.59510  Biso   1.000  H
  H57      1.0000 0.81010  0.51610  0.21650  Biso   1.000  H
  H58      1.0000 0.68990  0.01610  0.28350  Biso   1.000  H
  H59      1.0000 0.18990  0.48390  0.78350  Biso   1.000  H
  H60      1.0000 0.31010  0.98390  0.71650  Biso   1.000  H
  H61      1.0000 0.85980  0.63940  0.16170  Biso   1.000  H
  H62      1.0000 0.64020  0.13940  0.33830  Biso   1.000  H
  H63      1.0000 0.14020  0.36060  0.83830  Biso   1.000  H
  H64      1.0000 0.35980  0.86060  0.66170  Biso   1.000  H
  H65      1.0000 0.71480  0.48280  0.21640  Biso   1.000  H
  H66      1.0000 0.78520  0.98280  0.28360  Biso   1.000  H
  H67      1.0000 0.28520  0.51720  0.78360  Biso   1.000  H
  H68      1.0000 0.21480  0.01720  0.71640  Biso   1.000  H
  H69      1.0000 0.87920  0.39580  0.20000  Biso   1.000  H
  H70      1.0000 0.62080  0.89580  0.30000  Biso   1.000  H
  H71      1.0000 0.12080  0.60420  0.80000  Biso   1.000  H
  H72      1.0000 0.37920  0.10420  0.70000  Biso   1.000  H
  H73      1.0000 0.89590  0.56150  0.05900  Biso   1.000  H
  H74      1.0000 0.60410  0.06150  0.44100  Biso   1.000  H
  H75      1.0000 0.10410  0.43850  0.94100  Biso   1.000  H
  H76      1.0000 0.39590  0.93850  0.55900  Biso   1.000  H
  H77      1.0000 0.73250  0.59360  0.12120  Biso   1.000  H
  H78      1.0000 0.76750  0.09360  0.37880  Biso   1.000  H
  H79      1.0000 0.26750  0.40640  0.87880  Biso   1.000  H
  H80      1.0000 0.23250  0.90640  0.62120  Biso   1.000  H
  H81      1.0000 0.10450  0.50170  0.10660  Biso   1.000  H
  H82      1.0000 0.39550  0.00170  0.39340  Biso   1.000  H
  H83      1.0000 0.89550  0.49830  0.89340  Biso   1.000  H
  H84      1.0000 0.60450  0.99830  0.60660  Biso   1.000  H
  H85      1.0000 0.95300  0.60110  0.10760  Biso   1.000  H
  H86      1.0000 0.54700  0.10110  0.39240  Biso   1.000  H
  H87      1.0000 0.04700  0.39890  0.89240  Biso   1.000  H
  H88      1.0000 0.45300  0.89890  0.60760  Biso   1.000  H
  H89      1.0000 0.91420  0.56690  0.08690  Biso   1.000  H
  H90      1.0000 0.58580  0.06690  0.41310  Biso   1.000  H
  H91      1.0000 0.08580  0.43310  0.91310  Biso   1.000  H
  H92      1.0000 0.41420  0.93310  0.58690  Biso   1.000  H
  H93      1.0000 0.03240  0.44150  0.10260  Biso   1.000  H
  H94      1.0000 0.46760  0.94150  0.39740  Biso   1.000  H
  H95      1.0000 0.96760  0.55850  0.89740  Biso   1.000  H
  H96      1.0000 0.53240  0.05850  0.60260  Biso   1.000  H
  H97      1.0000 0.94750  0.35010  0.10210  Biso   1.000  H
  H98      1.0000 0.55250  0.85010  0.39790  Biso   1.000  H
  H99      1.0000 0.05250  0.64990  0.89790  Biso   1.000  H
  H100     1.0000 0.44750  0.14990  0.60210  Biso   1.000  H
  H101     1.0000 0.83440  0.40180  0.19050  Biso   1.000  H
  H102     1.0000 0.66560  0.90180  0.30950  Biso   1.000  H
  H103     1.0000 0.16560  0.59820  0.80950  Biso   1.000  H
  H104     1.0000 0.33440  0.09820  0.69050  Biso   1.000  H
  H105     1.0000 0.78820  0.49740  0.19510  Biso   1.000  H
  H106     1.0000 0.71180  0.99740  0.30490  Biso   1.000  H
  H107     1.0000 0.21180  0.50260  0.80490  Biso   1.000  H
  H108     1.0000 0.28820  0.00260  0.69510  Biso   1.000  H
  H109     1.0000 0.83850  0.34480  0.18420  Biso   1.000  H
  H110     1.0000 0.66150  0.84480  0.31580  Biso   1.000  H
  H111     1.0000 0.16150  0.65520  0.81580  Biso   1.000  H
  H112     1.0000 0.33850  0.15520  0.68420  Biso   1.000  H
  H113     1.0000 0.05900  0.19900  0.32700  Biso   1.000  H
  H114     1.0000 0.44100  0.69900  0.17300  Biso   1.000  H
  H115     1.0000 0.94100  0.80100  0.67300  Biso   1.000  H
  H116     1.0000 0.55900  0.30100  0.82700  Biso   1.000  H
  H117     1.0000 0.00200  0.07000  0.34200  Biso   1.000  H
  H118     1.0000 0.49800  0.57000  0.15800  Biso   1.000  H
  H119     1.0000 0.99800  0.93000  0.65800  Biso   1.000  H
  H120     1.0000 0.50200  0.43000  0.84200  Biso   1.000  H
  H121     1.0000 0.95800  0.42200  0.38600  Biso   1.000  H
  H122     1.0000 0.54200  0.92200  0.11400  Biso   1.000  H
  H123     1.0000 0.04200  0.57800  0.61400  Biso   1.000  H
  H124     1.0000 0.45800  0.07800  0.88600  Biso   1.000  H
  H125     1.0000 0.07600  0.35400  0.45400  Biso   1.000  H
  H126     1.0000 0.42400  0.85400  0.04600  Biso   1.000  H
  H127     1.0000 0.92400  0.64600  0.54600  Biso   1.000  H
  H128     1.0000 0.57600  0.14600  0.95400  Biso   1.000  H
  C37      1.0000 0.11100  0.45110  0.83530  Biso   1.000  C
  C38      1.0000 0.38900  0.95110  0.66470  Biso   1.000  C
  C39      1.0000 0.88900  0.54890  0.16470  Biso   1.000  C
  C40      1.0000 0.61100  0.04890  0.33530  Biso   1.000  C
  H129     1.0000 0.48080  0.55220  0.86120  Biso   1.000  H
  H130     1.0000 0.01920  0.05220  0.63880  Biso   1.000  H
  H131     1.0000 0.51920  0.44780  0.13880  Biso   1.000  H
  H132     1.0000 0.98080  0.94780  0.36120  Biso   1.000  H
  H133     1.0000 0.49240  0.57990  0.96830  Biso   1.000  H
  H134     1.0000 0.00760  0.07990  0.53170  Biso   1.000  H
  H135     1.0000 0.50760  0.42010  0.03170  Biso   1.000  H
  H136     1.0000 0.99240  0.92010  0.46830  Biso   1.000  H
  H137     1.0000 0.84670  0.42220  0.79390  Biso   1.000  H
  H138     1.0000 0.65330  0.92220  0.70610  Biso   1.000  H
  H139     1.0000 0.15330  0.57780  0.20610  Biso   1.000  H
  H140     1.0000 0.34670  0.07780  0.29390  Biso   1.000  H
  H141     1.0000 0.93620  0.49940  0.71600  Biso   1.000  H
  H142     1.0000 0.56380  0.99940  0.78400  Biso   1.000  H
  H143     1.0000 0.06380  0.50060  0.28400  Biso   1.000  H
  H144     1.0000 0.43620  0.00060  0.21600  Biso   1.000  H
