data_image0
_cell_length_a       13.7183
_cell_length_b       21.3378
_cell_length_c       24.4177
_cell_angle_alpha    68.715
_cell_angle_beta     78.284
_cell_angle_gamma    73.004

_symmetry_space_group_name_H-M    "P 1"
_symmetry_int_tables_number       1

loop_
  _symmetry_equiv_pos_as_xyz
  'x, y, z'

loop_
  _atom_site_label
  _atom_site_occupancy
  _atom_site_fract_x
  _atom_site_fract_y
  _atom_site_fract_z
  _atom_site_thermal_displace_type
  _atom_site_B_iso_or_equiv
  _atom_site_type_symbol
  Ru1      1.0000 0.27857  0.16228  0.76734  Biso   1.000  Ru
  Ru2      1.0000 0.35866  0.29730  0.35752  Biso   1.000  Ru
  Ru3      1.0000 0.86920  0.50884  0.09441  Biso   1.000  Ru
  Ru4      1.0000 0.93145  0.64226  0.68522  Biso   1.000  Ru
  Ru5      1.0000 0.74390  0.96452  0.01649  Biso   1.000  Ru
  Ru6      1.0000 0.46429  0.83888  0.43340  Biso   1.000  Ru
  Cu1      1.0000 0.04676  0.03759  0.91259  Biso   1.000  Cu
  Cu2      1.0000 0.11059  0.40363  0.72328  Biso   1.000  Cu
  Cu3      1.0000 0.22612  0.26978  0.56842  Biso   1.000  Cu
  Cu4      1.0000 0.60860  0.40948  0.22870  Biso   1.000  Cu
  Cu5      1.0000 0.98933  0.53241  0.88122  Biso   1.000  Cu
  Cu6      1.0000 0.15054  0.76468  0.54115  Biso   1.000  Cu
  Cu7      1.0000 0.81903  0.73952  0.02492  Biso   1.000  Cu
  Cu8      1.0000 0.57601  0.10957  0.85263  Biso   1.000  Cu
  Cu9      1.0000 0.12291  0.40474  0.22204  Biso   1.000  Cu
  Cu10     1.0000 0.39878  0.06468  0.42891  Biso   1.000  Cu
  Cu11     1.0000 0.61183  0.89864  0.22599  Biso   1.000  Cu
  Cu12     1.0000 0.62619  0.69380  0.59715  Biso   1.000  Cu
  N1       1.0000 0.05740  0.12950  0.79990  Biso   1.000  N
  N2       1.0000 0.17830  0.30820  0.67350  Biso   1.000  N
  N3       1.0000 0.97940  0.42750  0.68700  Biso   1.000  N
  H1       1.0000 0.93920  0.46940  0.68950  Biso   1.000  H
  H2       1.0000 0.99370  0.43060  0.64770  Biso   1.000  H
  N4       1.0000 0.04400  0.33890  0.79300  Biso   1.000  N
  H3       1.0000 0.07490  0.29360  0.79520  Biso   1.000  H
  H4       1.0000 0.05060  0.34480  0.82750  Biso   1.000  H
  N5       1.0000 0.17740  0.46940  0.65590  Biso   1.000  N
  H5       1.0000 0.19620  0.45340  0.62400  Biso   1.000  H
  H6       1.0000 0.13240  0.51210  0.64460  Biso   1.000  H
  N6       1.0000 0.24600  0.37440  0.75820  Biso   1.000  N
  H7       1.0000 0.23810  0.39020  0.78960  Biso   1.000  H
  H8       1.0000 0.26780  0.32680  0.77140  Biso   1.000  H
  N7       1.0000 0.26330  0.22980  0.48890  Biso   1.000  N
  N8       1.0000 0.45500  0.36510  0.22630  Biso   1.000  N
  N9       1.0000 0.77650  0.44930  0.22970  Biso   1.000  N
  N10      1.0000 0.95180  0.57210  0.95900  Biso   1.000  N
  N11      1.0000 0.04250  0.49660  0.77290  Biso   1.000  N
  N12      1.0000 0.14990  0.68120  0.64490  Biso   1.000  N
  N13      1.0000 0.06850  0.73000  0.50230  Biso   1.000  N
  H9       1.0000 0.04020  0.69570  0.53010  Biso   1.000  H
  H10      1.0000 0.01660  0.76570  0.48440  Biso   1.000  H
  N14      1.0000 0.27270  0.70100  0.51100  Biso   1.000  N
  H11      1.0000 0.31230  0.72670  0.48140  Biso   1.000  H
  H12      1.0000 0.31230  0.67320  0.54120  Biso   1.000  H
  N15      1.0000 0.02970  0.83730  0.55730  Biso   1.000  N
  H13      1.0000 0.01190  0.87120  0.52230  Biso   1.000  H
  H14      1.0000 0.97470  0.81790  0.57510  Biso   1.000  H
  N16      1.0000 0.23040  0.81250  0.56880  Biso   1.000  N
  H15      1.0000 0.25340  0.78420  0.60460  Biso   1.000  H
  H16      1.0000 0.28650  0.82110  0.54190  Biso   1.000  H
  N17      1.0000 0.99480  0.57810  0.58120  Biso   1.000  N
  N18      1.0000 0.82670  0.78080  0.58910  Biso   1.000  N
  N19      1.0000 0.85460  0.73080  0.77460  Biso   1.000  N
  N20      1.0000 0.73980  0.57260  0.72620  Biso   1.000  N
  N21      1.0000 0.84080  0.57040  0.86070  Biso   1.000  N
  H17      1.0000 0.80540  0.60080  0.88080  Biso   1.000  H
  H18      1.0000 0.84000  0.59390  0.82080  Biso   1.000  H
  N22      1.0000 0.94450  0.44390  0.92670  Biso   1.000  N
  H19      1.0000 0.97080  0.41250  0.90660  Biso   1.000  H
  H20      1.0000 0.96890  0.42500  0.96310  Biso   1.000  H
  N23      1.0000 0.14070  0.48560  0.88930  Biso   1.000  N
  H21      1.0000 0.15370  0.47470  0.92770  Biso   1.000  H
  H22      1.0000 0.15760  0.44530  0.88010  Biso   1.000  H
  N24      1.0000 0.04080  0.61920  0.83400  Biso   1.000  N
  H23      1.0000 0.04290  0.62770  0.79410  Biso   1.000  H
  H24      1.0000 0.99820  0.65700  0.84340  Biso   1.000  H
  N25      1.0000 0.79460  0.65030  0.12450  Biso   1.000  N
  N26      1.0000 0.81480  0.86710  0.93550  Biso   1.000  N
  N27      1.0000 0.98470  0.95030  0.01630  Biso   1.000  N
  N28      1.0000 0.72360  0.85360  0.14520  Biso   1.000  N
  N29      1.0000 0.72860  0.08870  0.89540  Biso   1.000  N
  N30      1.0000 0.46700  0.12000  0.92000  Biso   1.000  N
  H25      1.0000 0.40280  0.13160  0.90820  Biso   1.000  H
  H26      1.0000 0.47390  0.07920  0.95130  Biso   1.000  H
  N31      1.0000 0.56350  0.21160  0.83700  Biso   1.000  N
  H27      1.0000 0.62620  0.21810  0.83850  Biso   1.000  H
  H28      1.0000 0.54410  0.23670  0.79980  Biso   1.000  H
  N32      1.0000 0.58220  0.00910  0.86640  Biso   1.000  N
  H29      1.0000 0.62960  0.98060  0.89230  Biso   1.000  H
  H30      1.0000 0.51930  0.99980  0.88260  Biso   1.000  H
  N33      1.0000 0.65910  0.10540  0.77520  Biso   1.000  N
  H31      1.0000 0.61920  0.13030  0.74470  Biso   1.000  H
  H32      1.0000 0.71380  0.12480  0.76890  Biso   1.000  H
  N34      1.0000 0.67680  0.07710  0.08290  Biso   1.000  N
  N35      1.0000 0.50550  0.97520  0.02060  Biso   1.000  N
  N36      1.0000 0.67290  0.78610  0.04700  Biso   1.000  N
  H33      1.0000 0.64950  0.76110  0.08430  Biso   1.000  H
  H34      1.0000 0.66920  0.82990  0.04670  Biso   1.000  H
  N37      1.0000 0.75570  0.70380  0.97890  Biso   1.000  N
  H35      1.0000 0.77430  0.72280  0.93910  Biso   1.000  H
  H36      1.0000 0.77960  0.65640  0.98910  Biso   1.000  H
  N38      1.0000 0.95960  0.69950  0.99210  Biso   1.000  N
  H37      1.0000 0.97360  0.65190  0.00750  Biso   1.000  H
  H38      1.0000 0.96200  0.71160  0.95170  Biso   1.000  H
  N39      1.0000 0.89600  0.76960  0.06890  Biso   1.000  N
  H39      1.0000 0.89410  0.81600  0.05120  Biso   1.000  H
  H40      1.0000 0.86640  0.76260  0.10730  Biso   1.000  H
  N40      1.0000 0.09800  0.49670  0.11280  Biso   1.000  N
  N41      1.0000 0.94110  0.36140  0.07460  Biso   1.000  N
  N42      1.0000 0.65300  0.54070  0.04610  Biso   1.000  N
  N43      1.0000 0.53690  0.46070  0.28660  Biso   1.000  N
  H41      1.0000 0.47680  0.44760  0.30450  Biso   1.000  H
  H42      1.0000 0.57820  0.45110  0.31540  Biso   1.000  H
  N44      1.0000 0.53520  0.49330  0.16950  Biso   1.000  N
  H43      1.0000 0.58230  0.51360  0.14130  Biso   1.000  H
  H44      1.0000 0.49610  0.48040  0.15090  Biso   1.000  H
  N45      1.0000 0.67390  0.32320  0.29040  Biso   1.000  N
  H45      1.0000 0.73060  0.32920  0.30070  Biso   1.000  H
  H46      1.0000 0.62820  0.31280  0.32370  Biso   1.000  H
  N46      1.0000 0.69430  0.36040  0.17060  Biso   1.000  N
  H47      1.0000 0.65180  0.35200  0.15070  Biso   1.000  H
  H48      1.0000 0.73390  0.38820  0.14320  Biso   1.000  H
  N47      1.0000 0.13410  0.32040  0.32520  Biso   1.000  N
  N48      1.0000 0.99170  0.45990  0.25460  Biso   1.000  N
  H49      1.0000 0.94860  0.48370  0.22550  Biso   1.000  H
  H50      1.0000 0.95870  0.43040  0.28510  Biso   1.000  H
  N49      1.0000 0.18960  0.47120  0.23430  Biso   1.000  N
  H51      1.0000 0.21900  0.45130  0.26920  Biso   1.000  H
  H52      1.0000 0.23980  0.48270  0.20370  Biso   1.000  H
  N50      1.0000 0.05510  0.34270  0.20310  Biso   1.000  N
  H53      1.0000 0.02590  0.31560  0.23750  Biso   1.000  H
  H54      1.0000 0.00420  0.36960  0.17920  Biso   1.000  H
  N51      1.0000 0.25320  0.35000  0.19180  Biso   1.000  N
  H55      1.0000 0.27190  0.37340  0.15290  Biso   1.000  H
  H56      1.0000 0.30510  0.34280  0.21370  Biso   1.000  H
  N52      1.0000 0.42980  0.16280  0.31820  Biso   1.000  N
  N53      1.0000 0.39710  0.94570  0.50740  Biso   1.000  N
  N54      1.0000 0.49800  0.95070  0.30600  Biso   1.000  N
  N55      1.0000 0.51330  0.83960  0.24140  Biso   1.000  N
  H57      1.0000 0.53570  0.81060  0.21890  Biso   1.000  H
  H58      1.0000 0.50850  0.81300  0.28060  Biso   1.000  H
  N56      1.0000 0.51160  0.97190  0.16920  Biso   1.000  N
  H59      1.0000 0.48280  0.00930  0.18240  Biso   1.000  H
  H60      1.0000 0.54580  0.98710  0.13220  Biso   1.000  H
  N57      1.0000 0.71130  0.83000  0.28230  Biso   1.000  N
  H61      1.0000 0.68450  0.82760  0.32050  Biso   1.000  H
  H62      1.0000 0.72310  0.78670  0.27900  Biso   1.000  H
  N58      1.0000 0.70550  0.96200  0.21260  Biso   1.000  N
  H63      1.0000 0.73970  0.96980  0.17510  Biso   1.000  H
  H64      1.0000 0.66740  0.00400  0.21620  Biso   1.000  H
  N59      1.0000 0.47070  0.71340  0.55530  Biso   1.000  N
  N60      1.0000 0.56160  0.68530  0.68040  Biso   1.000  N
  H65      1.0000 0.49570  0.68050  0.68500  Biso   1.000  H
  H66      1.0000 0.59870  0.64730  0.70680  Biso   1.000  H
  N61      1.0000 0.60430  0.79490  0.58630  Biso   1.000  N
  H67      1.0000 0.66590  0.80460  0.58530  Biso   1.000  H
  H68      1.0000 0.57770  0.82160  0.55110  Biso   1.000  H
  N62      1.0000 0.65730  0.59150  0.61060  Biso   1.000  N
  H69      1.0000 0.71190  0.56830  0.63250  Biso   1.000  H
  H70      1.0000 0.60140  0.57410  0.63030  Biso   1.000  H
  N63      1.0000 0.72760  0.69400  0.52420  Biso   1.000  N
  H71      1.0000 0.69700  0.72470  0.49130  Biso   1.000  H
  H72      1.0000 0.78280  0.70870  0.52670  Biso   1.000  H
  N64      1.0000 0.53690  0.72450  0.36780  Biso   1.000  N
  N65      1.0000 0.69620  0.84190  0.42990  Biso   1.000  N
  N66      1.0000 0.22940  0.85740  0.42050  Biso   1.000  N
  N67      1.0000 0.32910  0.04400  0.37420  Biso   1.000  N
  H73      1.0000 0.34140  0.07220  0.33600  Biso   1.000  H
  H74      1.0000 0.35610  0.99870  0.37520  Biso   1.000  H
  N68      1.0000 0.25320  0.10390  0.45950  Biso   1.000  N
  H75      1.0000 0.23340  0.07290  0.49470  Biso   1.000  H
  H76      1.0000 0.24910  0.14460  0.46580  Biso   1.000  H
  N69      1.0000 0.54860  0.02550  0.40360  Biso   1.000  N
  H77      1.0000 0.56360  0.97790  0.41780  Biso   1.000  H
  H78      1.0000 0.56040  0.03930  0.36300  Biso   1.000  H
  N70      1.0000 0.45810  0.09750  0.47930  Biso   1.000  N
  H79      1.0000 0.45890  0.14340  0.46110  Biso   1.000  H
  H80      1.0000 0.41910  0.09290  0.51540  Biso   1.000  H
  N71      1.0000 0.57010  0.25740  0.41270  Biso   1.000  N
  N72      1.0000 0.28830  0.44810  0.37300  Biso   1.000  N
  N73      1.0000 0.37240  0.23260  0.58970  Biso   1.000  N
  H81      1.0000 0.37350  0.22880  0.62840  Biso   1.000  H
  H82      1.0000 0.39870  0.18940  0.58580  Biso   1.000  H
  N74      1.0000 0.26850  0.36020  0.52670  Biso   1.000  N
  H83      1.0000 0.27330  0.37040  0.48640  Biso   1.000  H
  H84      1.0000 0.22020  0.39560  0.53690  Biso   1.000  H
  N75      1.0000 0.17160  0.18640  0.61830  Biso   1.000  N
  H85      1.0000 0.19510  0.15220  0.60100  Biso   1.000  H
  H86      1.0000 0.19420  0.16940  0.65510  Biso   1.000  H
  N76      1.0000 0.07930  0.31350  0.55140  Biso   1.000  N
  H87      1.0000 0.04950  0.34390  0.57230  Biso   1.000  H
  H88      1.0000 0.07710  0.33800  0.51180  Biso   1.000  H
  N77      1.0000 0.36830  0.07490  0.67810  Biso   1.000  N
  N78      1.0000 0.36110  0.02180  0.86990  Biso   1.000  N
  N79      1.0000 0.22900  0.22430  0.87300  Biso   1.000  N
  N80      1.0000 0.47590  0.22720  0.72950  Biso   1.000  N
  N81      1.0000 0.97780  0.99580  0.87300  Biso   1.000  N
  H89      1.0000 0.94030  0.96690  0.90090  Biso   1.000  H
  H90      1.0000 0.93450  0.03010  0.84740  Biso   1.000  H
  N82      1.0000 0.17000  0.96270  0.90460  Biso   1.000  N
  H91      1.0000 0.22090  0.98170  0.87890  Biso   1.000  H
  H92      1.0000 0.19440  0.93840  0.94070  Biso   1.000  H
  N83      1.0000 0.12090  0.08440  0.94460  Biso   1.000  N
  H93      1.0000 0.15280  0.05260  0.97670  Biso   1.000  H
  H94      1.0000 0.17030  0.10140  0.91600  Biso   1.000  H
  N84      1.0000 0.92300  0.10760  0.92950  Biso   1.000  N
  H95      1.0000 0.91170  0.14630  0.89660  Biso   1.000  H
  H96      1.0000 0.86610  0.08950  0.94040  Biso   1.000  H
  C1       1.0000 0.13930  0.13970  0.78670  Biso   1.000  C
  C2       1.0000 0.21640  0.25360  0.70680  Biso   1.000  C
  C3       1.0000 0.92430  0.37080  0.72060  Biso   1.000  C
  H97      1.0000 0.96180  0.32870  0.70930  Biso   1.000  H
  C4       1.0000 0.93350  0.35490  0.78500  Biso   1.000  C
  H98      1.0000 0.89670  0.39690  0.79660  Biso   1.000  H
  C5       1.0000 0.88390  0.29570  0.82340  Biso   1.000  C
  H99      1.0000 0.92240  0.25280  0.81440  Biso   1.000  H
  H100     1.0000 0.88770  0.28760  0.86550  Biso   1.000  H
  C6       1.0000 0.77360  0.31080  0.81330  Biso   1.000  C
  H101     1.0000 0.73290  0.34980  0.82730  Biso   1.000  H
  H102     1.0000 0.74590  0.26970  0.83640  Biso   1.000  H
  C7       1.0000 0.76330  0.32910  0.74810  Biso   1.000  C
  H103     1.0000 0.79610  0.28770  0.73560  Biso   1.000  H
  H104     1.0000 0.68980  0.34240  0.74230  Biso   1.000  H
  C8       1.0000 0.81250  0.38780  0.70980  Biso   1.000  C
  H105     1.0000 0.77470  0.43080  0.71890  Biso   1.000  H
  H106     1.0000 0.80870  0.39600  0.66760  Biso   1.000  H
  C9       1.0000 0.26850  0.47510  0.67500  Biso   1.000  C
  H107     1.0000 0.24390  0.50390  0.70180  Biso   1.000  H
  C10      1.0000 0.32100  0.40440  0.71140  Biso   1.000  C
  H108     1.0000 0.34530  0.37480  0.68520  Biso   1.000  H
  C11      1.0000 0.41470  0.40590  0.73500  Biso   1.000  C
  H109     1.0000 0.44980  0.35810  0.75700  Biso   1.000  H
  H110     1.0000 0.39290  0.43310  0.76250  Biso   1.000  H
  C12      1.0000 0.49030  0.43930  0.68240  Biso   1.000  C
  H111     1.0000 0.54950  0.44200  0.69800  Biso   1.000  H
  H112     1.0000 0.51630  0.40990  0.65660  Biso   1.000  H
  C13      1.0000 0.43680  0.51030  0.64710  Biso   1.000  C
  H113     1.0000 0.48450  0.52950  0.61290  Biso   1.000  H
  H114     1.0000 0.41780  0.54070  0.67200  Biso   1.000  H
  C14      1.0000 0.34050  0.51070  0.62480  Biso   1.000  C
  H115     1.0000 0.36030  0.48660  0.59490  Biso   1.000  H
  H116     1.0000 0.30420  0.55910  0.60540  Biso   1.000  H
  C15      1.0000 0.29890  0.25280  0.44130  Biso   1.000  C
  C16      1.0000 0.41820  0.34170  0.27530  Biso   1.000  C
  C17      1.0000 0.81070  0.46810  0.18160  Biso   1.000  C
  C18      1.0000 0.92180  0.54910  0.00840  Biso   1.000  C
  C19      1.0000 0.00380  0.55000  0.74290  Biso   1.000  C
  C20      1.0000 0.06870  0.67090  0.66000  Biso   1.000  C
  C21      1.0000 0.14110  0.70270  0.45810  Biso   1.000  C
  H117     1.0000 0.16160  0.74280  0.42550  Biso   1.000  H
  C22      1.0000 0.23480  0.65720  0.48790  Biso   1.000  C
  H118     1.0000 0.21280  0.61940  0.52250  Biso   1.000  H
  C23      1.0000 0.31610  0.62310  0.44840  Biso   1.000  C
  H119     1.0000 0.37290  0.59070  0.47130  Biso   1.000  H
  H120     1.0000 0.34440  0.65880  0.41530  Biso   1.000  H
  C24      1.0000 0.26820  0.58370  0.42390  Biso   1.000  C
  H121     1.0000 0.31990  0.56360  0.39630  Biso   1.000  H
  H122     1.0000 0.24580  0.54530  0.45680  Biso   1.000  H
  C25      1.0000 0.17650  0.63210  0.39170  Biso   1.000  C
  H123     1.0000 0.20010  0.66880  0.35740  Biso   1.000  H
  H124     1.0000 0.14660  0.60560  0.37640  Biso   1.000  H
  C26      1.0000 0.09520  0.66510  0.43080  Biso   1.000  C
  H125     1.0000 0.06550  0.62920  0.46260  Biso   1.000  H
  H126     1.0000 0.03960  0.69850  0.40740  Biso   1.000  H
  C27      1.0000 0.05460  0.86810  0.59610  Biso   1.000  C
  H127     1.0000 0.05440  0.83420  0.63710  Biso   1.000  H
  C28      1.0000 0.16320  0.87770  0.57460  Biso   1.000  C
  H128     1.0000 0.16190  0.91340  0.53430  Biso   1.000  H
  C29      1.0000 0.19770  0.90520  0.61510  Biso   1.000  C
  H129     1.0000 0.20240  0.86990  0.65480  Biso   1.000  H
  H130     1.0000 0.26670  0.91380  0.59940  Biso   1.000  H
  C30      1.0000 0.12410  0.97120  0.62010  Biso   1.000  C
  H131     1.0000 0.12750  0.00850  0.58160  Biso   1.000  H
  H132     1.0000 0.14480  0.98510  0.64970  Biso   1.000  H
  C31      1.0000 0.01400  0.96320  0.63830  Biso   1.000  C
  H133     1.0000 0.00860  0.93120  0.67940  Biso   1.000  H
  H134     1.0000 0.96770  0.00870  0.63750  Biso   1.000  H
  C32      1.0000 0.97910  0.93560  0.59840  Biso   1.000  C
  H135     1.0000 0.97580  0.96990  0.55820  Biso   1.000  H
  H136     1.0000 0.90970  0.92750  0.61390  Biso   1.000  H
  C33      1.0000 0.96990  0.59960  0.62050  Biso   1.000  C
  C34      1.0000 0.86460  0.72950  0.62500  Biso   1.000  C
  C35      1.0000 0.88120  0.69730  0.74430  Biso   1.000  C
  C36      1.0000 0.80590  0.60060  0.71120  Biso   1.000  C
  C37      1.0000 0.79100  0.51130  0.87770  Biso   1.000  C
  H137     1.0000 0.81420  0.48870  0.84630  Biso   1.000  H
  C38      1.0000 0.83030  0.45870  0.93450  Biso   1.000  C
  H138     1.0000 0.80520  0.48070  0.96620  Biso   1.000  H
  C39      1.0000 0.78760  0.39500  0.95300  Biso   1.000  C
  H139     1.0000 0.81350  0.37100  0.92310  Biso   1.000  H
  H140     1.0000 0.81170  0.36260  0.99120  Biso   1.000  H
  C40      1.0000 0.67190  0.41410  0.95920  Biso   1.000  C
  H141     1.0000 0.64580  0.43240  0.99280  Biso   1.000  H
  H142     1.0000 0.64650  0.37220  0.96800  Biso   1.000  H
  C41      1.0000 0.63110  0.46830  0.90320  Biso   1.000  C
  H143     1.0000 0.64800  0.44760  0.87120  Biso   1.000  H
  H144     1.0000 0.55550  0.48320  0.91010  Biso   1.000  H
  C42      1.0000 0.67620  0.53100  0.88400  Biso   1.000  C
  H145     1.0000 0.65240  0.56320  0.84570  Biso   1.000  H
  H146     1.0000 0.65120  0.55560  0.91350  Biso   1.000  H
  C43      1.0000 0.20320  0.53390  0.84840  Biso   1.000  C
  H147     1.0000 0.20710  0.53260  0.80750  Biso   1.000  H
  C44      1.0000 0.14500  0.60610  0.85020  Biso   1.000  C
  H148     1.0000 0.13930  0.60630  0.89160  Biso   1.000  H
  C45      1.0000 0.20100  0.66020  0.80980  Biso   1.000  C
  H149     1.0000 0.16430  0.70600  0.81380  Biso   1.000  H
  H150     1.0000 0.20260  0.66320  0.76820  Biso   1.000  H
  C46      1.0000 0.30960  0.64190  0.82520  Biso   1.000  C
  H151     1.0000 0.34620  0.67670  0.79730  Biso   1.000  H
  H152     1.0000 0.30780  0.64310  0.86550  Biso   1.000  H
  C47      1.0000 0.36710  0.57070  0.82230  Biso   1.000  C
  H153     1.0000 0.43720  0.55960  0.83350  Biso   1.000  H
  H154     1.0000 0.37320  0.57020  0.78130  Biso   1.000  H
  C48      1.0000 0.31130  0.51650  0.86380  Biso   1.000  C
  H155     1.0000 0.34850  0.47040  0.86060  Biso   1.000  H
  H156     1.0000 0.30950  0.51460  0.90510  Biso   1.000  H
  C49      1.0000 0.82230  0.59880  0.11140  Biso   1.000  C
  C50      1.0000 0.78800  0.90050  0.96560  Biso   1.000  C
  C51      1.0000 0.89750  0.95550  0.01750  Biso   1.000  C
  C52      1.0000 0.73590  0.89140  0.09780  Biso   1.000  C
  C53      1.0000 0.73650  0.04220  0.94030  Biso   1.000  C
  C54      1.0000 0.48200  0.17530  0.93720  Biso   1.000  C
  H157     1.0000 0.54950  0.15910  0.95360  Biso   1.000  H
  C55      1.0000 0.48700  0.23650  0.88120  Biso   1.000  C
  H158     1.0000 0.41890  0.25320  0.86560  Biso   1.000  H
  C56      1.0000 0.50630  0.29620  0.89560  Biso   1.000  C
  H159     1.0000 0.57390  0.28130  0.91080  Biso   1.000  H
  H160     1.0000 0.50780  0.33640  0.85900  Biso   1.000  H
  C57      1.0000 0.42530  0.31760  0.94040  Biso   1.000  C
  H161     1.0000 0.35860  0.33690  0.92380  Biso   1.000  H
  H162     1.0000 0.44160  0.35420  0.95030  Biso   1.000  H
  C58      1.0000 0.41740  0.25490  0.99710  Biso   1.000  C
  H163     1.0000 0.48170  0.23880  0.01600  Biso   1.000  H
  H164     1.0000 0.36040  0.26940  0.02550  Biso   1.000  H
  C59      1.0000 0.39920  0.19630  0.98330  Biso   1.000  C
  H165     1.0000 0.33140  0.21070  0.96850  Biso   1.000  H
  H166     1.0000 0.39870  0.15600  0.01990  Biso   1.000  H
  C60      1.0000 0.61160  0.99610  0.80930  Biso   1.000  C
  H167     1.0000 0.55110  0.01770  0.78610  Biso   1.000  H
  C61      1.0000 0.69690  0.03250  0.77630  Biso   1.000  C
  H168     1.0000 0.75670  0.01080  0.80000  Biso   1.000  H
  C62      1.0000 0.73080  0.02390  0.71620  Biso   1.000  C
  H169     1.0000 0.78800  0.04650  0.69630  Biso   1.000  H
  H170     1.0000 0.67340  0.04580  0.69140  Biso   1.000  H
  C63      1.0000 0.76590  0.94610  0.72440  Biso   1.000  C
  H171     1.0000 0.78830  0.93950  0.68530  Biso   1.000  H
  H172     1.0000 0.82500  0.92490  0.74800  Biso   1.000  H
  C64      1.0000 0.67980  0.91050  0.75540  Biso   1.000  C
  H173     1.0000 0.70390  0.86050  0.76040  Biso   1.000  H
  H174     1.0000 0.62180  0.93020  0.73100  Biso   1.000  H
  C65      1.0000 0.64400  0.92020  0.81560  Biso   1.000  C
  H175     1.0000 0.58550  0.89860  0.83460  Biso   1.000  H
  H176     1.0000 0.70030  0.89690  0.84120  Biso   1.000  H
  C66      1.0000 0.70120  0.03590  0.05940  Biso   1.000  C
  C67      1.0000 0.59340  0.97110  0.01860  Biso   1.000  C
  C68      1.0000 0.60870  0.78980  0.00240  Biso   1.000  C
  H177     1.0000 0.62470  0.82630  0.96460  Biso   1.000  H
  C69      1.0000 0.64270  0.72140  0.99100  Biso   1.000  C
  H178     1.0000 0.62340  0.68540  0.02820  Biso   1.000  H
  C70      1.0000 0.58660  0.72250  0.94230  Biso   1.000  C
  H179     1.0000 0.60510  0.75720  0.90450  Biso   1.000  H
  H180     1.0000 0.60780  0.67650  0.93670  Biso   1.000  H
  C71      1.0000 0.47080  0.74090  0.95910  Biso   1.000  C
  H181     1.0000 0.45190  0.70330  0.99440  Biso   1.000  H
  H182     1.0000 0.43530  0.74420  0.92630  Biso   1.000  H
  C72      1.0000 0.43430  0.80950  0.97240  Biso   1.000  C
  H183     1.0000 0.36040  0.81700  0.98710  Biso   1.000  H
  H184     1.0000 0.44340  0.84820  0.93570  Biso   1.000  H
  C73      1.0000 0.49550  0.80880  0.01930  Biso   1.000  C
  H185     1.0000 0.47600  0.85520  0.02400  Biso   1.000  H
  H186     1.0000 0.47760  0.77510  0.05780  Biso   1.000  H
  C74      1.0000 0.03790  0.72440  0.00610  Biso   1.000  C
  H187     1.0000 0.03570  0.77260  0.97870  Biso   1.000  H
  C75      1.0000 0.00290  0.72850  0.06790  Biso   1.000  C
  H188     1.0000 0.00380  0.68040  0.09550  Biso   1.000  H
  C76      1.0000 0.07800  0.75710  0.08640  Biso   1.000  C
  H189     1.0000 0.07440  0.80590  0.06120  Biso   1.000  H
  H190     1.0000 0.05790  0.75610  0.12800  Biso   1.000  H
  C77      1.0000 0.18800  0.71390  0.08010  Biso   1.000  C
  H191     1.0000 0.23510  0.73570  0.08870  Biso   1.000  H
  H192     1.0000 0.19340  0.66710  0.10970  Biso   1.000  H
  C78      1.0000 0.22110  0.70720  0.01980  Biso   1.000  C
  H193     1.0000 0.28880  0.67400  0.01990  Biso   1.000  H
  H194     1.0000 0.22870  0.75270  0.99110  Biso   1.000  H
  C79      1.0000 0.14420  0.68220  0.99980  Biso   1.000  C
  H195     1.0000 0.16440  0.68460  0.95790  Biso   1.000  H
  H196     1.0000 0.14660  0.63320  0.02370  Biso   1.000  H
  C80      1.0000 0.01390  0.49990  0.10950  Biso   1.000  C
  C81      1.0000 0.91410  0.41310  0.08110  Biso   1.000  C
  C82      1.0000 0.73030  0.52760  0.06520  Biso   1.000  C
  C83      1.0000 0.51500  0.53570  0.25220  Biso   1.000  C
  H197     1.0000 0.58210  0.54900  0.23840  Biso   1.000  H
  C84      1.0000 0.46860  0.54390  0.19740  Biso   1.000  C
  H198     1.0000 0.40020  0.53230  0.21060  Biso   1.000  H
  C85      1.0000 0.45250  0.62050  0.15530  Biso   1.000  C
  H199     1.0000 0.51990  0.63150  0.13900  Biso   1.000  H
  H200     1.0000 0.41650  0.62630  0.12180  Biso   1.000  H
  C86      1.0000 0.38990  0.66980  0.18840  Biso   1.000  C
  H201     1.0000 0.38670  0.71810  0.16210  Biso   1.000  H
  H202     1.0000 0.31890  0.66360  0.19900  Biso   1.000  H
  C87      1.0000 0.43410  0.65870  0.24410  Biso   1.000  C
  H203     1.0000 0.38720  0.68920  0.26570  Biso   1.000  H
  H204     1.0000 0.50070  0.67160  0.23330  Biso   1.000  H
  C88      1.0000 0.44960  0.58290  0.28480  Biso   1.000  C
  H205     1.0000 0.48270  0.57690  0.31950  Biso   1.000  H
  H206     1.0000 0.38220  0.57120  0.29930  Biso   1.000  H
  C89      1.0000 0.70380  0.26710  0.26380  Biso   1.000  C
  H207     1.0000 0.63960  0.25840  0.25770  Biso   1.000  H
  C90      1.0000 0.76180  0.29340  0.20360  Biso   1.000  C
  H208     1.0000 0.82470  0.30360  0.20960  Biso   1.000  H
  C91      1.0000 0.79650  0.23970  0.17190  Biso   1.000  C
  H209     1.0000 0.73580  0.23300  0.16070  Biso   1.000  H
  H210     1.0000 0.84100  0.25690  0.13520  Biso   1.000  H
  C92      1.0000 0.85460  0.17100  0.21030  Biso   1.000  C
  H211     1.0000 0.92080  0.17610  0.21630  Biso   1.000  H
  H212     1.0000 0.86970  0.13630  0.18990  Biso   1.000  H
  C93      1.0000 0.79460  0.14530  0.27000  Biso   1.000  C
  H213     1.0000 0.83680  0.10200  0.29500  Biso   1.000  H
  H214     1.0000 0.73190  0.13500  0.26470  Biso   1.000  H
  C94      1.0000 0.76540  0.20070  0.30030  Biso   1.000  C
  H215     1.0000 0.72550  0.18390  0.33910  Biso   1.000  H
  H216     1.0000 0.82850  0.20860  0.30760  Biso   1.000  H
  C95      1.0000 0.21620  0.31320  0.33490  Biso   1.000  C
  C96      1.0000 0.01670  0.50960  0.27630  Biso   1.000  C
  H217     1.0000 0.03730  0.48440  0.31710  Biso   1.000  H
  C97      1.0000 0.10770  0.53350  0.23600  Biso   1.000  C
  H218     1.0000 0.08630  0.55830  0.19520  Biso   1.000  H
  C98      1.0000 0.13900  0.58390  0.25510  Biso   1.000  C
  H219     1.0000 0.19590  0.60080  0.22690  Biso   1.000  H
  H220     1.0000 0.16370  0.56010  0.29460  Biso   1.000  H
  C99      1.0000 0.04900  0.64510  0.25750  Biso   1.000  C
  H221     1.0000 0.02940  0.67190  0.21710  Biso   1.000  H
  H222     1.0000 0.06990  0.67600  0.27250  Biso   1.000  H
  C100     1.0000 0.95640  0.62110  0.29770  Biso   1.000  C
  H223     1.0000 0.97350  0.59890  0.33900  Biso   1.000  H
  H224     1.0000 0.89790  0.66170  0.29640  Biso   1.000  H
  C101     1.0000 0.92630  0.57030  0.27840  Biso   1.000  C
  H225     1.0000 0.90200  0.59390  0.23880  Biso   1.000  H
  H226     1.0000 0.86940  0.55310  0.30640  Biso   1.000  H
  C102     1.0000 0.13280  0.29830  0.17290  Biso   1.000  C
  H227     1.0000 0.14130  0.32590  0.13000  Biso   1.000  H
  C103     1.0000 0.23430  0.28260  0.19710  Biso   1.000  C
  H228     1.0000 0.22640  0.25520  0.24010  Biso   1.000  H
  C104     1.0000 0.32220  0.23920  0.16610  Biso   1.000  C
  H229     1.0000 0.33470  0.26640  0.12400  Biso   1.000  H
  H230     1.0000 0.38590  0.22740  0.18470  Biso   1.000  H
  C105     1.0000 0.29440  0.17240  0.17110  Biso   1.000  C
  H231     1.0000 0.34910  0.14650  0.14860  Biso   1.000  H
  H232     1.0000 0.29030  0.14270  0.21310  Biso   1.000  H
  C106     1.0000 0.19370  0.18780  0.14780  Biso   1.000  C
  H233     1.0000 0.17630  0.14360  0.15410  Biso   1.000  H
  H234     1.0000 0.20070  0.21240  0.10470  Biso   1.000  H
  C107     1.0000 0.10570  0.23220  0.17770  Biso   1.000  C
  H235     1.0000 0.04250  0.24410  0.15870  Biso   1.000  H
  H236     1.0000 0.09210  0.20540  0.21990  Biso   1.000  H
  C108     1.0000 0.40360  0.20790  0.33550  Biso   1.000  C
  C109     1.0000 0.41960  0.90840  0.47900  Biso   1.000  C
  C110     1.0000 0.48040  0.91120  0.35290  Biso   1.000  C
  C111     1.0000 0.41350  0.88510  0.22600  Biso   1.000  C
  H237     1.0000 0.38640  0.90910  0.25630  Biso   1.000  H
  C112     1.0000 0.43050  0.94060  0.16630  Biso   1.000  C
  H238     1.0000 0.45720  0.91650  0.13610  Biso   1.000  H
  C113     1.0000 0.33250  0.99100  0.14830  Biso   1.000  C
  H239     1.0000 0.34550  0.02340  0.10820  Biso   1.000  H
  H240     1.0000 0.30720  0.01840  0.17570  Biso   1.000  H
  C114     1.0000 0.25060  0.95710  0.14810  Biso   1.000  C
  H241     1.0000 0.27120  0.93540  0.11670  Biso   1.000  H
  H242     1.0000 0.18590  0.99290  0.13910  Biso   1.000  H
  C115     1.0000 0.23200  0.90200  0.20770  Biso   1.000  C
  H243     1.0000 0.18160  0.87850  0.20490  Biso   1.000  H
  H244     1.0000 0.20290  0.92450  0.23840  Biso   1.000  H
  C116     1.0000 0.33230  0.84790  0.22580  Biso   1.000  C
  H245     1.0000 0.35770  0.82160  0.19760  Biso   1.000  H
  H246     1.0000 0.31970  0.81490  0.26570  Biso   1.000  H
  C117     1.0000 0.81050  0.85260  0.26790  Biso   1.000  C
  H247     1.0000 0.84510  0.84470  0.22990  Biso   1.000  H
  C118     1.0000 0.78010  0.92880  0.25710  Biso   1.000  C
  H248     1.0000 0.74440  0.93620  0.29500  Biso   1.000  H
  C119     1.0000 0.87380  0.95790  0.24120  Biso   1.000  C
  H249     1.0000 0.85210  0.00790  0.23690  Biso   1.000  H
  H250     1.0000 0.90880  0.95350  0.20270  Biso   1.000  H
  C120     1.0000 0.94840  0.92160  0.28730  Biso   1.000  C
  H251     1.0000 0.00980  0.94090  0.27430  Biso   1.000  H
  H252     1.0000 0.91590  0.92940  0.32510  Biso   1.000  H
  C121     1.0000 0.97970  0.84530  0.29630  Biso   1.000  C
  H253     1.0000 0.02620  0.82190  0.32780  Biso   1.000  H
  H254     1.0000 0.01770  0.83750  0.25940  Biso   1.000  H
  C122     1.0000 0.88550  0.81320  0.31380  Biso   1.000  C
  H255     1.0000 0.90790  0.76380  0.31620  Biso   1.000  H
  H256     1.0000 0.85180  0.81570  0.35310  Biso   1.000  H
  C123     1.0000 0.46550  0.75910  0.51180  Biso   1.000  C
  C124     1.0000 0.56120  0.74960  0.69100  Biso   1.000  C
  H257     1.0000 0.63270  0.74620  0.69720  Biso   1.000  H
  C125     1.0000 0.53350  0.81080  0.63550  Biso   1.000  C
  H258     1.0000 0.46290  0.81320  0.62850  Biso   1.000  H
  C126     1.0000 0.53080  0.87880  0.64330  Biso   1.000  C
  H259     1.0000 0.50750  0.91770  0.60770  Biso   1.000  H
  H260     1.0000 0.60090  0.87930  0.64740  Biso   1.000  H
  C127     1.0000 0.45920  0.88870  0.69760  Biso   1.000  C
  H261     1.0000 0.38780  0.89390  0.69120  Biso   1.000  H
  H262     1.0000 0.46270  0.93190  0.70280  Biso   1.000  H
  C128     1.0000 0.48660  0.82800  0.75360  Biso   1.000  C
  H263     1.0000 0.55420  0.82660  0.76300  Biso   1.000  H
  H264     1.0000 0.43500  0.83490  0.78700  Biso   1.000  H
  C129     1.0000 0.49030  0.75950  0.74630  Biso   1.000  C
  H265     1.0000 0.42020  0.75800  0.74310  Biso   1.000  H
  H266     1.0000 0.51510  0.72100  0.78170  Biso   1.000  H
  C130     1.0000 0.68270  0.58380  0.55060  Biso   1.000  C
  H267     1.0000 0.62010  0.60640  0.52930  Biso   1.000  H
  C131     1.0000 0.76480  0.62270  0.51760  Biso   1.000  C
  H268     1.0000 0.82880  0.59850  0.53750  Biso   1.000  H
  C132     1.0000 0.78770  0.62410  0.45470  Biso   1.000  C
  H269     1.0000 0.84280  0.64860  0.43460  Biso   1.000  H
  H270     1.0000 0.72580  0.64950  0.43390  Biso   1.000  H
  C133     1.0000 0.82210  0.54890  0.45210  Biso   1.000  C
  H271     1.0000 0.83240  0.55010  0.41040  Biso   1.000  H
  H272     1.0000 0.88790  0.52490  0.46920  Biso   1.000  H
  C134     1.0000 0.74020  0.50960  0.48670  Biso   1.000  C
  H273     1.0000 0.76340  0.46130  0.48630  Biso   1.000  H
  H274     1.0000 0.67620  0.53150  0.46740  Biso   1.000  H
  C135     1.0000 0.71820  0.50950  0.55170  Biso   1.000  C
  H275     1.0000 0.66450  0.48420  0.57330  Biso   1.000  H
  H276     1.0000 0.78110  0.48630  0.57190  Biso   1.000  H
  C136     1.0000 0.51060  0.76470  0.39160  Biso   1.000  C
  C137     1.0000 0.61340  0.83810  0.43450  Biso   1.000  C
  C138     1.0000 0.31390  0.85030  0.42500  Biso   1.000  C
  C139     1.0000 0.21780  0.05520  0.39160  Biso   1.000  C
  H277     1.0000 0.20410  0.01360  0.42510  Biso   1.000  H
  C140     1.0000 0.18520  0.11670  0.41380  Biso   1.000  C
  H278     1.0000 0.19960  0.15760  0.37970  Biso   1.000  H
  C141     1.0000 0.07100  0.13250  0.43420  Biso   1.000  C
  H279     1.0000 0.05130  0.17490  0.44560  Biso   1.000  H
  H280     1.0000 0.05520  0.09370  0.46930  Biso   1.000  H
  C142     1.0000 0.00970  0.14270  0.38410  Biso   1.000  C
  H281     1.0000 0.93600  0.14860  0.39890  Biso   1.000  H
  H282     1.0000 0.01810  0.18550  0.35140  Biso   1.000  H
  C143     1.0000 0.04420  0.08240  0.36090  Biso   1.000  C
  H283     1.0000 0.02590  0.04100  0.39190  Biso   1.000  H
  H284     1.0000 0.00760  0.09300  0.32640  Biso   1.000  H
  C144     1.0000 0.15700  0.06640  0.34310  Biso   1.000  C
  H285     1.0000 0.17380  0.10520  0.30830  Biso   1.000  H
  H286     1.0000 0.17690  0.02430  0.33120  Biso   1.000  H
  C145     1.0000 0.61480  0.05130  0.42740  Biso   1.000  C
  H287     1.0000 0.61560  0.09970  0.40110  Biso   1.000  H
  C146     1.0000 0.56360  0.05470  0.48760  Biso   1.000  C
  H288     1.0000 0.55920  0.00670  0.51330  Biso   1.000  H
  C147     1.0000 0.62430  0.08020  0.51680  Biso   1.000  C
  H289     1.0000 0.59220  0.07700  0.55750  Biso   1.000  H
  H290     1.0000 0.62350  0.12950  0.49450  Biso   1.000  H
  C148     1.0000 0.73640  0.03670  0.51850  Biso   1.000  C
  H291     1.0000 0.77580  0.05550  0.53590  Biso   1.000  H
  H292     1.0000 0.73750  0.98830  0.54380  Biso   1.000  H
  C149     1.0000 0.78520  0.03780  0.45800  Biso   1.000  C
  H293     1.0000 0.85650  0.00930  0.46010  Biso   1.000  H
  H294     1.0000 0.78740  0.08590  0.43320  Biso   1.000  H
  C150     1.0000 0.72540  0.00960  0.42990  Biso   1.000  C
  H295     1.0000 0.75800  0.01170  0.38940  Biso   1.000  H
  H296     1.0000 0.72720  0.96050  0.45330  Biso   1.000  H
  C151     1.0000 0.49500  0.27380  0.39120  Biso   1.000  C
  C152     1.0000 0.31560  0.39070  0.36840  Biso   1.000  C
  C153     1.0000 0.43540  0.28080  0.54980  Biso   1.000  C
  H297     1.0000 0.44600  0.27520  0.50990  Biso   1.000  H
  C154     1.0000 0.37020  0.35360  0.54460  Biso   1.000  C
  H298     1.0000 0.35740  0.35810  0.58500  Biso   1.000  H
  C155     1.0000 0.42090  0.41070  0.50430  Biso   1.000  C
  H299     1.0000 0.37840  0.45590  0.50730  Biso   1.000  H
  H300     1.0000 0.42620  0.41210  0.46280  Biso   1.000  H
  C156     1.0000 0.52950  0.39820  0.52160  Biso   1.000  C
  H301     1.0000 0.56470  0.43280  0.49180  Biso   1.000  H
  H302     1.0000 0.52300  0.40510  0.56030  Biso   1.000  H
  C157     1.0000 0.59380  0.32610  0.52540  Biso   1.000  C
  H303     1.0000 0.66070  0.32000  0.53840  Biso   1.000  H
  H304     1.0000 0.60710  0.32150  0.48540  Biso   1.000  H
  C158     1.0000 0.54300  0.26830  0.56810  Biso   1.000  C
  H305     1.0000 0.53660  0.26870  0.60910  Biso   1.000  H
  H306     1.0000 0.58550  0.22260  0.56640  Biso   1.000  H
  C159     1.0000 0.05800  0.20670  0.62400  Biso   1.000  C
  H307     1.0000 0.03500  0.22850  0.65590  Biso   1.000  H
  C160     1.0000 0.02240  0.25960  0.56840  Biso   1.000  C
  H308     1.0000 0.04300  0.23680  0.53720  Biso   1.000  H
  C161     1.0000 0.90750  0.28510  0.57190  Biso   1.000  C
  H309     1.0000 0.88740  0.31900  0.53330  Biso   1.000  H
  H310     1.0000 0.88290  0.30870  0.60220  Biso   1.000  H
  C162     1.0000 0.85750  0.22300  0.58840  Biso   1.000  C
  H311     1.0000 0.78190  0.23960  0.59270  Biso   1.000  H
  H312     1.0000 0.87720  0.20210  0.55640  Biso   1.000  H
  C163     1.0000 0.89210  0.16870  0.64590  Biso   1.000  C
  H313     1.0000 0.86300  0.12840  0.65450  Biso   1.000  H
  H314     1.0000 0.86540  0.18830  0.67860  Biso   1.000  H
  C164     1.0000 0.01000  0.14440  0.64310  Biso   1.000  C
  H315     1.0000 0.02990  0.11280  0.68250  Biso   1.000  H
  H316     1.0000 0.03630  0.11850  0.61460  Biso   1.000  H
  C165     1.0000 0.33330  0.10730  0.70910  Biso   1.000  C
  C166     1.0000 0.33590  0.07050  0.83250  Biso   1.000  C
  C167     1.0000 0.24210  0.20470  0.83270  Biso   1.000  C
  C168     1.0000 0.41010  0.19710  0.74520  Biso   1.000  C
  C169     1.0000 0.06060  0.95630  0.84060  Biso   1.000  C
  H317     1.0000 0.09090  0.99020  0.80590  Biso   1.000  H
  C170     1.0000 0.14140  0.91500  0.88150  Biso   1.000  C
  H318     1.0000 0.10990  0.88160  0.91600  Biso   1.000  H
  C171     1.0000 0.23300  0.87290  0.85400  Biso   1.000  C
  H319     1.0000 0.28100  0.84420  0.88400  Biso   1.000  H
  H320     1.0000 0.26920  0.90440  0.82140  Biso   1.000  H
  C172     1.0000 0.19970  0.82510  0.82960  Biso   1.000  C
  H321     1.0000 0.25980  0.80170  0.80800  Biso   1.000  H
  H322     1.0000 0.17270  0.78900  0.86290  Biso   1.000  H
  C173     1.0000 0.11750  0.86760  0.78830  Biso   1.000  C
  H323     1.0000 0.09330  0.83610  0.77570  Biso   1.000  H
  H324     1.0000 0.14770  0.89930  0.75260  Biso   1.000  H
  C174     1.0000 0.02620  0.90990  0.81750  Biso   1.000  C
  H325     1.0000 0.97670  0.93870  0.78830  Biso   1.000  H
  H326     1.0000 0.99100  0.87820  0.85060  Biso   1.000  H
  C175     1.0000 0.04730  0.14190  0.96230  Biso   1.000  C
  H327     1.0000 0.04270  0.18490  0.92720  Biso   1.000  H
  C176     1.0000 0.94320  0.12580  0.97840  Biso   1.000  C
  H328     1.0000 0.94790  0.08320  0.01410  Biso   1.000  H
  C177     1.0000 0.85890  0.18310  0.99520  Biso   1.000  C
  H329     1.0000 0.84880  0.22570  0.96040  Biso   1.000  H
  H330     1.0000 0.79350  0.16850  0.00820  Biso   1.000  H
  C178     1.0000 0.88990  0.19760  0.04480  Biso   1.000  C
  H331     1.0000 0.88990  0.15690  0.08110  Biso   1.000  H
  H332     1.0000 0.83860  0.23760  0.05300  Biso   1.000  H
  C179     1.0000 0.99520  0.21310  0.03020  Biso   1.000  C
  H333     1.0000 0.01340  0.21870  0.06500  Biso   1.000  H
  H334     1.0000 0.99250  0.25740  0.99730  Biso   1.000  H
  C180     1.0000 0.07920  0.15610  0.01240  Biso   1.000  C
  H335     1.0000 0.14450  0.17080  0.99920  Biso   1.000  H
  H336     1.0000 0.08990  0.11320  0.04690  Biso   1.000  H
  O1       1.0000 0.13860  0.33280  0.01150  Biso   1.000  O
  O2       1.0000 0.21320  0.43920  0.01650  Biso   1.000  O
  O3       1.0000 0.46550  0.54890  0.01320  Biso   1.000  O
  O4       1.0000 0.29580  0.52250  0.11300  Biso   1.000  O
  O5       1.0000 0.53450  0.32050  0.12340  Biso   1.000  O
  O6       1.0000 0.59240  0.17940  0.13900  Biso   1.000  O
  O7       1.0000 0.19730  0.88640  0.03380  Biso   1.000  O
  O8       1.0000 0.76740  0.24440  0.43790  Biso   1.000  O
  O9       1.0000 0.01620  0.91960  0.43140  Biso   1.000  O
  O10      1.0000 0.66460  0.62180  0.32140  Biso   1.000  O
  O11      1.0000 0.70580  0.48020  0.33970  Biso   1.000  O
  O12      1.0000 0.08850  0.47860  0.42980  Biso   1.000  O
  O13      1.0000 0.01770  0.37130  0.42420  Biso   1.000  O
  O14      1.0000 0.32390  0.04790  0.58440  Biso   1.000  O
  O15      1.0000 0.81920  0.37060  0.41830  Biso   1.000  O
  O16      1.0000 0.07090  0.46250  0.54790  Biso   1.000  O
  O17      1.0000 0.84700  0.14340  0.79000  Biso   1.000  O
  O18      1.0000 0.13850  0.34330  0.89800  Biso   1.000  O
  O19      1.0000 0.87820  0.83450  0.46530  Biso   1.000  O
  O20      1.0000 0.88980  0.76610  0.86730  Biso   1.000  O
  O21      1.0000 0.31190  0.98670  0.99410  Biso   1.000  O
  O22      1.0000 0.34870  0.68060  0.66510  Biso   1.000  O
  O23      1.0000 0.54960  0.07880  0.25320  Biso   1.000  O
  O24      1.0000 0.69800  0.71840  0.20710  Biso   1.000  O
  O25      1.0000 0.41060  0.42020  0.04290  Biso   1.000  O
  O26      1.0000 0.92700  0.31680  0.32830  Biso   1.000  O
  O27      1.0000 0.58970  0.50660  0.74530  Biso   1.000  O
  O28      1.0000 0.90800  0.31030  0.31510  Biso   1.000  O
