data_image0
_cell_length_a       18.9979
_cell_length_b       17.8507
_cell_length_c       15.5853
_cell_angle_alpha    90
_cell_angle_beta     119.062
_cell_angle_gamma    90

_symmetry_space_group_name_H-M    "P 1"
_symmetry_int_tables_number       1

loop_
  _symmetry_equiv_pos_as_xyz
  'x, y, z'

loop_
  _atom_site_label
  _atom_site_occupancy
  _atom_site_fract_x
  _atom_site_fract_y
  _atom_site_fract_z
  _atom_site_thermal_displace_type
  _atom_site_B_iso_or_equiv
  _atom_site_type_symbol
  Ru1      1.0000 0.00000  0.00752  0.50000  Biso   1.000  Ru
  Ru2      1.0000 0.50000  0.50752  0.50000  Biso   1.000  Ru
  Ru3      1.0000 0.00000  0.30473  0.00000  Biso   1.000  Ru
  Ru4      1.0000 0.50000  0.80473  0.00000  Biso   1.000  Ru
  Cu1      1.0000 0.99796  0.15610  0.24498  Biso   1.000  Cu
  Cu2      1.0000 0.00204  0.15610  0.75502  Biso   1.000  Cu
  Cu3      1.0000 0.49796  0.65610  0.24498  Biso   1.000  Cu
  Cu4      1.0000 0.50204  0.65610  0.75502  Biso   1.000  Cu
  Cu5      1.0000 0.25004  0.90583  0.74702  Biso   1.000  Cu
  Cu6      1.0000 0.74996  0.90583  0.25298  Biso   1.000  Cu
  Cu7      1.0000 0.75004  0.40583  0.74702  Biso   1.000  Cu
  Cu8      1.0000 0.24996  0.40583  0.25298  Biso   1.000  Cu
  N1       1.0000 0.94050  0.87680  0.59150  Biso   1.000  N
  N2       1.0000 0.05950  0.87680  0.40850  Biso   1.000  N
  N3       1.0000 0.44050  0.37680  0.59150  Biso   1.000  N
  N4       1.0000 0.55950  0.37680  0.40850  Biso   1.000  N
  N5       1.0000 0.15970  0.01620  0.70990  Biso   1.000  N
  N6       1.0000 0.84030  0.01620  0.29010  Biso   1.000  N
  N7       1.0000 0.65970  0.51620  0.70990  Biso   1.000  N
  N8       1.0000 0.34030  0.51620  0.29010  Biso   1.000  N
  N9       1.0000 0.08720  0.13150  0.43200  Biso   1.000  N
  N10      1.0000 0.91280  0.13150  0.56800  Biso   1.000  N
  N11      1.0000 0.58720  0.63150  0.43200  Biso   1.000  N
  N12      1.0000 0.41280  0.63150  0.56800  Biso   1.000  N
  N13      1.0000 0.97590  0.04520  0.21310  Biso   1.000  N
  N14      1.0000 0.02410  0.04520  0.78690  Biso   1.000  N
  N15      1.0000 0.47590  0.54520  0.21310  Biso   1.000  N
  N16      1.0000 0.52410  0.54520  0.78690  Biso   1.000  N
  N17      1.0000 0.09590  0.13820  0.22830  Biso   1.000  N
  N18      1.0000 0.90410  0.13820  0.77170  Biso   1.000  N
  N19      1.0000 0.59590  0.63820  0.22830  Biso   1.000  N
  N20      1.0000 0.40410  0.63820  0.77170  Biso   1.000  N
  N21      1.0000 0.90260  0.17210  0.26020  Biso   1.000  N
  N22      1.0000 0.09740  0.17210  0.73980  Biso   1.000  N
  N23      1.0000 0.40260  0.67210  0.26020  Biso   1.000  N
  N24      1.0000 0.59740  0.67210  0.73980  Biso   1.000  N
  N25      1.0000 0.01840  0.26620  0.27610  Biso   1.000  N
  N26      1.0000 0.98160  0.26620  0.72390  Biso   1.000  N
  N27      1.0000 0.51840  0.76620  0.27610  Biso   1.000  N
  N28      1.0000 0.48160  0.76620  0.72390  Biso   1.000  N
  N29      1.0000 0.91200  0.18070  0.05730  Biso   1.000  N
  N30      1.0000 0.08800  0.18070  0.94270  Biso   1.000  N
  N31      1.0000 0.41200  0.68070  0.05730  Biso   1.000  N
  N32      1.0000 0.58800  0.68070  0.94270  Biso   1.000  N
  N33      1.0000 0.34390  0.79850  0.78990  Biso   1.000  N
  N34      1.0000 0.65610  0.79850  0.21010  Biso   1.000  N
  N35      1.0000 0.84390  0.29850  0.78990  Biso   1.000  N
  N36      1.0000 0.15610  0.29850  0.21010  Biso   1.000  N
  N37      1.0000 0.05460  0.43420  0.90630  Biso   1.000  N
  N38      1.0000 0.94540  0.43420  0.09370  Biso   1.000  N
  N39      1.0000 0.55460  0.93420  0.90630  Biso   1.000  N
  N40      1.0000 0.44540  0.93420  0.09370  Biso   1.000  N
  N41      1.0000 0.27080  0.91300  0.88710  Biso   1.000  N
  N42      1.0000 0.72920  0.91300  0.11290  Biso   1.000  N
  N43      1.0000 0.77080  0.41300  0.88710  Biso   1.000  N
  N44      1.0000 0.22920  0.41300  0.11290  Biso   1.000  N
  N45      1.0000 0.16070  0.83590  0.72800  Biso   1.000  N
  N46      1.0000 0.83930  0.83590  0.27200  Biso   1.000  N
  N47      1.0000 0.66070  0.33590  0.72800  Biso   1.000  N
  N48      1.0000 0.33930  0.33590  0.27200  Biso   1.000  N
  N49      1.0000 0.23060  0.89670  0.60980  Biso   1.000  N
  N50      1.0000 0.76940  0.89670  0.39020  Biso   1.000  N
  N51      1.0000 0.73060  0.39670  0.60980  Biso   1.000  N
  N52      1.0000 0.26940  0.39670  0.39020  Biso   1.000  N
  N53      1.0000 0.34240  0.97610  0.76570  Biso   1.000  N
  N54      1.0000 0.65760  0.97610  0.23430  Biso   1.000  N
  N55      1.0000 0.84240  0.47610  0.76570  Biso   1.000  N
  N56      1.0000 0.15760  0.47610  0.23430  Biso   1.000  N
  C1       1.0000 0.95620  0.92510  0.55530  Biso   1.000  C
  C2       1.0000 0.04380  0.92510  0.44470  Biso   1.000  C
  C3       1.0000 0.45620  0.42510  0.55530  Biso   1.000  C
  C4       1.0000 0.54380  0.42510  0.44470  Biso   1.000  C
  C5       1.0000 0.10080  0.01080  0.63060  Biso   1.000  C
  C6       1.0000 0.89920  0.01080  0.36940  Biso   1.000  C
  C7       1.0000 0.60080  0.51080  0.63060  Biso   1.000  C
  C8       1.0000 0.39920  0.51080  0.36940  Biso   1.000  C
  C9       1.0000 0.05520  0.08610  0.45730  Biso   1.000  C
  C10      1.0000 0.94480  0.08610  0.54270  Biso   1.000  C
  C11      1.0000 0.55520  0.58610  0.45730  Biso   1.000  C
  C12      1.0000 0.44480  0.58610  0.54270  Biso   1.000  C
  C13      1.0000 0.02490  0.01970  0.17070  Biso   1.000  C
  C14      1.0000 0.97510  0.01970  0.82930  Biso   1.000  C
  C15      1.0000 0.52490  0.51970  0.17070  Biso   1.000  C
  C16      1.0000 0.47510  0.51970  0.82930  Biso   1.000  C
  C17      1.0000 0.03500  0.93320  0.17150  Biso   1.000  C
  C18      1.0000 0.96500  0.93320  0.82850  Biso   1.000  C
  C19      1.0000 0.53500  0.43320  0.17150  Biso   1.000  C
  C20      1.0000 0.46500  0.43320  0.82850  Biso   1.000  C
  C21      1.0000 0.09000  0.91130  0.13070  Biso   1.000  C
  C22      1.0000 0.91000  0.91130  0.86930  Biso   1.000  C
  C23      1.0000 0.59000  0.41130  0.13070  Biso   1.000  C
  C24      1.0000 0.41000  0.41130  0.86930  Biso   1.000  C
  C25      1.0000 0.17240  0.95100  0.18660  Biso   1.000  C
  C26      1.0000 0.82760  0.95100  0.81340  Biso   1.000  C
  C27      1.0000 0.67240  0.45100  0.18660  Biso   1.000  C
  C28      1.0000 0.32760  0.45100  0.81340  Biso   1.000  C
  C29      1.0000 0.16480  0.03260  0.18800  Biso   1.000  C
  C30      1.0000 0.83520  0.03260  0.81200  Biso   1.000  C
  C31      1.0000 0.66480  0.53260  0.18800  Biso   1.000  C
  C32      1.0000 0.33520  0.53260  0.81200  Biso   1.000  C
  C33      1.0000 0.10890  0.05550  0.22940  Biso   1.000  C
  C34      1.0000 0.89110  0.05550  0.77060  Biso   1.000  C
  C35      1.0000 0.60890  0.55550  0.22940  Biso   1.000  C
  C36      1.0000 0.39110  0.55550  0.77060  Biso   1.000  C
  C37      1.0000 0.91350  0.24250  0.31640  Biso   1.000  C
  C38      1.0000 0.08650  0.24250  0.68360  Biso   1.000  C
  C39      1.0000 0.41350  0.74250  0.31640  Biso   1.000  C
  C40      1.0000 0.58650  0.74250  0.68360  Biso   1.000  C
  C41      1.0000 0.83950  0.26910  0.31860  Biso   1.000  C
  C42      1.0000 0.16050  0.26910  0.68140  Biso   1.000  C
  C43      1.0000 0.33950  0.76910  0.31860  Biso   1.000  C
  C44      1.0000 0.66050  0.76910  0.68140  Biso   1.000  C
  C45      1.0000 0.85490  0.33990  0.37400  Biso   1.000  C
  C46      1.0000 0.14510  0.33990  0.62600  Biso   1.000  C
  C47      1.0000 0.35490  0.83990  0.37400  Biso   1.000  C
  C48      1.0000 0.64510  0.83990  0.62600  Biso   1.000  C
  C49      1.0000 0.89000  0.40170  0.33430  Biso   1.000  C
  C50      1.0000 0.11000  0.40170  0.66570  Biso   1.000  C
  C51      1.0000 0.39000  0.90170  0.33430  Biso   1.000  C
  C52      1.0000 0.61000  0.90170  0.66570  Biso   1.000  C
  C53      1.0000 0.96500  0.37100  0.33180  Biso   1.000  C
  C54      1.0000 0.03500  0.37100  0.66820  Biso   1.000  C
  C55      1.0000 0.46500  0.87100  0.33180  Biso   1.000  C
  C56      1.0000 0.53500  0.87100  0.66820  Biso   1.000  C
  C57      1.0000 0.94700  0.30080  0.27600  Biso   1.000  C
  C58      1.0000 0.05300  0.30080  0.72400  Biso   1.000  C
  C59      1.0000 0.44700  0.80080  0.27600  Biso   1.000  C
  C60      1.0000 0.55300  0.80080  0.72400  Biso   1.000  C
  C61      1.0000 0.94610  0.22360  0.04120  Biso   1.000  C
  C62      1.0000 0.05390  0.22360  0.95880  Biso   1.000  C
  C63      1.0000 0.44610  0.72360  0.04120  Biso   1.000  C
  C64      1.0000 0.55390  0.72360  0.95880  Biso   1.000  C
  C65      1.0000 0.39890  0.80130  0.86550  Biso   1.000  C
  C66      1.0000 0.60110  0.80130  0.13450  Biso   1.000  C
  C67      1.0000 0.89890  0.30130  0.86550  Biso   1.000  C
  C68      1.0000 0.10110  0.30130  0.13450  Biso   1.000  C
  C69      1.0000 0.03710  0.38660  0.94250  Biso   1.000  C
  C70      1.0000 0.96290  0.38660  0.05750  Biso   1.000  C
  C71      1.0000 0.53710  0.88660  0.94250  Biso   1.000  C
  C72      1.0000 0.46290  0.88660  0.05750  Biso   1.000  C
  C73      1.0000 0.26470  0.96690  0.58880  Biso   1.000  C
  C74      1.0000 0.73530  0.96690  0.41120  Biso   1.000  C
  C75      1.0000 0.76470  0.46690  0.58880  Biso   1.000  C
  C76      1.0000 0.23530  0.46690  0.41120  Biso   1.000  C
  C77      1.0000 0.26680  0.96140  0.49510  Biso   1.000  C
  C78      1.0000 0.73320  0.96140  0.50490  Biso   1.000  C
  C79      1.0000 0.76680  0.46140  0.49510  Biso   1.000  C
  C80      1.0000 0.23320  0.46140  0.50490  Biso   1.000  C
  C81      1.0000 0.30170  0.03310  0.47540  Biso   1.000  C
  C82      1.0000 0.69830  0.03310  0.52460  Biso   1.000  C
  C83      1.0000 0.80170  0.53310  0.47540  Biso   1.000  C
  C84      1.0000 0.19830  0.53310  0.52460  Biso   1.000  C
  C85      1.0000 0.39030  0.04110  0.56460  Biso   1.000  C
  C86      1.0000 0.60970  0.04110  0.43540  Biso   1.000  C
  C87      1.0000 0.89030  0.54110  0.56460  Biso   1.000  C
  C88      1.0000 0.10970  0.54110  0.43540  Biso   1.000  C
  C89      1.0000 0.38910  0.04600  0.66090  Biso   1.000  C
  C90      1.0000 0.61090  0.04600  0.33910  Biso   1.000  C
  C91      1.0000 0.88910  0.54600  0.66090  Biso   1.000  C
  C92      1.0000 0.11090  0.54600  0.33910  Biso   1.000  C
  C93      1.0000 0.34820  0.97590  0.67600  Biso   1.000  C
  C94      1.0000 0.65180  0.97590  0.32400  Biso   1.000  C
  C95      1.0000 0.84820  0.47590  0.67600  Biso   1.000  C
  C96      1.0000 0.15180  0.47590  0.32400  Biso   1.000  C
  C97      1.0000 0.21000  0.87130  0.89850  Biso   1.000  C
  C98      1.0000 0.79000  0.87130  0.10150  Biso   1.000  C
  C99      1.0000 0.71000  0.37130  0.89850  Biso   1.000  C
  C100     1.0000 0.29000  0.37130  0.10150  Biso   1.000  C
  C101     1.0000 0.24000  0.84550  0.00610  Biso   1.000  C
  C102     1.0000 0.76000  0.84550  0.99390  Biso   1.000  C
  C103     1.0000 0.74000  0.34550  0.00610  Biso   1.000  C
  C104     1.0000 0.26000  0.34550  0.99390  Biso   1.000  C
  C105     1.0000 0.17210  0.79920  0.00910  Biso   1.000  C
  C106     1.0000 0.82790  0.79920  0.99090  Biso   1.000  C
  C107     1.0000 0.67210  0.29920  0.00910  Biso   1.000  C
  C108     1.0000 0.32790  0.29920  0.99090  Biso   1.000  C
  C109     1.0000 0.13830  0.73880  0.93990  Biso   1.000  C
  C110     1.0000 0.86170  0.73880  0.06010  Biso   1.000  C
  C111     1.0000 0.63830  0.23880  0.93990  Biso   1.000  C
  C112     1.0000 0.36170  0.23880  0.06010  Biso   1.000  C
  C113     1.0000 0.11350  0.76430  0.83050  Biso   1.000  C
  C114     1.0000 0.88650  0.76430  0.16950  Biso   1.000  C
  C115     1.0000 0.61350  0.26430  0.83050  Biso   1.000  C
  C116     1.0000 0.38650  0.26430  0.16950  Biso   1.000  C
  C117     1.0000 0.18170  0.80610  0.82780  Biso   1.000  C
  C118     1.0000 0.81830  0.80610  0.17220  Biso   1.000  C
  C119     1.0000 0.68170  0.30610  0.82780  Biso   1.000  C
  C120     1.0000 0.31830  0.30610  0.17220  Biso   1.000  C
  O1       1.0000 0.52140  0.22280  0.42930  Biso   1.000  O
  O2       1.0000 0.47860  0.22280  0.57070  Biso   1.000  O
  O3       1.0000 0.02140  0.72280  0.42930  Biso   1.000  O
  O4       1.0000 0.97860  0.72280  0.57070  Biso   1.000  O
  O5       1.0000 0.33850  0.27560  0.63730  Biso   1.000  O
  O6       1.0000 0.66150  0.27560  0.36270  Biso   1.000  O
  O7       1.0000 0.83850  0.77560  0.63730  Biso   1.000  O
  O8       1.0000 0.16150  0.77560  0.36270  Biso   1.000  O
  O9       1.0000 0.20650  0.23620  0.45800  Biso   1.000  O
  O10      1.0000 0.79350  0.23620  0.54200  Biso   1.000  O
  O11      1.0000 0.70650  0.73620  0.45800  Biso   1.000  O
  O12      1.0000 0.29350  0.73620  0.54200  Biso   1.000  O
  O13      1.0000 0.29780  0.56650  0.03780  Biso   1.000  O
  O14      1.0000 0.70220  0.56650  0.96220  Biso   1.000  O
  O15      1.0000 0.79780  0.06650  0.03780  Biso   1.000  O
  O16      1.0000 0.20220  0.06650  0.96220  Biso   1.000  O
  O17      1.0000 0.60780  0.19580  0.18310  Biso   1.000  O
  O18      1.0000 0.39220  0.19580  0.81690  Biso   1.000  O
  O19      1.0000 0.10780  0.69580  0.18310  Biso   1.000  O
  O20      1.0000 0.89220  0.69580  0.81690  Biso   1.000  O
  O21      1.0000 0.20680  0.60640  0.12960  Biso   1.000  O
  O22      1.0000 0.79320  0.60640  0.87040  Biso   1.000  O
  O23      1.0000 0.70680  0.10640  0.12960  Biso   1.000  O
  O24      1.0000 0.29320  0.10640  0.87040  Biso   1.000  O
  O25      1.0000 0.33630  0.02980  0.13590  Biso   1.000  O
  O26      1.0000 0.66370  0.02980  0.86410  Biso   1.000  O
  O27      1.0000 0.83630  0.52980  0.13590  Biso   1.000  O
  O28      1.0000 0.16370  0.52980  0.86410  Biso   1.000  O
  O29      1.0000 0.39150  0.10520  0.32150  Biso   1.000  O
  O30      1.0000 0.60850  0.10520  0.67850  Biso   1.000  O
  O31      1.0000 0.89150  0.60520  0.32150  Biso   1.000  O
  O32      1.0000 0.10850  0.60520  0.67850  Biso   1.000  O
  O33      1.0000 0.28580  0.20470  0.35620  Biso   1.000  O
  O34      1.0000 0.71420  0.20470  0.64380  Biso   1.000  O
  O35      1.0000 0.78580  0.70470  0.35620  Biso   1.000  O
  O36      1.0000 0.21420  0.70470  0.64380  Biso   1.000  O
  H1       1.0000 0.99990  0.03770  0.10130  Biso   1.000  H
  H2       1.0000 0.00010  0.03770  0.89870  Biso   1.000  H
  H3       1.0000 0.49990  0.53770  0.10130  Biso   1.000  H
  H4       1.0000 0.50010  0.53770  0.89870  Biso   1.000  H
  H5       1.0000 0.98790  0.01850  0.26910  Biso   1.000  H
  H6       1.0000 0.01210  0.01850  0.73090  Biso   1.000  H
  H7       1.0000 0.48790  0.51850  0.26910  Biso   1.000  H
  H8       1.0000 0.51210  0.51850  0.73090  Biso   1.000  H
  H9       1.0000 0.92240  0.03810  0.16870  Biso   1.000  H
  H10      1.0000 0.07760  0.03810  0.83130  Biso   1.000  H
  H11      1.0000 0.42240  0.53810  0.16870  Biso   1.000  H
  H12      1.0000 0.57760  0.53810  0.83130  Biso   1.000  H
  H13      1.0000 0.05770  0.91440  0.23960  Biso   1.000  H
  H14      1.0000 0.94230  0.91440  0.76040  Biso   1.000  H
  H15      1.0000 0.55770  0.41440  0.23960  Biso   1.000  H
  H16      1.0000 0.44230  0.41440  0.76040  Biso   1.000  H
  H17      1.0000 0.98160  0.90960  0.13160  Biso   1.000  H
  H18      1.0000 0.01840  0.90960  0.86840  Biso   1.000  H
  H19      1.0000 0.48160  0.40960  0.13160  Biso   1.000  H
  H20      1.0000 0.51840  0.40960  0.86840  Biso   1.000  H
  H21      1.0000 0.14030  0.16050  0.27900  Biso   1.000  H
  H22      1.0000 0.85970  0.16050  0.72100  Biso   1.000  H
  H23      1.0000 0.64030  0.66050  0.27900  Biso   1.000  H
  H24      1.0000 0.35970  0.66050  0.72100  Biso   1.000  H
  H25      1.0000 0.08820  0.15860  0.17020  Biso   1.000  H
  H26      1.0000 0.91180  0.15860  0.82980  Biso   1.000  H
  H27      1.0000 0.58820  0.65860  0.17020  Biso   1.000  H
  H28      1.0000 0.41180  0.65860  0.82980  Biso   1.000  H
  H29      1.0000 0.06420  0.92490  0.06040  Biso   1.000  H
  H30      1.0000 0.93580  0.92490  0.93960  Biso   1.000  H
  H31      1.0000 0.56420  0.42490  0.06040  Biso   1.000  H
  H32      1.0000 0.43580  0.42490  0.93960  Biso   1.000  H
  H33      1.0000 0.09810  0.85640  0.13610  Biso   1.000  H
  H34      1.0000 0.90190  0.85640  0.86390  Biso   1.000  H
  H35      1.0000 0.59810  0.35640  0.13610  Biso   1.000  H
  H36      1.0000 0.40190  0.35640  0.86390  Biso   1.000  H
  H37      1.0000 0.85720  0.17540  0.19970  Biso   1.000  H
  H38      1.0000 0.14280  0.17540  0.80030  Biso   1.000  H
  H39      1.0000 0.35720  0.67540  0.19970  Biso   1.000  H
  H40      1.0000 0.64280  0.67540  0.80030  Biso   1.000  H
  H41      1.0000 0.89630  0.13250  0.29360  Biso   1.000  H
  H42      1.0000 0.10370  0.13250  0.70640  Biso   1.000  H
  H43      1.0000 0.39630  0.63250  0.29360  Biso   1.000  H
  H44      1.0000 0.60370  0.63250  0.70640  Biso   1.000  H
  H45      1.0000 0.20100  0.93220  0.25490  Biso   1.000  H
  H46      1.0000 0.79900  0.93220  0.74510  Biso   1.000  H
  H47      1.0000 0.70100  0.43220  0.25490  Biso   1.000  H
  H48      1.0000 0.29900  0.43220  0.74510  Biso   1.000  H
  H49      1.0000 0.20530  0.93820  0.15510  Biso   1.000  H
  H50      1.0000 0.79470  0.93820  0.84490  Biso   1.000  H
  H51      1.0000 0.70530  0.43820  0.15510  Biso   1.000  H
  H52      1.0000 0.29470  0.43820  0.84490  Biso   1.000  H
  H53      1.0000 0.06310  0.27250  0.33670  Biso   1.000  H
  H54      1.0000 0.93690  0.27250  0.66330  Biso   1.000  H
  H55      1.0000 0.56310  0.77250  0.33670  Biso   1.000  H
  H56      1.0000 0.43690  0.77250  0.66330  Biso   1.000  H
  H57      1.0000 0.02800  0.28940  0.23000  Biso   1.000  H
  H58      1.0000 0.97200  0.28940  0.77000  Biso   1.000  H
  H59      1.0000 0.52800  0.78940  0.23000  Biso   1.000  H
  H60      1.0000 0.47200  0.78940  0.77000  Biso   1.000  H
  H61      1.0000 0.14290  0.05230  0.12040  Biso   1.000  H
  H62      1.0000 0.85710  0.05230  0.87960  Biso   1.000  H
  H63      1.0000 0.64290  0.55230  0.12040  Biso   1.000  H
  H64      1.0000 0.35710  0.55230  0.87960  Biso   1.000  H
  H65      1.0000 0.21870  0.05500  0.22880  Biso   1.000  H
  H66      1.0000 0.78130  0.05500  0.77120  Biso   1.000  H
  H67      1.0000 0.71870  0.55500  0.22880  Biso   1.000  H
  H68      1.0000 0.28130  0.55500  0.77120  Biso   1.000  H
  H69      1.0000 0.13350  0.03770  0.29890  Biso   1.000  H
  H70      1.0000 0.86650  0.03770  0.70110  Biso   1.000  H
  H71      1.0000 0.63350  0.53770  0.29890  Biso   1.000  H
  H72      1.0000 0.36650  0.53770  0.70110  Biso   1.000  H
  H73      1.0000 0.95560  0.23260  0.38580  Biso   1.000  H
  H74      1.0000 0.04440  0.23260  0.61420  Biso   1.000  H
  H75      1.0000 0.45560  0.73260  0.38580  Biso   1.000  H
  H76      1.0000 0.54440  0.73260  0.61420  Biso   1.000  H
  H77      1.0000 0.79550  0.27680  0.25060  Biso   1.000  H
  H78      1.0000 0.20450  0.27680  0.74940  Biso   1.000  H
  H79      1.0000 0.29550  0.77680  0.25060  Biso   1.000  H
  H80      1.0000 0.70450  0.77680  0.74940  Biso   1.000  H
  H81      1.0000 0.82190  0.23030  0.34950  Biso   1.000  H
  H82      1.0000 0.17810  0.23030  0.65050  Biso   1.000  H
  H83      1.0000 0.32190  0.73030  0.34950  Biso   1.000  H
  H84      1.0000 0.67810  0.73030  0.65050  Biso   1.000  H
  H85      1.0000 0.26960  0.96240  0.90320  Biso   1.000  H
  H86      1.0000 0.73040  0.96240  0.09680  Biso   1.000  H
  H87      1.0000 0.76960  0.46240  0.90320  Biso   1.000  H
  H88      1.0000 0.23040  0.46240  0.09680  Biso   1.000  H
  H89      1.0000 0.32100  0.89410  0.92910  Biso   1.000  H
  H90      1.0000 0.67900  0.89410  0.07090  Biso   1.000  H
  H91      1.0000 0.82100  0.39410  0.92910  Biso   1.000  H
  H92      1.0000 0.17900  0.39410  0.07090  Biso   1.000  H
  H93      1.0000 0.89330  0.33050  0.44410  Biso   1.000  H
  H94      1.0000 0.10670  0.33050  0.55590  Biso   1.000  H
  H95      1.0000 0.39330  0.83050  0.44410  Biso   1.000  H
  H96      1.0000 0.60670  0.83050  0.55590  Biso   1.000  H
  H97      1.0000 0.80390  0.35820  0.36940  Biso   1.000  H
  H98      1.0000 0.19610  0.35820  0.63060  Biso   1.000  H
  H99      1.0000 0.30390  0.85820  0.36940  Biso   1.000  H
  H100     1.0000 0.69610  0.85820  0.63060  Biso   1.000  H
  H101     1.0000 0.11240  0.86100  0.70130  Biso   1.000  H
  H102     1.0000 0.88760  0.86100  0.29870  Biso   1.000  H
  H103     1.0000 0.61240  0.36100  0.70130  Biso   1.000  H
  H104     1.0000 0.38760  0.36100  0.29870  Biso   1.000  H
  H105     1.0000 0.15640  0.79740  0.68640  Biso   1.000  H
  H106     1.0000 0.84360  0.79740  0.31360  Biso   1.000  H
  H107     1.0000 0.65640  0.29740  0.68640  Biso   1.000  H
  H108     1.0000 0.34360  0.29740  0.31360  Biso   1.000  H
  H109     1.0000 0.84880  0.41680  0.26730  Biso   1.000  H
  H110     1.0000 0.15120  0.41680  0.73270  Biso   1.000  H
  H111     1.0000 0.34880  0.91680  0.26730  Biso   1.000  H
  H112     1.0000 0.65120  0.91680  0.73270  Biso   1.000  H
  H113     1.0000 0.90490  0.44640  0.37720  Biso   1.000  H
  H114     1.0000 0.09510  0.44640  0.62280  Biso   1.000  H
  H115     1.0000 0.40490  0.94640  0.37720  Biso   1.000  H
  H116     1.0000 0.59510  0.94640  0.62280  Biso   1.000  H
  H117     1.0000 0.17630  0.89310  0.56660  Biso   1.000  H
  H118     1.0000 0.82370  0.89310  0.43340  Biso   1.000  H
  H119     1.0000 0.67630  0.39310  0.56660  Biso   1.000  H
  H120     1.0000 0.32370  0.39310  0.43340  Biso   1.000  H
  H121     1.0000 0.25560  0.85470  0.60340  Biso   1.000  H
  H122     1.0000 0.74440  0.85470  0.39660  Biso   1.000  H
  H123     1.0000 0.75560  0.35470  0.60340  Biso   1.000  H
  H124     1.0000 0.24440  0.35470  0.39660  Biso   1.000  H
  H125     1.0000 0.98430  0.40880  0.30150  Biso   1.000  H
  H126     1.0000 0.01570  0.40880  0.69850  Biso   1.000  H
  H127     1.0000 0.48430  0.90880  0.30150  Biso   1.000  H
  H128     1.0000 0.51570  0.90880  0.69850  Biso   1.000  H
  H129     1.0000 0.00850  0.36220  0.39980  Biso   1.000  H
  H130     1.0000 0.99150  0.36220  0.60020  Biso   1.000  H
  H131     1.0000 0.50850  0.86220  0.39980  Biso   1.000  H
  H132     1.0000 0.49150  0.86220  0.60020  Biso   1.000  H
  H133     1.0000 0.39010  0.95980  0.81740  Biso   1.000  H
  H134     1.0000 0.60990  0.95980  0.18260  Biso   1.000  H
  H135     1.0000 0.89010  0.45980  0.81740  Biso   1.000  H
  H136     1.0000 0.10990  0.45980  0.18260  Biso   1.000  H
  H137     1.0000 0.33240  0.02390  0.77910  Biso   1.000  H
  H138     1.0000 0.66760  0.02390  0.22090  Biso   1.000  H
  H139     1.0000 0.83240  0.52390  0.77910  Biso   1.000  H
  H140     1.0000 0.16760  0.52390  0.22090  Biso   1.000  H
  H141     1.0000 0.90570  0.31140  0.20640  Biso   1.000  H
  H142     1.0000 0.09430  0.31140  0.79360  Biso   1.000  H
  H143     1.0000 0.40570  0.81140  0.20640  Biso   1.000  H
  H144     1.0000 0.59430  0.81140  0.79360  Biso   1.000  H
  H145     1.0000 0.23100  0.01080  0.58570  Biso   1.000  H
  H146     1.0000 0.76900  0.01080  0.41430  Biso   1.000  H
  H147     1.0000 0.73100  0.51080  0.58570  Biso   1.000  H
  H148     1.0000 0.26900  0.51080  0.41430  Biso   1.000  H
  H149     1.0000 0.21150  0.95320  0.44050  Biso   1.000  H
  H150     1.0000 0.78850  0.95320  0.55950  Biso   1.000  H
  H151     1.0000 0.71150  0.45320  0.44050  Biso   1.000  H
  H152     1.0000 0.28850  0.45320  0.55950  Biso   1.000  H
  H153     1.0000 0.30010  0.91790  0.49780  Biso   1.000  H
  H154     1.0000 0.69990  0.91790  0.50220  Biso   1.000  H
  H155     1.0000 0.80010  0.41790  0.49780  Biso   1.000  H
  H156     1.0000 0.19990  0.41790  0.50220  Biso   1.000  H
  H157     1.0000 0.26880  0.07720  0.47190  Biso   1.000  H
  H158     1.0000 0.73120  0.07720  0.52810  Biso   1.000  H
  H159     1.0000 0.76880  0.57720  0.47190  Biso   1.000  H
  H160     1.0000 0.23120  0.57720  0.52810  Biso   1.000  H
  H161     1.0000 0.30280  0.02890  0.41270  Biso   1.000  H
  H162     1.0000 0.69720  0.02890  0.58730  Biso   1.000  H
  H163     1.0000 0.80280  0.52890  0.41270  Biso   1.000  H
  H164     1.0000 0.19720  0.52890  0.58730  Biso   1.000  H
  H165     1.0000 0.42280  0.99730  0.56600  Biso   1.000  H
  H166     1.0000 0.57720  0.99730  0.43400  Biso   1.000  H
  H167     1.0000 0.92280  0.49730  0.56600  Biso   1.000  H
  H168     1.0000 0.07720  0.49730  0.43400  Biso   1.000  H
  H169     1.0000 0.41570  0.08670  0.55580  Biso   1.000  H
  H170     1.0000 0.58430  0.08670  0.44420  Biso   1.000  H
  H171     1.0000 0.91570  0.58670  0.55580  Biso   1.000  H
  H172     1.0000 0.08430  0.58670  0.44420  Biso   1.000  H
  H173     1.0000 0.35950  0.09150  0.66120  Biso   1.000  H
  H174     1.0000 0.64050  0.09150  0.33880  Biso   1.000  H
  H175     1.0000 0.85950  0.59150  0.66120  Biso   1.000  H
  H176     1.0000 0.14050  0.59150  0.33880  Biso   1.000  H
  H177     1.0000 0.44500  0.05000  0.71570  Biso   1.000  H
  H178     1.0000 0.55500  0.05000  0.28430  Biso   1.000  H
  H179     1.0000 0.94500  0.55000  0.71570  Biso   1.000  H
  H180     1.0000 0.05500  0.55000  0.28430  Biso   1.000  H
  H181     1.0000 0.38060  0.93110  0.67800  Biso   1.000  H
  H182     1.0000 0.61940  0.93110  0.32200  Biso   1.000  H
  H183     1.0000 0.88060  0.43110  0.67800  Biso   1.000  H
  H184     1.0000 0.11940  0.43110  0.32200  Biso   1.000  H
  H185     1.0000 0.16290  0.90530  0.87970  Biso   1.000  H
  H186     1.0000 0.83710  0.90530  0.12030  Biso   1.000  H
  H187     1.0000 0.66290  0.40530  0.87970  Biso   1.000  H
  H188     1.0000 0.33710  0.40530  0.12030  Biso   1.000  H
  H189     1.0000 0.28910  0.81450  0.02910  Biso   1.000  H
  H190     1.0000 0.71090  0.81450  0.97090  Biso   1.000  H
  H191     1.0000 0.78910  0.31450  0.02910  Biso   1.000  H
  H192     1.0000 0.21090  0.31450  0.97090  Biso   1.000  H
  H193     1.0000 0.25320  0.88970  0.04970  Biso   1.000  H
  H194     1.0000 0.74680  0.88970  0.95030  Biso   1.000  H
  H195     1.0000 0.75320  0.38970  0.04970  Biso   1.000  H
  H196     1.0000 0.24680  0.38970  0.95030  Biso   1.000  H
  H197     1.0000 0.19370  0.77810  0.07600  Biso   1.000  H
  H198     1.0000 0.80630  0.77810  0.92400  Biso   1.000  H
  H199     1.0000 0.69370  0.27810  0.07600  Biso   1.000  H
  H200     1.0000 0.30630  0.27810  0.92400  Biso   1.000  H
  H201     1.0000 0.12800  0.83390  0.99850  Biso   1.000  H
  H202     1.0000 0.87200  0.83390  0.00150  Biso   1.000  H
  H203     1.0000 0.62800  0.33390  0.99850  Biso   1.000  H
  H204     1.0000 0.37200  0.33390  0.00150  Biso   1.000  H
  H205     1.0000 0.09010  0.71930  0.94140  Biso   1.000  H
  H206     1.0000 0.90990  0.71930  0.05860  Biso   1.000  H
  H207     1.0000 0.59010  0.21930  0.94140  Biso   1.000  H
  H208     1.0000 0.40990  0.21930  0.05860  Biso   1.000  H
  H209     1.0000 0.17800  0.69760  0.95960  Biso   1.000  H
  H210     1.0000 0.82200  0.69760  0.04040  Biso   1.000  H
  H211     1.0000 0.67800  0.19760  0.95960  Biso   1.000  H
  H212     1.0000 0.32200  0.19760  0.04040  Biso   1.000  H
  H213     1.0000 0.09930  0.71970  0.78760  Biso   1.000  H
  H214     1.0000 0.90070  0.71970  0.21240  Biso   1.000  H
  H215     1.0000 0.59930  0.21970  0.78760  Biso   1.000  H
  H216     1.0000 0.40070  0.21970  0.21240  Biso   1.000  H
  H217     1.0000 0.06540  0.79710  0.80500  Biso   1.000  H
  H218     1.0000 0.93460  0.79710  0.19500  Biso   1.000  H
  H219     1.0000 0.56540  0.29710  0.80500  Biso   1.000  H
  H220     1.0000 0.43460  0.29710  0.19500  Biso   1.000  H
  H221     1.0000 0.22780  0.77060  0.84850  Biso   1.000  H
  H222     1.0000 0.77220  0.77060  0.15150  Biso   1.000  H
  H223     1.0000 0.72780  0.27060  0.84850  Biso   1.000  H
  H224     1.0000 0.27220  0.27060  0.15150  Biso   1.000  H
