data_image0
_cell_length_a       8.92
_cell_length_b       15.524
_cell_length_c       15.861
_cell_angle_alpha    90.076
_cell_angle_beta     95.216
_cell_angle_gamma    90.973

_symmetry_space_group_name_H-M    "P 1"
_symmetry_int_tables_number       1

loop_
  _symmetry_equiv_pos_as_xyz
  'x, y, z'

loop_
  _atom_site_label
  _atom_site_occupancy
  _atom_site_fract_x
  _atom_site_fract_y
  _atom_site_fract_z
  _atom_site_thermal_displace_type
  _atom_site_B_iso_or_equiv
  _atom_site_type_symbol
  Cu1      1.0000 0.37471  0.10336  0.16974  Biso   1.000  Cu
  Cu2      1.0000 0.62529  0.89664  0.83026  Biso   1.000  Cu
  C1       1.0000 0.08010  0.11300  0.24450  Biso   1.000  C
  C2       1.0000 0.91990  0.88700  0.75550  Biso   1.000  C
  H1       1.0000 0.09770  0.17220  0.24770  Biso   1.000  H
  H2       1.0000 0.90230  0.82780  0.75230  Biso   1.000  H
  C3       1.0000 0.95280  0.07910  0.27460  Biso   1.000  C
  C4       1.0000 0.04720  0.92090  0.72540  Biso   1.000  C
  H3       1.0000 0.88520  0.11530  0.29770  Biso   1.000  H
  H4       1.0000 0.11480  0.88470  0.70230  Biso   1.000  H
  C5       1.0000 0.92530  0.99400  0.27080  Biso   1.000  C
  C6       1.0000 0.07470  0.00600  0.72920  Biso   1.000  C
  H5       1.0000 0.83890  0.97070  0.29110  Biso   1.000  H
  H6       1.0000 0.16110  0.02930  0.70890  Biso   1.000  H
  C7       1.0000 0.02720  0.94140  0.23630  Biso   1.000  C
  C8       1.0000 0.97280  0.05860  0.76370  Biso   1.000  C
  H7       1.0000 0.01060  0.88220  0.23280  Biso   1.000  H
  H8       1.0000 0.98940  0.11780  0.76720  Biso   1.000  H
  C9       1.0000 0.15390  0.97850  0.20720  Biso   1.000  C
  C10      1.0000 0.84610  0.02150  0.79280  Biso   1.000  C
  C11      1.0000 0.27270  0.93030  0.16960  Biso   1.000  C
  C12      1.0000 0.72730  0.06970  0.83040  Biso   1.000  C
  C13      1.0000 0.28080  0.84280  0.16040  Biso   1.000  C
  C14      1.0000 0.71920  0.15720  0.83960  Biso   1.000  C
  H9       1.0000 0.20370  0.80720  0.17670  Biso   1.000  H
  H10      1.0000 0.79630  0.19280  0.82330  Biso   1.000  H
  C15      1.0000 0.40450  0.80700  0.12650  Biso   1.000  C
  C16      1.0000 0.59550  0.19300  0.87350  Biso   1.000  C
  C17      1.0000 0.51460  0.86280  0.10220  Biso   1.000  C
  C18      1.0000 0.48540  0.13720  0.89780  Biso   1.000  C
  H11      1.0000 0.59770  0.84140  0.07820  Biso   1.000  H
  H12      1.0000 0.40230  0.15860  0.92180  Biso   1.000  H
  C19      1.0000 0.50150  0.94990  0.11340  Biso   1.000  C
  C20      1.0000 0.49850  0.05010  0.88660  Biso   1.000  C
  C21      1.0000 0.61020  0.01810  0.09390  Biso   1.000  C
  C22      1.0000 0.38980  0.98190  0.90610  Biso   1.000  C
  C23      1.0000 0.74430  0.00440  0.05980  Biso   1.000  C
  C24      1.0000 0.25570  0.99560  0.94020  Biso   1.000  C
  H13      1.0000 0.77220  0.94910  0.04600  Biso   1.000  H
  H14      1.0000 0.22780  0.05090  0.95400  Biso   1.000  H
  C25      1.0000 0.83590  0.07390  0.04660  Biso   1.000  C
  C26      1.0000 0.16410  0.92610  0.95340  Biso   1.000  C
  H15      1.0000 0.92670  0.06600  0.02340  Biso   1.000  H
  H16      1.0000 0.07330  0.93400  0.97660  Biso   1.000  H
  C27      1.0000 0.79400  0.15440  0.06760  Biso   1.000  C
  C28      1.0000 0.20600  0.84560  0.93240  Biso   1.000  C
  H17      1.0000 0.85640  0.20180  0.05960  Biso   1.000  H
  H18      1.0000 0.14360  0.79820  0.94040  Biso   1.000  H
  C29      1.0000 0.65820  0.16480  0.10060  Biso   1.000  C
  C30      1.0000 0.34180  0.83520  0.89940  Biso   1.000  C
  H19      1.0000 0.62870  0.21980  0.11430  Biso   1.000  H
  H20      1.0000 0.37130  0.78020  0.88570  Biso   1.000  H
  C31      1.0000 0.41960  0.71260  0.12110  Biso   1.000  C
  C32      1.0000 0.58040  0.28740  0.87890  Biso   1.000  C
  C33      1.0000 0.31960  0.65660  0.15230  Biso   1.000  C
  C34      1.0000 0.68040  0.34340  0.84770  Biso   1.000  C
  H21      1.0000 0.23340  0.67810  0.17300  Biso   1.000  H
  H22      1.0000 0.76660  0.32190  0.82700  Biso   1.000  H
  C35      1.0000 0.34180  0.56960  0.15420  Biso   1.000  C
  C36      1.0000 0.65820  0.43040  0.84580  Biso   1.000  C
  H23      1.0000 0.26970  0.53380  0.17570  Biso   1.000  H
  H24      1.0000 0.73030  0.46620  0.82430  Biso   1.000  H
  C37      1.0000 0.46410  0.53410  0.12610  Biso   1.000  C
  C38      1.0000 0.53590  0.46590  0.87390  Biso   1.000  C
  C39      1.0000 0.55990  0.58900  0.08970  Biso   1.000  C
  C40      1.0000 0.44010  0.41100  0.91030  Biso   1.000  C
  H25      1.0000 0.64230  0.56660  0.06580  Biso   1.000  H
  H26      1.0000 0.35770  0.43340  0.93420  Biso   1.000  H
  C41      1.0000 0.53880  0.67690  0.08720  Biso   1.000  C
  C42      1.0000 0.46120  0.32310  0.91280  Biso   1.000  C
  H27      1.0000 0.60710  0.71220  0.06190  Biso   1.000  H
  H28      1.0000 0.39290  0.28780  0.93810  Biso   1.000  H
  C43      1.0000 0.49440  0.43930  0.13440  Biso   1.000  C
  C44      1.0000 0.50560  0.56070  0.86560  Biso   1.000  C
  H29      1.0000 0.58670  0.42670  0.11060  Biso   1.000  H
  H30      1.0000 0.41330  0.57330  0.88940  Biso   1.000  H
  H31      1.0000 0.41310  0.40710  0.10490  Biso   1.000  H
  H32      1.0000 0.58690  0.59290  0.89510  Biso   1.000  H
  H33      1.0000 0.50270  0.42370  0.19320  Biso   1.000  H
  H34      1.0000 0.49730  0.57630  0.80680  Biso   1.000  H
  C45      1.0000 0.21850  0.23930  0.09210  Biso   1.000  C
  C46      1.0000 0.78150  0.76070  0.90790  Biso   1.000  C
  C47      1.0000 0.12160  0.31530  0.10560  Biso   1.000  C
  C48      1.0000 0.87840  0.68470  0.89440  Biso   1.000  C
  C49      1.0000 0.02980  0.34970  0.04030  Biso   1.000  C
  C50      1.0000 0.97020  0.65030  0.95970  Biso   1.000  C
  H35      1.0000 0.03280  0.32860  0.98560  Biso   1.000  H
  H36      1.0000 0.96720  0.67140  0.01440  Biso   1.000  H
  C51      1.0000 0.93510  0.41420  0.05520  Biso   1.000  C
  C52      1.0000 0.06490  0.58580  0.94480  Biso   1.000  C
  H37      1.0000 0.87320  0.43660  0.01050  Biso   1.000  H
  H38      1.0000 0.12680  0.56340  0.98950  Biso   1.000  H
  C53      1.0000 0.92900  0.44680  0.13470  Biso   1.000  C
  C54      1.0000 0.07100  0.55320  0.86530  Biso   1.000  C
  H39      1.0000 0.86420  0.49140  0.14400  Biso   1.000  H
  H40      1.0000 0.13580  0.50860  0.85600  Biso   1.000  H
  C55      1.0000 0.01980  0.41290  0.20110  Biso   1.000  C
  C56      1.0000 0.98020  0.58710  0.79890  Biso   1.000  C
  C57      1.0000 0.11820  0.34820  0.18670  Biso   1.000  C
  C58      1.0000 0.88180  0.65180  0.81330  Biso   1.000  C
  H41      1.0000 0.18180  0.32660  0.23120  Biso   1.000  H
  H42      1.0000 0.81820  0.67340  0.76880  Biso   1.000  H
  C59      1.0000 0.09250  0.41690  0.34980  Biso   1.000  C
  C60      1.0000 0.90750  0.58310  0.65020  Biso   1.000  C
  H43      1.0000 0.19810  0.42990  0.34490  Biso   1.000  H
  H44      1.0000 0.80190  0.57010  0.65510  Biso   1.000  H
  H45      1.0000 0.07950  0.35490  0.35400  Biso   1.000  H
  H46      1.0000 0.92050  0.64510  0.64600  Biso   1.000  H
  C61      1.0000 0.04130  0.46050  0.42700  Biso   1.000  C
  C62      1.0000 0.95870  0.53950  0.57300  Biso   1.000  C
  C63      1.0000 0.10780  0.53830  0.45370  Biso   1.000  C
  C64      1.0000 0.89220  0.46170  0.54630  Biso   1.000  C
  C65      1.0000 0.21910  0.58210  0.40250  Biso   1.000  C
  C66      1.0000 0.78090  0.41790  0.59750  Biso   1.000  C
  H47      1.0000 0.18820  0.57510  0.34260  Biso   1.000  H
  H48      1.0000 0.81180  0.42490  0.65740  Biso   1.000  H
  H49      1.0000 0.22460  0.64320  0.41550  Biso   1.000  H
  H50      1.0000 0.77540  0.35680  0.58450  Biso   1.000  H
  C67      1.0000 0.47790  0.58160  0.38410  Biso   1.000  C
  C68      1.0000 0.52210  0.41840  0.61590  Biso   1.000  C
  C69      1.0000 0.58710  0.52660  0.36700  Biso   1.000  C
  C70      1.0000 0.41290  0.47340  0.63300  Biso   1.000  C
  H51      1.0000 0.57760  0.46810  0.37870  Biso   1.000  H
  H52      1.0000 0.42240  0.53190  0.62130  Biso   1.000  H
  C71      1.0000 0.71270  0.55830  0.33210  Biso   1.000  C
  C72      1.0000 0.28730  0.44170  0.66790  Biso   1.000  C
  H53      1.0000 0.78820  0.52070  0.32030  Biso   1.000  H
  H54      1.0000 0.21180  0.47930  0.67970  Biso   1.000  H
  C73      1.0000 0.72820  0.64350  0.31470  Biso   1.000  C
  C74      1.0000 0.27180  0.35650  0.68530  Biso   1.000  C
  H55      1.0000 0.81370  0.66410  0.29130  Biso   1.000  H
  H56      1.0000 0.18630  0.33590  0.70870  Biso   1.000  H
  C75      1.0000 0.61760  0.69820  0.33180  Biso   1.000  C
  C76      1.0000 0.38240  0.30180  0.66820  Biso   1.000  C
  C77      1.0000 0.49040  0.66690  0.36640  Biso   1.000  C
  C78      1.0000 0.50960  0.33310  0.63360  Biso   1.000  C
  H57      1.0000 0.41390  0.70410  0.37750  Biso   1.000  H
  H58      1.0000 0.58610  0.29590  0.62250  Biso   1.000  H
  C79      1.0000 0.63400  0.79110  0.31330  Biso   1.000  C
  C80      1.0000 0.36600  0.20890  0.68670  Biso   1.000  C
  C81      1.0000 0.93250  0.42290  0.47220  Biso   1.000  C
  C82      1.0000 0.06750  0.57710  0.52780  Biso   1.000  C
  C83      1.0000 0.84840  0.34210  0.44110  Biso   1.000  C
  C84      1.0000 0.15160  0.65790  0.55890  Biso   1.000  C
  H59      1.0000 0.74160  0.34810  0.44620  Biso   1.000  H
  H60      1.0000 0.25840  0.65190  0.55380  Biso   1.000  H
  H61      1.0000 0.86260  0.33210  0.38190  Biso   1.000  H
  H62      1.0000 0.13740  0.66790  0.61810  Biso   1.000  H
  C85      1.0000 0.82970  0.19540  0.47970  Biso   1.000  C
  C86      1.0000 0.17030  0.80460  0.52030  Biso   1.000  C
  C87      1.0000 0.87340  0.13330  0.53750  Biso   1.000  C
  C88      1.0000 0.12660  0.86670  0.46250  Biso   1.000  C
  H63      1.0000 0.94820  0.14530  0.58090  Biso   1.000  H
  H64      1.0000 0.05180  0.85470  0.41910  Biso   1.000  H
  C89      1.0000 0.80560  0.05300  0.53080  Biso   1.000  C
  C90      1.0000 0.19440  0.94700  0.46920  Biso   1.000  C
  H65      1.0000 0.83270  0.01140  0.57120  Biso   1.000  H
  H66      1.0000 0.16730  0.98860  0.42880  Biso   1.000  H
  C91      1.0000 0.69930  0.03350  0.46600  Biso   1.000  C
  C92      1.0000 0.30070  0.96650  0.53400  Biso   1.000  C
  H67      1.0000 0.65630  0.97850  0.46130  Biso   1.000  H
  H68      1.0000 0.34370  0.02150  0.53870  Biso   1.000  H
  C93      1.0000 0.65620  0.09580  0.40770  Biso   1.000  C
  C94      1.0000 0.34380  0.90420  0.59230  Biso   1.000  C
  C95      1.0000 0.72170  0.17720  0.41510  Biso   1.000  C
  C96      1.0000 0.27830  0.82280  0.58490  Biso   1.000  C
  H69      1.0000 0.69210  0.21960  0.37600  Biso   1.000  H
  H70      1.0000 0.30790  0.78040  0.62400  Biso   1.000  H
  C97      1.0000 0.54690  0.07490  0.33290  Biso   1.000  C
  C98      1.0000 0.45310  0.92510  0.66710  Biso   1.000  C
  N1       1.0000 0.17890  0.06380  0.21108  Biso   1.000  N
  N2       1.0000 0.82110  0.93620  0.78892  Biso   1.000  N
  N3       1.0000 0.38180  0.98170  0.14638  Biso   1.000  N
  N4       1.0000 0.61820  0.01830  0.85362  Biso   1.000  N
  N5       1.0000 0.56840  0.09800  0.11334  Biso   1.000  N
  N6       1.0000 0.43160  0.90200  0.88666  Biso   1.000  N
  O1       1.0000 0.31480  0.22176  0.15306  Biso   1.000  O
  O2       1.0000 0.68520  0.77824  0.84694  Biso   1.000  O
  O3       1.0000 0.19920  0.19830  0.02587  Biso   1.000  O
  O4       1.0000 0.80080  0.80170  0.97413  Biso   1.000  O
  O5       1.0000 0.00360  0.44837  0.27855  Biso   1.000  O
  O6       1.0000 0.99640  0.55163  0.72145  Biso   1.000  O
  O7       1.0000 0.35920  0.54530  0.42200  Biso   1.000  O
  O8       1.0000 0.64080  0.45470  0.57800  Biso   1.000  O
  O9       1.0000 0.73460  0.81950  0.27470  Biso   1.000  O
  O10      1.0000 0.26540  0.18050  0.72530  Biso   1.000  O
  O11      1.0000 0.90470  0.27242  0.49055  Biso   1.000  O
  O12      1.0000 0.09530  0.72758  0.50945  Biso   1.000  O
  O13      1.0000 0.49480  0.13559  0.28894  Biso   1.000  O
  O14      1.0000 0.50520  0.86441  0.71106  Biso   1.000  O
  O15      1.0000 0.51790  0.99880  0.31630  Biso   1.000  O
  O16      1.0000 0.48210  0.00120  0.68370  Biso   1.000  O
  O17      1.0000 0.53030  0.83730  0.34380  Biso   1.000  O
  O18      1.0000 0.46970  0.16270  0.65620  Biso   1.000  O
  H71      1.0000 0.54800  0.89700  0.33400  Biso   1.000  H
  H72      1.0000 0.45200  0.10300  0.66600  Biso   1.000  H
  C99      1.0000 0.25840  0.19920  0.44830  Biso   1.000  C
  C100     1.0000 0.74160  0.80080  0.55170  Biso   1.000  C
  H73      1.0000 0.25290  0.19140  0.50790  Biso   1.000  H
  H74      1.0000 0.74710  0.80860  0.49210  Biso   1.000  H
  H75      1.0000 0.29630  0.14790  0.42450  Biso   1.000  H
  H76      1.0000 0.70370  0.85210  0.57550  Biso   1.000  H
  H77      1.0000 0.15980  0.21050  0.42160  Biso   1.000  H
  H78      1.0000 0.84020  0.78950  0.57840  Biso   1.000  H
  C101     1.0000 0.36090  0.27310  0.43410  Biso   1.000  C
  C102     1.0000 0.63910  0.72690  0.56590  Biso   1.000  C
  H79      1.0000 0.32390  0.32400  0.46030  Biso   1.000  H
  H80      1.0000 0.67610  0.67600  0.53970  Biso   1.000  H
  H81      1.0000 0.45990  0.26130  0.46180  Biso   1.000  H
  H82      1.0000 0.54010  0.73870  0.53820  Biso   1.000  H
  O19      1.0000 0.37470  0.29030  0.34820  Biso   1.000  O
  O20      1.0000 0.62530  0.70970  0.65180  Biso   1.000  O
  H83      1.0000 0.43540  0.25730  0.33030  Biso   1.000  H
  H84      1.0000 0.56460  0.74270  0.66970  Biso   1.000  H
  O21      1.0000 0.07750  0.23890  0.85520  Biso   1.000  O
  O22      1.0000 0.92250  0.76110  0.14480  Biso   1.000  O
  H85      1.0000 0.13000  0.23800  0.90750  Biso   1.000  H
  H86      1.0000 0.87000  0.76200  0.09250  Biso   1.000  H
  H87      1.0000 0.14700  0.22600  0.81900  Biso   1.000  H
  H88      1.0000 0.85300  0.77400  0.18100  Biso   1.000  H
