data_image0
_cell_length_a       28.398
_cell_length_b       7.5865
_cell_length_c       18.517
_cell_angle_alpha    90
_cell_angle_beta     130.69
_cell_angle_gamma    90

_symmetry_space_group_name_H-M    "P 1"
_symmetry_int_tables_number       1

loop_
  _symmetry_equiv_pos_as_xyz
  'x, y, z'

loop_
  _atom_site_label
  _atom_site_occupancy
  _atom_site_fract_x
  _atom_site_fract_y
  _atom_site_fract_z
  _atom_site_thermal_displace_type
  _atom_site_B_iso_or_equiv
  _atom_site_type_symbol
  Cu1      1.0000 0.00000  0.48037  0.75000  Biso   1.000  Cu
  Cu2      1.0000 0.50000  0.98037  0.75000  Biso   1.000  Cu
  Cu3      1.0000 0.00000  0.51963  0.25000  Biso   1.000  Cu
  Cu4      1.0000 0.50000  0.01963  0.25000  Biso   1.000  Cu
  Se1      1.0000 0.15222  0.73993  0.14892  Biso   1.000  Se
  Se2      1.0000 0.84778  0.73993  0.35108  Biso   1.000  Se
  Se3      1.0000 0.65222  0.23993  0.14892  Biso   1.000  Se
  Se4      1.0000 0.34778  0.23993  0.35108  Biso   1.000  Se
  Se5      1.0000 0.84778  0.26007  0.85108  Biso   1.000  Se
  Se6      1.0000 0.15222  0.26007  0.64892  Biso   1.000  Se
  Se7      1.0000 0.34778  0.76007  0.85108  Biso   1.000  Se
  Se8      1.0000 0.65222  0.76007  0.64892  Biso   1.000  Se
  N1       1.0000 0.06550  0.51770  0.88910  Biso   1.000  N
  N2       1.0000 0.93450  0.51770  0.61090  Biso   1.000  N
  N3       1.0000 0.56550  0.01770  0.88910  Biso   1.000  N
  N4       1.0000 0.43450  0.01770  0.61090  Biso   1.000  N
  N5       1.0000 0.93450  0.48230  0.11090  Biso   1.000  N
  N6       1.0000 0.06550  0.48230  0.38910  Biso   1.000  N
  N7       1.0000 0.43450  0.98230  0.11090  Biso   1.000  N
  N8       1.0000 0.56550  0.98230  0.38910  Biso   1.000  N
  N9       1.0000 0.11670  0.41660  0.94540  Biso   1.000  N
  N10      1.0000 0.88330  0.41660  0.55460  Biso   1.000  N
  N11      1.0000 0.61670  0.91660  0.94540  Biso   1.000  N
  N12      1.0000 0.38330  0.91660  0.55460  Biso   1.000  N
  N13      1.0000 0.88330  0.58340  0.05460  Biso   1.000  N
  N14      1.0000 0.11670  0.58340  0.44540  Biso   1.000  N
  N15      1.0000 0.38330  0.08340  0.05460  Biso   1.000  N
  N16      1.0000 0.61670  0.08340  0.44540  Biso   1.000  N
  H1       1.0000 0.12570  0.33010  0.92450  Biso   1.000  H
  H2       1.0000 0.87430  0.33010  0.57550  Biso   1.000  H
  H3       1.0000 0.62570  0.83010  0.92450  Biso   1.000  H
  H4       1.0000 0.37430  0.83010  0.57550  Biso   1.000  H
  H5       1.0000 0.87430  0.66990  0.07550  Biso   1.000  H
  H6       1.0000 0.12570  0.66990  0.42450  Biso   1.000  H
  H7       1.0000 0.37430  0.16990  0.07550  Biso   1.000  H
  H8       1.0000 0.62570  0.16990  0.42450  Biso   1.000  H
  N17      1.0000 0.06370  0.54500  0.23840  Biso   1.000  N
  N18      1.0000 0.93630  0.54500  0.26160  Biso   1.000  N
  N19      1.0000 0.56370  0.04500  0.23840  Biso   1.000  N
  N20      1.0000 0.43630  0.04500  0.26160  Biso   1.000  N
  N21      1.0000 0.93630  0.45500  0.76160  Biso   1.000  N
  N22      1.0000 0.06370  0.45500  0.73840  Biso   1.000  N
  N23      1.0000 0.43630  0.95500  0.76160  Biso   1.000  N
  N24      1.0000 0.56370  0.95500  0.73840  Biso   1.000  N
  N25      1.0000 0.11830  0.45110  0.29310  Biso   1.000  N
  N26      1.0000 0.88170  0.45110  0.20690  Biso   1.000  N
  N27      1.0000 0.61830  0.95110  0.29310  Biso   1.000  N
  N28      1.0000 0.38170  0.95110  0.20690  Biso   1.000  N
  N29      1.0000 0.88170  0.54890  0.70690  Biso   1.000  N
  N30      1.0000 0.11830  0.54890  0.79310  Biso   1.000  N
  N31      1.0000 0.38170  0.04890  0.70690  Biso   1.000  N
  N32      1.0000 0.61830  0.04890  0.79310  Biso   1.000  N
  H9       1.0000 0.12840  0.37390  0.33670  Biso   1.000  H
  H10      1.0000 0.87160  0.37390  0.16330  Biso   1.000  H
  H11      1.0000 0.62840  0.87390  0.33670  Biso   1.000  H
  H12      1.0000 0.37160  0.87390  0.16330  Biso   1.000  H
  H13      1.0000 0.87160  0.62610  0.66330  Biso   1.000  H
  H14      1.0000 0.12840  0.62610  0.83670  Biso   1.000  H
  H15      1.0000 0.37160  0.12610  0.66330  Biso   1.000  H
  H16      1.0000 0.62840  0.12610  0.83670  Biso   1.000  H
  C1       1.0000 0.01900  0.77070  0.90770  Biso   1.000  C
  C2       1.0000 0.98100  0.77070  0.59230  Biso   1.000  C
  C3       1.0000 0.51900  0.27070  0.90770  Biso   1.000  C
  C4       1.0000 0.48100  0.27070  0.59230  Biso   1.000  C
  C5       1.0000 0.98100  0.22930  0.09230  Biso   1.000  C
  C6       1.0000 0.01900  0.22930  0.40770  Biso   1.000  C
  C7       1.0000 0.48100  0.72930  0.09230  Biso   1.000  C
  C8       1.0000 0.51900  0.72930  0.40770  Biso   1.000  C
  H17      1.0000 0.00360  0.80980  0.84520  Biso   1.000  H
  H18      1.0000 0.99640  0.80980  0.65480  Biso   1.000  H
  H19      1.0000 0.50360  0.30980  0.84520  Biso   1.000  H
  H20      1.0000 0.49640  0.30980  0.65480  Biso   1.000  H
  H21      1.0000 0.99640  0.19020  0.15480  Biso   1.000  H
  H22      1.0000 0.00360  0.19020  0.34520  Biso   1.000  H
  H23      1.0000 0.49640  0.69020  0.15480  Biso   1.000  H
  H24      1.0000 0.50360  0.69020  0.34520  Biso   1.000  H
  H25      1.0000 0.03670  0.87130  0.95140  Biso   1.000  H
  H26      1.0000 0.96330  0.87130  0.54860  Biso   1.000  H
  H27      1.0000 0.53670  0.37130  0.95140  Biso   1.000  H
  H28      1.0000 0.46330  0.37130  0.54860  Biso   1.000  H
  H29      1.0000 0.96330  0.12870  0.04860  Biso   1.000  H
  H30      1.0000 0.03670  0.12870  0.45140  Biso   1.000  H
  H31      1.0000 0.46330  0.62870  0.04860  Biso   1.000  H
  H32      1.0000 0.53670  0.62870  0.45140  Biso   1.000  H
  H33      1.0000 0.98450  0.72110  0.90130  Biso   1.000  H
  H34      1.0000 0.01550  0.72110  0.59870  Biso   1.000  H
  H35      1.0000 0.48450  0.22110  0.90130  Biso   1.000  H
  H36      1.0000 0.51550  0.22110  0.59870  Biso   1.000  H
  H37      1.0000 0.01550  0.27890  0.09870  Biso   1.000  H
  H38      1.0000 0.98450  0.27890  0.40130  Biso   1.000  H
  H39      1.0000 0.51550  0.77890  0.09870  Biso   1.000  H
  H40      1.0000 0.48450  0.77890  0.40130  Biso   1.000  H
  C9       1.0000 0.06790  0.63300  0.94620  Biso   1.000  C
  C10      1.0000 0.93210  0.63300  0.55380  Biso   1.000  C
  C11      1.0000 0.56790  0.13300  0.94620  Biso   1.000  C
  C12      1.0000 0.43210  0.13300  0.55380  Biso   1.000  C
  C13      1.0000 0.93210  0.36700  0.05380  Biso   1.000  C
  C14      1.0000 0.06790  0.36700  0.44620  Biso   1.000  C
  C15      1.0000 0.43210  0.86700  0.05380  Biso   1.000  C
  C16      1.0000 0.56790  0.86700  0.44620  Biso   1.000  C
  C17      1.0000 0.12160  0.60220  0.04020  Biso   1.000  C
  C18      1.0000 0.87840  0.60220  0.45980  Biso   1.000  C
  C19      1.0000 0.62160  0.10220  0.04020  Biso   1.000  C
  C20      1.0000 0.37840  0.10220  0.45980  Biso   1.000  C
  C21      1.0000 0.87840  0.39780  0.95980  Biso   1.000  C
  C22      1.0000 0.12160  0.39780  0.54020  Biso   1.000  C
  C23      1.0000 0.37840  0.89780  0.95980  Biso   1.000  C
  C24      1.0000 0.62160  0.89780  0.54020  Biso   1.000  C
  C25      1.0000 0.15260  0.46430  0.03770  Biso   1.000  C
  C26      1.0000 0.84740  0.46430  0.46230  Biso   1.000  C
  C27      1.0000 0.65260  0.96430  0.03770  Biso   1.000  C
  C28      1.0000 0.34740  0.96430  0.46230  Biso   1.000  C
  C29      1.0000 0.84740  0.53570  0.96230  Biso   1.000  C
  C30      1.0000 0.15260  0.53570  0.53770  Biso   1.000  C
  C31      1.0000 0.34740  0.03570  0.96230  Biso   1.000  C
  C32      1.0000 0.65260  0.03570  0.53770  Biso   1.000  C
  C33      1.0000 0.21280  0.37410  0.11410  Biso   1.000  C
  C34      1.0000 0.78720  0.37410  0.38590  Biso   1.000  C
  C35      1.0000 0.71280  0.87410  0.11410  Biso   1.000  C
  C36      1.0000 0.28720  0.87410  0.38590  Biso   1.000  C
  C37      1.0000 0.78720  0.62590  0.88590  Biso   1.000  C
  C38      1.0000 0.21280  0.62590  0.61410  Biso   1.000  C
  C39      1.0000 0.28720  0.12590  0.88590  Biso   1.000  C
  C40      1.0000 0.71280  0.12590  0.61410  Biso   1.000  C
  H41      1.0000 0.20570  0.27920  0.14200  Biso   1.000  H
  H42      1.0000 0.79430  0.27920  0.35800  Biso   1.000  H
  H43      1.0000 0.70570  0.77920  0.14200  Biso   1.000  H
  H44      1.0000 0.29430  0.77920  0.35800  Biso   1.000  H
  H45      1.0000 0.79430  0.72080  0.85800  Biso   1.000  H
  H46      1.0000 0.20570  0.72080  0.64200  Biso   1.000  H
  H47      1.0000 0.29430  0.22080  0.85800  Biso   1.000  H
  H48      1.0000 0.70570  0.22080  0.64200  Biso   1.000  H
  H49      1.0000 0.24220  0.45950  0.16370  Biso   1.000  H
  H50      1.0000 0.75780  0.45950  0.33630  Biso   1.000  H
  H51      1.0000 0.74220  0.95950  0.16370  Biso   1.000  H
  H52      1.0000 0.25780  0.95950  0.33630  Biso   1.000  H
  H53      1.0000 0.75780  0.54050  0.83630  Biso   1.000  H
  H54      1.0000 0.24220  0.54050  0.66370  Biso   1.000  H
  H55      1.0000 0.25780  0.04050  0.83630  Biso   1.000  H
  H56      1.0000 0.74220  0.04050  0.66370  Biso   1.000  H
  H57      1.0000 0.23000  0.32450  0.08670  Biso   1.000  H
  H58      1.0000 0.77000  0.32450  0.41330  Biso   1.000  H
  H59      1.0000 0.73000  0.82450  0.08670  Biso   1.000  H
  H60      1.0000 0.27000  0.82450  0.41330  Biso   1.000  H
  H61      1.0000 0.77000  0.67550  0.91330  Biso   1.000  H
  H62      1.0000 0.23000  0.67550  0.58670  Biso   1.000  H
  H63      1.0000 0.27000  0.17550  0.91330  Biso   1.000  H
  H64      1.0000 0.73000  0.17550  0.58670  Biso   1.000  H
  C41      1.0000 0.01550  0.77050  0.11100  Biso   1.000  C
  C42      1.0000 0.98450  0.77050  0.38900  Biso   1.000  C
  C43      1.0000 0.51550  0.27050  0.11100  Biso   1.000  C
  C44      1.0000 0.48450  0.27050  0.38900  Biso   1.000  C
  C45      1.0000 0.98450  0.22950  0.88900  Biso   1.000  C
  C46      1.0000 0.01550  0.22950  0.61100  Biso   1.000  C
  C47      1.0000 0.48450  0.72950  0.88900  Biso   1.000  C
  C48      1.0000 0.51550  0.72950  0.61100  Biso   1.000  C
  H65      1.0000 0.98400  0.70910  0.05080  Biso   1.000  H
  H66      1.0000 0.01600  0.70910  0.44920  Biso   1.000  H
  H67      1.0000 0.48400  0.20910  0.05080  Biso   1.000  H
  H68      1.0000 0.51600  0.20910  0.44920  Biso   1.000  H
  H69      1.0000 0.01600  0.29090  0.94920  Biso   1.000  H
  H70      1.0000 0.98400  0.29090  0.55080  Biso   1.000  H
  H71      1.0000 0.51600  0.79090  0.94920  Biso   1.000  H
  H72      1.0000 0.48400  0.79090  0.55080  Biso   1.000  H
  H73      1.0000 0.03280  0.86800  0.10000  Biso   1.000  H
  H74      1.0000 0.96720  0.86800  0.40000  Biso   1.000  H
  H75      1.0000 0.53280  0.36800  0.10000  Biso   1.000  H
  H76      1.0000 0.46720  0.36800  0.40000  Biso   1.000  H
  H77      1.0000 0.96720  0.13200  0.90000  Biso   1.000  H
  H78      1.0000 0.03280  0.13200  0.60000  Biso   1.000  H
  H79      1.0000 0.46720  0.63200  0.90000  Biso   1.000  H
  H80      1.0000 0.53280  0.63200  0.60000  Biso   1.000  H
  H81      1.0000 0.99650  0.81680  0.13620  Biso   1.000  H
  H82      1.0000 0.00350  0.81680  0.36380  Biso   1.000  H
  H83      1.0000 0.49650  0.31680  0.13620  Biso   1.000  H
  H84      1.0000 0.50350  0.31680  0.36380  Biso   1.000  H
  H85      1.0000 0.00350  0.18320  0.86380  Biso   1.000  H
  H86      1.0000 0.99650  0.18320  0.63620  Biso   1.000  H
  H87      1.0000 0.50350  0.68320  0.86380  Biso   1.000  H
  H88      1.0000 0.49650  0.68320  0.63620  Biso   1.000  H
  C49      1.0000 0.06570  0.64600  0.18040  Biso   1.000  C
  C50      1.0000 0.93430  0.64600  0.31960  Biso   1.000  C
  C51      1.0000 0.56570  0.14600  0.18040  Biso   1.000  C
  C52      1.0000 0.43430  0.14600  0.31960  Biso   1.000  C
  C53      1.0000 0.93430  0.35400  0.81960  Biso   1.000  C
  C54      1.0000 0.06570  0.35400  0.68040  Biso   1.000  C
  C55      1.0000 0.43430  0.85400  0.81960  Biso   1.000  C
  C56      1.0000 0.56570  0.85400  0.68040  Biso   1.000  C
  C57      1.0000 0.12180  0.61350  0.19930  Biso   1.000  C
  C58      1.0000 0.87820  0.61350  0.30070  Biso   1.000  C
  C59      1.0000 0.62180  0.11350  0.19930  Biso   1.000  C
  C60      1.0000 0.37820  0.11350  0.30070  Biso   1.000  C
  C61      1.0000 0.87820  0.38650  0.80070  Biso   1.000  C
  C62      1.0000 0.12180  0.38650  0.69930  Biso   1.000  C
  C63      1.0000 0.37820  0.88650  0.80070  Biso   1.000  C
  C64      1.0000 0.62180  0.88650  0.69930  Biso   1.000  C
  C65      1.0000 0.15390  0.49070  0.27230  Biso   1.000  C
  C66      1.0000 0.84610  0.49070  0.22770  Biso   1.000  C
  C67      1.0000 0.65390  0.99070  0.27230  Biso   1.000  C
  C68      1.0000 0.34610  0.99070  0.22770  Biso   1.000  C
  C69      1.0000 0.84610  0.50930  0.72770  Biso   1.000  C
  C70      1.0000 0.15390  0.50930  0.77230  Biso   1.000  C
  C71      1.0000 0.34610  0.00930  0.72770  Biso   1.000  C
  C72      1.0000 0.65390  0.00930  0.77230  Biso   1.000  C
  C73      1.0000 0.21620  0.40490  0.32470  Biso   1.000  C
  C74      1.0000 0.78380  0.40490  0.17530  Biso   1.000  C
  C75      1.0000 0.71620  0.90490  0.32470  Biso   1.000  C
  C76      1.0000 0.28380  0.90490  0.17530  Biso   1.000  C
  C77      1.0000 0.78380  0.59510  0.67530  Biso   1.000  C
  C78      1.0000 0.21620  0.59510  0.82470  Biso   1.000  C
  C79      1.0000 0.28380  0.09510  0.67530  Biso   1.000  C
  C80      1.0000 0.71620  0.09510  0.82470  Biso   1.000  C
  H89      1.0000 0.21050  0.27920  0.30880  Biso   1.000  H
  H90      1.0000 0.78950  0.27920  0.19120  Biso   1.000  H
  H91      1.0000 0.71050  0.77920  0.30880  Biso   1.000  H
  H92      1.0000 0.28950  0.77920  0.19120  Biso   1.000  H
  H93      1.0000 0.78950  0.72080  0.69120  Biso   1.000  H
  H94      1.0000 0.21050  0.72080  0.80880  Biso   1.000  H
  H95      1.0000 0.28950  0.22080  0.69120  Biso   1.000  H
  H96      1.0000 0.71050  0.22080  0.80880  Biso   1.000  H
  H97      1.0000 0.24070  0.41880  0.39350  Biso   1.000  H
  H98      1.0000 0.75930  0.41880  0.10650  Biso   1.000  H
  H99      1.0000 0.74070  0.91880  0.39350  Biso   1.000  H
  H100     1.0000 0.25930  0.91880  0.10650  Biso   1.000  H
  H101     1.0000 0.75930  0.58120  0.60650  Biso   1.000  H
  H102     1.0000 0.24070  0.58120  0.89350  Biso   1.000  H
  H103     1.0000 0.25930  0.08120  0.60650  Biso   1.000  H
  H104     1.0000 0.74070  0.08120  0.89350  Biso   1.000  H
  H105     1.0000 0.23800  0.46080  0.30610  Biso   1.000  H
  H106     1.0000 0.76200  0.46080  0.19390  Biso   1.000  H
  H107     1.0000 0.73800  0.96080  0.30610  Biso   1.000  H
  H108     1.0000 0.26200  0.96080  0.19390  Biso   1.000  H
  H109     1.0000 0.76200  0.53920  0.69390  Biso   1.000  H
  H110     1.0000 0.23800  0.53920  0.80610  Biso   1.000  H
  H111     1.0000 0.26200  0.03920  0.69390  Biso   1.000  H
  H112     1.0000 0.73800  0.03920  0.80610  Biso   1.000  H
  Cl1      1.0000 0.13436  0.99852  0.36166  Biso   1.000  Cl
  Cl2      1.0000 0.86564  0.99852  0.13834  Biso   1.000  Cl
  Cl3      1.0000 0.63436  0.49852  0.36166  Biso   1.000  Cl
  Cl4      1.0000 0.36564  0.49852  0.13834  Biso   1.000  Cl
  Cl5      1.0000 0.86564  0.00148  0.63834  Biso   1.000  Cl
  Cl6      1.0000 0.13436  0.00148  0.86166  Biso   1.000  Cl
  Cl7      1.0000 0.36564  0.50148  0.63834  Biso   1.000  Cl
  Cl8      1.0000 0.63436  0.50148  0.86166  Biso   1.000  Cl
  O1       1.0000 0.13400  0.02800  0.28440  Biso   1.000  O
  O2       1.0000 0.86600  0.02800  0.21560  Biso   1.000  O
  O3       1.0000 0.63400  0.52800  0.28440  Biso   1.000  O
  O4       1.0000 0.36600  0.52800  0.21560  Biso   1.000  O
  O5       1.0000 0.86600  0.97200  0.71560  Biso   1.000  O
  O6       1.0000 0.13400  0.97200  0.78440  Biso   1.000  O
  O7       1.0000 0.36600  0.47200  0.71560  Biso   1.000  O
  O8       1.0000 0.63400  0.47200  0.78440  Biso   1.000  O
  O9       1.0000 0.15370  0.15620  0.41730  Biso   1.000  O
  O10      1.0000 0.84630  0.15620  0.08270  Biso   1.000  O
  O11      1.0000 0.65370  0.65620  0.41730  Biso   1.000  O
  O12      1.0000 0.34630  0.65620  0.08270  Biso   1.000  O
  O13      1.0000 0.84630  0.84380  0.58270  Biso   1.000  O
  O14      1.0000 0.15370  0.84380  0.91730  Biso   1.000  O
  O15      1.0000 0.34630  0.34380  0.58270  Biso   1.000  O
  O16      1.0000 0.65370  0.34380  0.91730  Biso   1.000  O
  O17      1.0000 0.17530  0.85770  0.41770  Biso   1.000  O
  O18      1.0000 0.82470  0.85770  0.08230  Biso   1.000  O
  O19      1.0000 0.67530  0.35770  0.41770  Biso   1.000  O
  O20      1.0000 0.32470  0.35770  0.08230  Biso   1.000  O
  O21      1.0000 0.82470  0.14230  0.58230  Biso   1.000  O
  O22      1.0000 0.17530  0.14230  0.91770  Biso   1.000  O
  O23      1.0000 0.32470  0.64230  0.58230  Biso   1.000  O
  O24      1.0000 0.67530  0.64230  0.91770  Biso   1.000  O
  O25      1.0000 0.07320  0.94680  0.32480  Biso   1.000  O
  O26      1.0000 0.92680  0.94680  0.17520  Biso   1.000  O
  O27      1.0000 0.57320  0.44680  0.32480  Biso   1.000  O
  O28      1.0000 0.42680  0.44680  0.17520  Biso   1.000  O
  O29      1.0000 0.92680  0.05320  0.67520  Biso   1.000  O
  O30      1.0000 0.07320  0.05320  0.82480  Biso   1.000  O
  O31      1.0000 0.42680  0.55320  0.67520  Biso   1.000  O
  O32      1.0000 0.57320  0.55320  0.82480  Biso   1.000  O
