data_image0
_cell_length_a       27.981
_cell_length_b       15.523
_cell_length_c       8.9366
_cell_angle_alpha    90
_cell_angle_beta     90
_cell_angle_gamma    90

_symmetry_space_group_name_H-M    "P 1"
_symmetry_int_tables_number       1

loop_
  _symmetry_equiv_pos_as_xyz
  'x, y, z'

loop_
  _atom_site_label
  _atom_site_occupancy
  _atom_site_fract_x
  _atom_site_fract_y
  _atom_site_fract_z
  _atom_site_thermal_displace_type
  _atom_site_B_iso_or_equiv
  _atom_site_type_symbol
  Cu1      1.0000 0.75814  0.02168  0.54823  Biso   1.000  Cu
  Cu2      1.0000 0.24186  0.97832  0.04823  Biso   1.000  Cu
  Cu3      1.0000 0.25814  0.47832  0.54823  Biso   1.000  Cu
  Cu4      1.0000 0.74186  0.52168  0.04823  Biso   1.000  Cu
  Cu5      1.0000 0.73440  0.16328  0.39826  Biso   1.000  Cu
  Cu6      1.0000 0.26560  0.83672  0.89826  Biso   1.000  Cu
  Cu7      1.0000 0.23440  0.33672  0.39826  Biso   1.000  Cu
  Cu8      1.0000 0.76560  0.66328  0.89826  Biso   1.000  Cu
  O1       1.0000 0.74001  0.08810  0.22100  Biso   1.000  O
  O2       1.0000 0.25999  0.91190  0.72100  Biso   1.000  O
  O3       1.0000 0.24001  0.41190  0.22100  Biso   1.000  O
  O4       1.0000 0.75999  0.58810  0.72100  Biso   1.000  O
  O5       1.0000 0.75158  0.96710  0.35150  Biso   1.000  O
  O6       1.0000 0.24842  0.03290  0.85150  Biso   1.000  O
  O7       1.0000 0.25158  0.53290  0.35150  Biso   1.000  O
  O8       1.0000 0.74842  0.46710  0.85150  Biso   1.000  O
  O9       1.0000 0.80253  0.19232  0.38590  Biso   1.000  O
  O10      1.0000 0.19747  0.80768  0.88590  Biso   1.000  O
  O11      1.0000 0.30253  0.30768  0.38590  Biso   1.000  O
  O12      1.0000 0.69747  0.69232  0.88590  Biso   1.000  O
  O13      1.0000 0.82089  0.06810  0.49410  Biso   1.000  O
  O14      1.0000 0.17911  0.93190  0.99410  Biso   1.000  O
  O15      1.0000 0.32089  0.43190  0.49410  Biso   1.000  O
  O16      1.0000 0.67911  0.56810  0.99410  Biso   1.000  O
  O17      1.0000 0.68963  0.99960  0.57740  Biso   1.000  O
  O18      1.0000 0.31037  0.00040  0.07740  Biso   1.000  O
  O19      1.0000 0.18963  0.50040  0.57740  Biso   1.000  O
  O20      1.0000 0.81037  0.49960  0.07740  Biso   1.000  O
  O21      1.0000 0.67146  0.11320  0.43410  Biso   1.000  O
  O22      1.0000 0.32854  0.88680  0.93410  Biso   1.000  O
  O23      1.0000 0.17146  0.38680  0.43410  Biso   1.000  O
  O24      1.0000 0.82854  0.61320  0.93410  Biso   1.000  O
  O25      1.0000 0.58301  0.85180  0.31810  Biso   1.000  O
  O26      1.0000 0.41699  0.14820  0.81810  Biso   1.000  O
  O27      1.0000 0.08301  0.64820  0.31810  Biso   1.000  O
  O28      1.0000 0.91699  0.35180  0.81810  Biso   1.000  O
  O29      1.0000 0.89844  0.13560  0.98990  Biso   1.000  O
  O30      1.0000 0.10156  0.86440  0.48990  Biso   1.000  O
  O31      1.0000 0.39844  0.36440  0.98990  Biso   1.000  O
  O32      1.0000 0.60156  0.63560  0.48990  Biso   1.000  O
  O33      1.0000 0.49103  0.14480  0.19040  Biso   1.000  O
  O34      1.0000 0.50897  0.85520  0.69040  Biso   1.000  O
  O35      1.0000 0.99103  0.35520  0.19040  Biso   1.000  O
  O36      1.0000 0.00897  0.64480  0.69040  Biso   1.000  O
  O37      1.0000 0.75538  0.09660  0.72660  Biso   1.000  O
  O38      1.0000 0.24462  0.90340  0.22660  Biso   1.000  O
  O39      1.0000 0.25538  0.40340  0.72660  Biso   1.000  O
  O40      1.0000 0.74462  0.59660  0.22660  Biso   1.000  O
  O41      1.0000 0.59017  0.40630  0.78500  Biso   1.000  O
  O42      1.0000 0.40983  0.59370  0.28500  Biso   1.000  O
  O43      1.0000 0.09017  0.09370  0.78500  Biso   1.000  O
  O44      1.0000 0.90983  0.90630  0.28500  Biso   1.000  O
  O45      1.0000 0.73159  0.21400  0.60100  Biso   1.000  O
  O46      1.0000 0.26841  0.78600  0.10100  Biso   1.000  O
  O47      1.0000 0.23159  0.28600  0.60100  Biso   1.000  O
  O48      1.0000 0.76841  0.71400  0.10100  Biso   1.000  O
  N1       1.0000 0.70721  0.41590  0.16980  Biso   1.000  N
  N2       1.0000 0.29279  0.58410  0.66980  Biso   1.000  N
  N3       1.0000 0.20721  0.08410  0.16980  Biso   1.000  N
  N4       1.0000 0.79279  0.91590  0.66980  Biso   1.000  N
  N5       1.0000 0.70535  0.28120  0.29800  Biso   1.000  N
  N6       1.0000 0.29465  0.71880  0.79800  Biso   1.000  N
  N7       1.0000 0.20535  0.21880  0.29800  Biso   1.000  N
  N8       1.0000 0.79465  0.78120  0.79800  Biso   1.000  N
  N9       1.0000 0.77501  0.33320  0.19700  Biso   1.000  N
  N10      1.0000 0.22499  0.66680  0.69700  Biso   1.000  N
  N11      1.0000 0.27501  0.16680  0.19700  Biso   1.000  N
  N12      1.0000 0.72499  0.83320  0.69700  Biso   1.000  N
  H1       1.0000 0.78920  0.28780  0.22940  Biso   1.000  H
  H2       1.0000 0.21080  0.71220  0.72940  Biso   1.000  H
  H3       1.0000 0.28920  0.21220  0.22940  Biso   1.000  H
  H4       1.0000 0.71080  0.78780  0.72940  Biso   1.000  H
  H5       1.0000 0.79080  0.37160  0.14830  Biso   1.000  H
  H6       1.0000 0.20920  0.62840  0.64830  Biso   1.000  H
  H7       1.0000 0.29080  0.12840  0.14830  Biso   1.000  H
  H8       1.0000 0.70920  0.87160  0.64830  Biso   1.000  H
  C1       1.0000 0.74295  0.00690  0.23230  Biso   1.000  C
  C2       1.0000 0.25705  0.99310  0.73230  Biso   1.000  C
  C3       1.0000 0.24295  0.49310  0.23230  Biso   1.000  C
  C4       1.0000 0.75705  0.50690  0.73230  Biso   1.000  C
  C5       1.0000 0.73150  0.95420  0.09460  Biso   1.000  C
  C6       1.0000 0.26850  0.04580  0.59460  Biso   1.000  C
  C7       1.0000 0.23150  0.54580  0.09460  Biso   1.000  C
  C8       1.0000 0.76850  0.45420  0.59460  Biso   1.000  C
  H9       1.0000 0.74150  0.98570  0.00610  Biso   1.000  H
  H10      1.0000 0.25850  0.01430  0.50610  Biso   1.000  H
  H11      1.0000 0.24150  0.51430  0.00610  Biso   1.000  H
  H12      1.0000 0.75850  0.48570  0.50610  Biso   1.000  H
  H13      1.0000 0.74930  0.90060  0.09790  Biso   1.000  H
  H14      1.0000 0.25070  0.09940  0.59790  Biso   1.000  H
  H15      1.0000 0.24930  0.59940  0.09790  Biso   1.000  H
  H16      1.0000 0.75070  0.40060  0.59790  Biso   1.000  H
  C9       1.0000 0.67875  0.93470  0.08340  Biso   1.000  C
  C10      1.0000 0.32125  0.06530  0.58340  Biso   1.000  C
  C11      1.0000 0.17875  0.56530  0.08340  Biso   1.000  C
  C12      1.0000 0.82125  0.43470  0.58340  Biso   1.000  C
  C13      1.0000 0.65310  0.90120  0.20320  Biso   1.000  C
  C14      1.0000 0.34690  0.09880  0.70320  Biso   1.000  C
  C15      1.0000 0.15310  0.59880  0.20320  Biso   1.000  C
  C16      1.0000 0.84690  0.40120  0.70320  Biso   1.000  C
  H17      1.0000 0.66850  0.89090  0.29370  Biso   1.000  H
  H18      1.0000 0.33150  0.10910  0.79370  Biso   1.000  H
  H19      1.0000 0.16850  0.60910  0.29370  Biso   1.000  H
  H20      1.0000 0.83150  0.39090  0.79370  Biso   1.000  H
  C17      1.0000 0.60520  0.88310  0.18930  Biso   1.000  C
  C18      1.0000 0.39480  0.11690  0.68930  Biso   1.000  C
  C19      1.0000 0.10520  0.61690  0.18930  Biso   1.000  C
  C20      1.0000 0.89480  0.38310  0.68930  Biso   1.000  C
  C21      1.0000 0.58170  0.89560  0.05760  Biso   1.000  C
  C22      1.0000 0.41830  0.10440  0.55760  Biso   1.000  C
  C23      1.0000 0.08170  0.60440  0.05760  Biso   1.000  C
  C24      1.0000 0.91830  0.39560  0.55760  Biso   1.000  C
  H21      1.0000 0.54930  0.88270  0.04800  Biso   1.000  H
  H22      1.0000 0.45070  0.11730  0.54800  Biso   1.000  H
  H23      1.0000 0.04930  0.61730  0.04800  Biso   1.000  H
  H24      1.0000 0.95070  0.38270  0.54800  Biso   1.000  H
  C25      1.0000 0.60710  0.92740  0.94150  Biso   1.000  C
  C26      1.0000 0.39290  0.07260  0.44150  Biso   1.000  C
  C27      1.0000 0.10710  0.57260  0.94150  Biso   1.000  C
  C28      1.0000 0.89290  0.42740  0.44150  Biso   1.000  C
  H25      1.0000 0.59160  0.93530  0.85040  Biso   1.000  H
  H26      1.0000 0.40840  0.06470  0.35040  Biso   1.000  H
  H27      1.0000 0.09160  0.56470  0.85040  Biso   1.000  H
  H28      1.0000 0.90840  0.43530  0.35040  Biso   1.000  H
  C29      1.0000 0.65480  0.94870  0.95170  Biso   1.000  C
  C30      1.0000 0.34520  0.05130  0.45170  Biso   1.000  C
  C31      1.0000 0.15480  0.55130  0.95170  Biso   1.000  C
  C32      1.0000 0.84520  0.44870  0.45170  Biso   1.000  C
  H29      1.0000 0.67060  0.97240  0.86990  Biso   1.000  H
  H30      1.0000 0.32940  0.02760  0.36990  Biso   1.000  H
  H31      1.0000 0.17060  0.52760  0.86990  Biso   1.000  H
  H32      1.0000 0.82940  0.47240  0.36990  Biso   1.000  H
  C33      1.0000 0.53420  0.82490  0.30210  Biso   1.000  C
  C34      1.0000 0.46580  0.17510  0.80210  Biso   1.000  C
  C35      1.0000 0.03420  0.67510  0.30210  Biso   1.000  C
  C36      1.0000 0.96580  0.32490  0.80210  Biso   1.000  C
  H33      1.0000 0.51390  0.87470  0.29720  Biso   1.000  H
  H34      1.0000 0.48610  0.12530  0.79720  Biso   1.000  H
  H35      1.0000 0.01390  0.62530  0.29720  Biso   1.000  H
  H36      1.0000 0.98610  0.37470  0.79720  Biso   1.000  H
  H37      1.0000 0.52530  0.79020  0.38640  Biso   1.000  H
  H38      1.0000 0.47470  0.20980  0.88640  Biso   1.000  H
  H39      1.0000 0.02530  0.70980  0.38640  Biso   1.000  H
  H40      1.0000 0.97470  0.29020  0.88640  Biso   1.000  H
  H41      1.0000 0.53090  0.79190  0.21190  Biso   1.000  H
  H42      1.0000 0.46910  0.20810  0.71190  Biso   1.000  H
  H43      1.0000 0.03090  0.70810  0.21190  Biso   1.000  H
  H44      1.0000 0.96910  0.29190  0.71190  Biso   1.000  H
  C37      1.0000 0.83208  0.14070  0.44050  Biso   1.000  C
  C38      1.0000 0.16792  0.85930  0.94050  Biso   1.000  C
  C39      1.0000 0.33208  0.35930  0.44050  Biso   1.000  C
  C40      1.0000 0.66792  0.64070  0.94050  Biso   1.000  C
  C41      1.0000 0.88422  0.16410  0.44320  Biso   1.000  C
  C42      1.0000 0.11578  0.83590  0.94320  Biso   1.000  C
  C43      1.0000 0.38422  0.33590  0.44320  Biso   1.000  C
  C44      1.0000 0.61578  0.66410  0.94320  Biso   1.000  C
  H45      1.0000 0.89950  0.14140  0.35400  Biso   1.000  H
  H46      1.0000 0.10050  0.85860  0.85400  Biso   1.000  H
  H47      1.0000 0.39950  0.35860  0.35400  Biso   1.000  H
  H48      1.0000 0.60050  0.64140  0.85400  Biso   1.000  H
  H49      1.0000 0.88730  0.22630  0.44120  Biso   1.000  H
  H50      1.0000 0.11270  0.77370  0.94120  Biso   1.000  H
  H51      1.0000 0.38730  0.27370  0.44120  Biso   1.000  H
  H52      1.0000 0.61270  0.72630  0.94120  Biso   1.000  H
  C45      1.0000 0.90948  0.12970  0.57860  Biso   1.000  C
  C46      1.0000 0.09052  0.87030  0.07860  Biso   1.000  C
  C47      1.0000 0.40948  0.37030  0.57860  Biso   1.000  C
  C48      1.0000 0.59052  0.62970  0.07860  Biso   1.000  C
  C49      1.0000 0.89185  0.14990  0.71990  Biso   1.000  C
  C50      1.0000 0.10815  0.85010  0.21990  Biso   1.000  C
  C51      1.0000 0.39185  0.35010  0.71990  Biso   1.000  C
  C52      1.0000 0.60815  0.64990  0.21990  Biso   1.000  C
  H53      1.0000 0.86490  0.18470  0.72890  Biso   1.000  H
  H54      1.0000 0.13510  0.81530  0.22890  Biso   1.000  H
  H55      1.0000 0.36490  0.31530  0.72890  Biso   1.000  H
  H56      1.0000 0.63510  0.68470  0.22890  Biso   1.000  H
  C53      1.0000 0.91400  0.11860  0.84700  Biso   1.000  C
  C54      1.0000 0.08600  0.88140  0.34700  Biso   1.000  C
  C55      1.0000 0.41400  0.38140  0.84700  Biso   1.000  C
  C56      1.0000 0.58600  0.61860  0.34700  Biso   1.000  C
  C57      1.0000 0.95440  0.06830  0.83510  Biso   1.000  C
  C58      1.0000 0.04560  0.93170  0.33510  Biso   1.000  C
  C59      1.0000 0.45440  0.43170  0.83510  Biso   1.000  C
  C60      1.0000 0.54560  0.56830  0.33510  Biso   1.000  C
  H57      1.0000 0.97000  0.04890  0.92060  Biso   1.000  H
  H58      1.0000 0.03000  0.95110  0.42060  Biso   1.000  H
  H59      1.0000 0.47000  0.45110  0.92060  Biso   1.000  H
  H60      1.0000 0.53000  0.54890  0.42060  Biso   1.000  H
  C61      1.0000 0.97120  0.04720  0.69740  Biso   1.000  C
  C62      1.0000 0.02880  0.95280  0.19740  Biso   1.000  C
  C63      1.0000 0.47120  0.45280  0.69740  Biso   1.000  C
  C64      1.0000 0.52880  0.54720  0.19740  Biso   1.000  C
  H61      1.0000 0.99790  0.01190  0.68950  Biso   1.000  H
  H62      1.0000 0.00210  0.98810  0.18950  Biso   1.000  H
  H63      1.0000 0.49790  0.48810  0.68950  Biso   1.000  H
  H64      1.0000 0.50210  0.51190  0.18950  Biso   1.000  H
  C65      1.0000 0.94922  0.07700  0.56810  Biso   1.000  C
  C66      1.0000 0.05078  0.92300  0.06810  Biso   1.000  C
  C67      1.0000 0.44922  0.42300  0.56810  Biso   1.000  C
  C68      1.0000 0.55078  0.57700  0.06810  Biso   1.000  C
  H65      1.0000 0.96120  0.06160  0.47480  Biso   1.000  H
  H66      1.0000 0.03880  0.93840  0.97480  Biso   1.000  H
  H67      1.0000 0.46120  0.43840  0.47480  Biso   1.000  H
  H68      1.0000 0.53880  0.56160  0.97480  Biso   1.000  H
  C69      1.0000 0.85220  0.17370  0.00410  Biso   1.000  C
  C70      1.0000 0.14780  0.82630  0.50410  Biso   1.000  C
  C71      1.0000 0.35220  0.32630  0.00410  Biso   1.000  C
  C72      1.0000 0.64780  0.67370  0.50410  Biso   1.000  C
  H69      1.0000 0.85270  0.23070  0.96260  Biso   1.000  H
  H70      1.0000 0.14730  0.76930  0.46260  Biso   1.000  H
  H71      1.0000 0.35270  0.26930  0.96260  Biso   1.000  H
  H72      1.0000 0.64730  0.73070  0.46260  Biso   1.000  H
  H73      1.0000 0.84360  0.17660  0.10790  Biso   1.000  H
  H74      1.0000 0.15640  0.82340  0.60790  Biso   1.000  H
  H75      1.0000 0.34360  0.32340  0.10790  Biso   1.000  H
  H76      1.0000 0.65640  0.67660  0.60790  Biso   1.000  H
  H77      1.0000 0.82920  0.13930  0.95120  Biso   1.000  H
  H78      1.0000 0.17080  0.86070  0.45120  Biso   1.000  H
  H79      1.0000 0.32920  0.36070  0.95120  Biso   1.000  H
  H80      1.0000 0.67080  0.63930  0.45120  Biso   1.000  H
  C73      1.0000 0.74016  0.17200  0.71940  Biso   1.000  C
  C74      1.0000 0.25984  0.82800  0.21940  Biso   1.000  C
  C75      1.0000 0.24016  0.32800  0.71940  Biso   1.000  C
  C76      1.0000 0.75984  0.67200  0.21940  Biso   1.000  C
  C77      1.0000 0.73066  0.21940  0.86660  Biso   1.000  C
  C78      1.0000 0.26934  0.78060  0.36660  Biso   1.000  C
  C79      1.0000 0.23066  0.28060  0.86660  Biso   1.000  C
  C80      1.0000 0.76934  0.71940  0.36660  Biso   1.000  C
  H81      1.0000 0.74130  0.18370  0.94920  Biso   1.000  H
  H82      1.0000 0.25870  0.81630  0.44920  Biso   1.000  H
  H83      1.0000 0.24130  0.31630  0.94920  Biso   1.000  H
  H84      1.0000 0.75870  0.68370  0.44920  Biso   1.000  H
  H85      1.0000 0.74920  0.27210  0.86840  Biso   1.000  H
  H86      1.0000 0.25080  0.72790  0.36840  Biso   1.000  H
  H87      1.0000 0.24920  0.22790  0.86840  Biso   1.000  H
  H88      1.0000 0.75080  0.77210  0.36840  Biso   1.000  H
  C81      1.0000 0.67843  0.24110  0.88820  Biso   1.000  C
  C82      1.0000 0.32157  0.75890  0.38820  Biso   1.000  C
  C83      1.0000 0.17843  0.25890  0.88820  Biso   1.000  C
  C84      1.0000 0.82157  0.74110  0.38820  Biso   1.000  C
  C85      1.0000 0.65919  0.31440  0.82390  Biso   1.000  C
  C86      1.0000 0.34081  0.68560  0.32390  Biso   1.000  C
  C87      1.0000 0.15919  0.18560  0.82390  Biso   1.000  C
  C88      1.0000 0.84081  0.81440  0.32390  Biso   1.000  C
  H89      1.0000 0.67840  0.34990  0.76540  Biso   1.000  H
  H90      1.0000 0.32160  0.65010  0.26540  Biso   1.000  H
  H91      1.0000 0.17840  0.15010  0.76540  Biso   1.000  H
  H92      1.0000 0.82160  0.84990  0.26540  Biso   1.000  H
  C89      1.0000 0.61140  0.33550  0.84610  Biso   1.000  C
  C90      1.0000 0.38860  0.66450  0.34610  Biso   1.000  C
  C91      1.0000 0.11140  0.16450  0.84610  Biso   1.000  C
  C92      1.0000 0.88860  0.83550  0.34610  Biso   1.000  C
  C93      1.0000 0.58310  0.28100  0.92990  Biso   1.000  C
  C94      1.0000 0.41690  0.71900  0.42990  Biso   1.000  C
  C95      1.0000 0.08310  0.21900  0.92990  Biso   1.000  C
  C96      1.0000 0.91690  0.78100  0.42990  Biso   1.000  C
  H93      1.0000 0.55100  0.29410  0.94350  Biso   1.000  H
  H94      1.0000 0.44900  0.70590  0.44350  Biso   1.000  H
  H95      1.0000 0.05100  0.20590  0.94350  Biso   1.000  H
  H96      1.0000 0.94900  0.79410  0.44350  Biso   1.000  H
  C97      1.0000 0.60130  0.20940  0.99230  Biso   1.000  C
  C98      1.0000 0.39870  0.79060  0.49230  Biso   1.000  C
  C99      1.0000 0.10130  0.29060  0.99230  Biso   1.000  C
  C100     1.0000 0.89870  0.70940  0.49230  Biso   1.000  C
  H97      1.0000 0.58150  0.17380  0.04890  Biso   1.000  H
  H98      1.0000 0.41850  0.82620  0.54890  Biso   1.000  H
  H99      1.0000 0.08150  0.32620  0.04890  Biso   1.000  H
  H100     1.0000 0.91850  0.67380  0.54890  Biso   1.000  H
  C101     1.0000 0.64910  0.18760  0.97360  Biso   1.000  C
  C102     1.0000 0.35090  0.81240  0.47360  Biso   1.000  C
  C103     1.0000 0.14910  0.31240  0.97360  Biso   1.000  C
  C104     1.0000 0.85090  0.68760  0.47360  Biso   1.000  C
  H101     1.0000 0.66140  0.13800  0.01750  Biso   1.000  H
  H102     1.0000 0.33860  0.86200  0.51750  Biso   1.000  H
  H103     1.0000 0.16140  0.36200  0.01750  Biso   1.000  H
  H104     1.0000 0.83860  0.63800  0.51750  Biso   1.000  H
  C105     1.0000 0.61890  0.45850  0.68990  Biso   1.000  C
  C106     1.0000 0.38110  0.54150  0.18990  Biso   1.000  C
  C107     1.0000 0.11890  0.04150  0.68990  Biso   1.000  C
  C108     1.0000 0.88110  0.95850  0.18990  Biso   1.000  C
  H105     1.0000 0.64530  0.48130  0.74580  Biso   1.000  H
  H106     1.0000 0.35470  0.51870  0.24580  Biso   1.000  H
  H107     1.0000 0.14530  0.01870  0.74580  Biso   1.000  H
  H108     1.0000 0.85470  0.98130  0.24580  Biso   1.000  H
  H109     1.0000 0.60000  0.50520  0.65140  Biso   1.000  H
  H110     1.0000 0.40000  0.49480  0.15140  Biso   1.000  H
  H111     1.0000 0.10000  0.99480  0.65140  Biso   1.000  H
  H112     1.0000 0.90000  0.00520  0.15140  Biso   1.000  H
  H113     1.0000 0.63070  0.42440  0.60830  Biso   1.000  H
  H114     1.0000 0.36930  0.57560  0.10830  Biso   1.000  H
  H115     1.0000 0.13070  0.07560  0.60830  Biso   1.000  H
  H116     1.0000 0.86930  0.92440  0.10830  Biso   1.000  H
  C109     1.0000 0.66058  0.05090  0.51640  Biso   1.000  C
  C110     1.0000 0.33942  0.94910  0.01640  Biso   1.000  C
  C111     1.0000 0.16058  0.44910  0.51640  Biso   1.000  C
  C112     1.0000 0.83942  0.55090  0.01640  Biso   1.000  C
  C113     1.0000 0.60784  0.03440  0.54550  Biso   1.000  C
  C114     1.0000 0.39216  0.96560  0.04550  Biso   1.000  C
  C115     1.0000 0.10784  0.46560  0.54550  Biso   1.000  C
  C116     1.0000 0.89216  0.53440  0.04550  Biso   1.000  C
  H117     1.0000 0.59880  0.98090  0.49720  Biso   1.000  H
  H118     1.0000 0.40120  0.01910  0.99720  Biso   1.000  H
  H119     1.0000 0.09880  0.51910  0.49720  Biso   1.000  H
  H120     1.0000 0.90120  0.48090  0.99720  Biso   1.000  H
  H121     1.0000 0.60310  0.02720  0.65230  Biso   1.000  H
  H122     1.0000 0.39690  0.97280  0.15230  Biso   1.000  H
  H123     1.0000 0.10310  0.47280  0.65230  Biso   1.000  H
  H124     1.0000 0.89690  0.52720  0.15230  Biso   1.000  H
  C117     1.0000 0.57533  0.10470  0.49100  Biso   1.000  C
  C118     1.0000 0.42467  0.89530  0.99100  Biso   1.000  C
  C119     1.0000 0.07533  0.39530  0.49100  Biso   1.000  C
  C120     1.0000 0.92467  0.60470  0.99100  Biso   1.000  C
  C121     1.0000 0.54854  0.09370  0.36450  Biso   1.000  C
  C122     1.0000 0.45146  0.90630  0.86450  Biso   1.000  C
  C123     1.0000 0.04854  0.40630  0.36450  Biso   1.000  C
  C124     1.0000 0.95146  0.59370  0.86450  Biso   1.000  C
  H125     1.0000 0.55020  0.04230  0.31140  Biso   1.000  H
  H126     1.0000 0.44980  0.95770  0.81140  Biso   1.000  H
  H127     1.0000 0.05020  0.45770  0.31140  Biso   1.000  H
  H128     1.0000 0.94980  0.54230  0.81140  Biso   1.000  H
  C125     1.0000 0.51880  0.15940  0.31550  Biso   1.000  C
  C126     1.0000 0.48120  0.84060  0.81550  Biso   1.000  C
  C127     1.0000 0.01880  0.34060  0.31550  Biso   1.000  C
  C128     1.0000 0.98120  0.65940  0.81550  Biso   1.000  C
  C129     1.0000 0.51663  0.23650  0.38790  Biso   1.000  C
  C130     1.0000 0.48337  0.76350  0.88790  Biso   1.000  C
  C131     1.0000 0.01663  0.26350  0.38790  Biso   1.000  C
  C132     1.0000 0.98337  0.73650  0.88790  Biso   1.000  C
  H129     1.0000 0.49730  0.28060  0.35190  Biso   1.000  H
  H130     1.0000 0.50270  0.71940  0.85190  Biso   1.000  H
  H131     1.0000 0.99730  0.21940  0.35190  Biso   1.000  H
  H132     1.0000 0.00270  0.78060  0.85190  Biso   1.000  H
  C133     1.0000 0.54349  0.24810  0.51510  Biso   1.000  C
  C134     1.0000 0.45651  0.75190  0.01510  Biso   1.000  C
  C135     1.0000 0.04349  0.25190  0.51510  Biso   1.000  C
  C136     1.0000 0.95651  0.74810  0.01510  Biso   1.000  C
  H133     1.0000 0.54210  0.30010  0.56670  Biso   1.000  H
  H134     1.0000 0.45790  0.69990  0.06670  Biso   1.000  H
  H135     1.0000 0.04210  0.19990  0.56670  Biso   1.000  H
  H136     1.0000 0.95790  0.80010  0.06670  Biso   1.000  H
  C137     1.0000 0.57274  0.18210  0.56650  Biso   1.000  C
  C138     1.0000 0.42726  0.81790  0.06650  Biso   1.000  C
  C139     1.0000 0.07274  0.31790  0.56650  Biso   1.000  C
  C140     1.0000 0.92726  0.68210  0.06650  Biso   1.000  C
  H137     1.0000 0.59080  0.19010  0.65280  Biso   1.000  H
  H138     1.0000 0.40920  0.80990  0.15280  Biso   1.000  H
  H139     1.0000 0.09080  0.30990  0.65280  Biso   1.000  H
  H140     1.0000 0.90920  0.69010  0.15280  Biso   1.000  H
  C141     1.0000 0.49810  0.06550  0.11600  Biso   1.000  C
  C142     1.0000 0.50190  0.93450  0.61600  Biso   1.000  C
  C143     1.0000 0.99810  0.43450  0.11600  Biso   1.000  C
  C144     1.0000 0.00190  0.56550  0.61600  Biso   1.000  C
  H141     1.0000 0.52940  0.06450  0.07210  Biso   1.000  H
  H142     1.0000 0.47060  0.93550  0.57210  Biso   1.000  H
  H143     1.0000 0.02940  0.43550  0.07210  Biso   1.000  H
  H144     1.0000 0.97060  0.56450  0.57210  Biso   1.000  H
  H145     1.0000 0.47450  0.05890  0.03890  Biso   1.000  H
  H146     1.0000 0.52550  0.94110  0.53890  Biso   1.000  H
  H147     1.0000 0.97450  0.44110  0.03890  Biso   1.000  H
  H148     1.0000 0.02550  0.55890  0.53890  Biso   1.000  H
  H149     1.0000 0.49520  0.01910  0.18640  Biso   1.000  H
  H150     1.0000 0.50480  0.98090  0.68640  Biso   1.000  H
  H151     1.0000 0.99520  0.48090  0.18640  Biso   1.000  H
  H152     1.0000 0.00480  0.51910  0.68640  Biso   1.000  H
  C145     1.0000 0.72857  0.34410  0.22200  Biso   1.000  C
  C146     1.0000 0.27143  0.65590  0.72200  Biso   1.000  C
  C147     1.0000 0.22857  0.15590  0.22200  Biso   1.000  C
  C148     1.0000 0.77143  0.84410  0.72200  Biso   1.000  C
  C149     1.0000 0.65918  0.29280  0.32180  Biso   1.000  C
  C150     1.0000 0.34082  0.70720  0.82180  Biso   1.000  C
  C151     1.0000 0.15918  0.20720  0.32180  Biso   1.000  C
  C152     1.0000 0.84082  0.79280  0.82180  Biso   1.000  C
  H153     1.0000 0.64240  0.25030  0.37330  Biso   1.000  H
  H154     1.0000 0.35760  0.74970  0.87330  Biso   1.000  H
  H155     1.0000 0.14240  0.24970  0.37330  Biso   1.000  H
  H156     1.0000 0.85760  0.75030  0.87330  Biso   1.000  H
  C153     1.0000 0.63468  0.36460  0.27440  Biso   1.000  C
  C154     1.0000 0.36532  0.63540  0.77440  Biso   1.000  C
  C155     1.0000 0.13468  0.13540  0.27440  Biso   1.000  C
  C156     1.0000 0.86532  0.86460  0.77440  Biso   1.000  C
  H157     1.0000 0.60230  0.37200  0.29390  Biso   1.000  H
  H158     1.0000 0.39770  0.62800  0.79390  Biso   1.000  H
  H159     1.0000 0.10230  0.12800  0.29390  Biso   1.000  H
  H160     1.0000 0.89770  0.87200  0.79390  Biso   1.000  H
  C157     1.0000 0.66040  0.42400  0.19730  Biso   1.000  C
  C158     1.0000 0.33960  0.57600  0.69730  Biso   1.000  C
  C159     1.0000 0.16040  0.07600  0.19730  Biso   1.000  C
  C160     1.0000 0.83960  0.92400  0.69730  Biso   1.000  C
  H161     1.0000 0.64470  0.47280  0.16200  Biso   1.000  H
  H162     1.0000 0.35530  0.52720  0.66200  Biso   1.000  H
  H163     1.0000 0.14470  0.02720  0.16200  Biso   1.000  H
  H164     1.0000 0.85530  0.97280  0.66200  Biso   1.000  H
  C161     1.0000 0.44900  0.20390  0.16100  Biso   1.000  C
  C162     1.0000 0.55100  0.79610  0.66100  Biso   1.000  C
  C163     1.0000 0.94900  0.29610  0.16100  Biso   1.000  C
  C164     1.0000 0.05100  0.70390  0.66100  Biso   1.000  C
  H165     1.0000 0.43040  0.20980  0.25070  Biso   1.000  H
  H166     1.0000 0.56960  0.79020  0.75070  Biso   1.000  H
  H167     1.0000 0.93040  0.29020  0.25070  Biso   1.000  H
  H168     1.0000 0.06960  0.70980  0.75070  Biso   1.000  H
  H169     1.0000 0.42940  0.17980  0.08330  Biso   1.000  H
  H170     1.0000 0.57060  0.82020  0.58330  Biso   1.000  H
  H171     1.0000 0.92940  0.32020  0.08330  Biso   1.000  H
  H172     1.0000 0.07060  0.67980  0.58330  Biso   1.000  H
  H173     1.0000 0.46040  0.25940  0.13030  Biso   1.000  H
  H174     1.0000 0.53960  0.74060  0.63030  Biso   1.000  H
  H175     1.0000 0.96040  0.24060  0.13030  Biso   1.000  H
  H176     1.0000 0.03960  0.75940  0.63030  Biso   1.000  H
