data_image0
_cell_length_a       7.9037
_cell_length_b       9.434
_cell_length_c       10.312
_cell_angle_alpha    72.839
_cell_angle_beta     69.016
_cell_angle_gamma    74.843

_symmetry_space_group_name_H-M    "P 1"
_symmetry_int_tables_number       1

loop_
  _symmetry_equiv_pos_as_xyz
  'x, y, z'

loop_
  _atom_site_label
  _atom_site_occupancy
  _atom_site_fract_x
  _atom_site_fract_y
  _atom_site_fract_z
  _atom_site_thermal_displace_type
  _atom_site_B_iso_or_equiv
  _atom_site_type_symbol
  Cu1      1.0000 0.00000  0.50000  0.50000  Biso   1.000  Cu
  O1       1.0000 0.76980  0.33920  0.97528  Biso   1.000  O
  O2       1.0000 0.23020  0.66080  0.02472  Biso   1.000  O
  O3       1.0000 0.76548  0.72674  0.58139  Biso   1.000  O
  O4       1.0000 0.23452  0.27326  0.41861  Biso   1.000  O
  O5       1.0000 0.99448  0.70843  0.38398  Biso   1.000  O
  O6       1.0000 0.00552  0.29157  0.61602  Biso   1.000  O
  N1       1.0000 0.57050  0.31540  0.19760  Biso   1.000  N
  N2       1.0000 0.42950  0.68460  0.80240  Biso   1.000  N
  H1       1.0000 0.47700  0.28500  0.25200  Biso   1.000  H
  H2       1.0000 0.52300  0.71500  0.74800  Biso   1.000  H
  N3       1.0000 0.84810  0.45602  0.40348  Biso   1.000  N
  N4       1.0000 0.15190  0.54398  0.59652  Biso   1.000  N
  N5       1.0000 0.47430  0.17920  0.81470  Biso   1.000  N
  N6       1.0000 0.52570  0.82080  0.18530  Biso   1.000  N
  C1       1.0000 0.56830  0.22550  0.87430  Biso   1.000  C
  C2       1.0000 0.43170  0.77450  0.12570  Biso   1.000  C
  H3       1.0000 0.68990  0.24160  0.81980  Biso   1.000  H
  H4       1.0000 0.31010  0.75840  0.18020  Biso   1.000  H
  C3       1.0000 0.50000  0.25170  0.01140  Biso   1.000  C
  C4       1.0000 0.50000  0.74830  0.98860  Biso   1.000  C
  C5       1.0000 0.32370  0.22700  0.09100  Biso   1.000  C
  C6       1.0000 0.67630  0.77300  0.90900  Biso   1.000  C
  H5       1.0000 0.27180  0.24290  0.18510  Biso   1.000  H
  H6       1.0000 0.72820  0.75710  0.81490  Biso   1.000  H
  C7       1.0000 0.62500  0.30660  0.05840  Biso   1.000  C
  C8       1.0000 0.37500  0.69340  0.94160  Biso   1.000  C
  C9       1.0000 0.66610  0.36520  0.26160  Biso   1.000  C
  C10      1.0000 0.33390  0.63480  0.73840  Biso   1.000  C
  C11      1.0000 0.80920  0.44630  0.18670  Biso   1.000  C
  C12      1.0000 0.19080  0.55370  0.81330  Biso   1.000  C
  H7       1.0000 0.84830  0.47130  0.08550  Biso   1.000  H
  H8       1.0000 0.15170  0.52870  0.91450  Biso   1.000  H
  C13      1.0000 0.89330  0.48990  0.26100  Biso   1.000  C
  C14      1.0000 0.10670  0.51010  0.73900  Biso   1.000  C
  H9       1.0000 0.98870  0.54720  0.20840  Biso   1.000  H
  H10      1.0000 0.01130  0.45280  0.79160  Biso   1.000  H
  C15      1.0000 0.70900  0.37880  0.47550  Biso   1.000  C
  C16      1.0000 0.29100  0.62120  0.52450  Biso   1.000  C
  H11      1.0000 0.67390  0.35440  0.57660  Biso   1.000  H
  H12      1.0000 0.32610  0.64560  0.42340  Biso   1.000  H
  C17      1.0000 0.61530  0.33360  0.41004  Biso   1.000  C
  C18      1.0000 0.38470  0.66640  0.58996  Biso   1.000  C
  H13      1.0000 0.51620  0.28090  0.46550  Biso   1.000  H
  H14      1.0000 0.48380  0.71910  0.53450  Biso   1.000  H
  C19      1.0000 0.86510  0.78600  0.46390  Biso   1.000  C
  C20      1.0000 0.13490  0.21400  0.53610  Biso   1.000  C
  C21      1.0000 0.84230  0.95570  0.41280  Biso   1.000  C
  C22      1.0000 0.15770  0.04430  0.58720  Biso   1.000  C
  H15      1.0000 0.72300  0.00260  0.47120  Biso   1.000  H
  H16      1.0000 0.27700  0.99740  0.52880  Biso   1.000  H
  H17      1.0000 0.84150  0.98430  0.31260  Biso   1.000  H
  H18      1.0000 0.15850  0.01570  0.68740  Biso   1.000  H
  C23      1.0000 0.99880  0.01450  0.42360  Biso   1.000  C
  C24      1.0000 0.00120  0.98550  0.57640  Biso   1.000  C
  H19      1.0000 0.11780  0.96530  0.36680  Biso   1.000  H
  H20      1.0000 0.88220  0.03470  0.63320  Biso   1.000  H
  H21      1.0000 0.98630  0.12420  0.38200  Biso   1.000  H
  H22      1.0000 0.01370  0.87580  0.61800  Biso   1.000  H
  C25      1.0000 0.30410  0.15770  0.89410  Biso   1.000  C
  C26      1.0000 0.69590  0.84230  0.10590  Biso   1.000  C
  H23      1.0000 0.23340  0.12600  0.85380  Biso   1.000  H
  H24      1.0000 0.76660  0.87400  0.14620  Biso   1.000  H
  C27      1.0000 0.22480  0.17890  0.03110  Biso   1.000  C
  C28      1.0000 0.77520  0.82110  0.96890  Biso   1.000  C
  H25      1.0000 0.10350  0.16050  0.08370  Biso   1.000  H
  H26      1.0000 0.89650  0.83950  0.91630  Biso   1.000  H
