data_image0
_cell_length_a       10.157
_cell_length_b       10.194
_cell_length_c       22.025
_cell_angle_alpha    80.813
_cell_angle_beta     79.984
_cell_angle_gamma    83.901

_symmetry_space_group_name_H-M    "P 1"
_symmetry_int_tables_number       1

loop_
  _symmetry_equiv_pos_as_xyz
  'x, y, z'

loop_
  _atom_site_label
  _atom_site_occupancy
  _atom_site_fract_x
  _atom_site_fract_y
  _atom_site_fract_z
  _atom_site_thermal_displace_type
  _atom_site_B_iso_or_equiv
  _atom_site_type_symbol
  Cu1      1.0000 0.07289  0.59117  0.79098  Biso   1.000  Cu
  Cu2      1.0000 0.92711  0.40883  0.20902  Biso   1.000  Cu
  Cu3      1.0000 0.91229  0.43404  0.70780  Biso   1.000  Cu
  Cu4      1.0000 0.08771  0.56596  0.29220  Biso   1.000  Cu
  Cl1      1.0000 0.34090  0.44610  0.46942  Biso   1.000  Cl
  Cl2      1.0000 0.65910  0.55390  0.53058  Biso   1.000  Cl
  Cl3      1.0000 0.32600  0.47420  0.61006  Biso   1.000  Cl
  Cl4      1.0000 0.67400  0.52580  0.38994  Biso   1.000  Cl
  Cl5      1.0000 0.91630  0.85210  0.59270  Biso   1.000  Cl
  Cl6      1.0000 0.08370  0.14790  0.40730  Biso   1.000  Cl
  Cl7      1.0000 0.92680  0.81780  0.45298  Biso   1.000  Cl
  Cl8      1.0000 0.07320  0.18220  0.54702  Biso   1.000  Cl
  Cl9      1.0000 0.04440  0.16320  0.89964  Biso   1.000  Cl
  Cl10     1.0000 0.95560  0.83680  0.10036  Biso   1.000  Cl
  Cl11     1.0000 0.04810  0.17610  0.03998  Biso   1.000  Cl
  Cl12     1.0000 0.95190  0.82390  0.96002  Biso   1.000  Cl
  Cl13     1.0000 0.66350  0.58070  0.03773  Biso   1.000  Cl
  Cl14     1.0000 0.33650  0.41930  0.96227  Biso   1.000  Cl
  Cl15     1.0000 0.66170  0.57160  0.89610  Biso   1.000  Cl
  Cl16     1.0000 0.33830  0.42840  0.10390  Biso   1.000  Cl
  O1       1.0000 0.05090  0.60240  0.70300  Biso   1.000  O
  O2       1.0000 0.94910  0.39760  0.29700  Biso   1.000  O
  O3       1.0000 0.18990  0.76390  0.67200  Biso   1.000  O
  O4       1.0000 0.81010  0.23610  0.32800  Biso   1.000  O
  O5       1.0000 0.22260  0.71030  0.36280  Biso   1.000  O
  O6       1.0000 0.77740  0.28970  0.63720  Biso   1.000  O
  O7       1.0000 0.08670  0.54570  0.38210  Biso   1.000  O
  O8       1.0000 0.91330  0.45430  0.61790  Biso   1.000  O
  O9       1.0000 0.92770  0.42740  0.79670  Biso   1.000  O
  O10      1.0000 0.07230  0.57260  0.20330  Biso   1.000  O
  O11      1.0000 0.77260  0.28170  0.82560  Biso   1.000  O
  O12      1.0000 0.22740  0.71830  0.17440  Biso   1.000  O
  O13      1.0000 0.77060  0.29160  0.13640  Biso   1.000  O
  O14      1.0000 0.22940  0.70840  0.86360  Biso   1.000  O
  O15      1.0000 0.92170  0.44130  0.11970  Biso   1.000  O
  O16      1.0000 0.07830  0.55870  0.88030  Biso   1.000  O
  O17      1.0000 0.05130  0.28660  0.69660  Biso   1.000  O
  O18      1.0000 0.94870  0.71340  0.30340  Biso   1.000  O
  O19      1.0000 0.24330  0.48240  0.77010  Biso   1.000  O
  O20      1.0000 0.75670  0.51760  0.22990  Biso   1.000  O
  O21      1.0000 0.93630  0.74000  0.80770  Biso   1.000  O
  O22      1.0000 0.06370  0.26000  0.19230  Biso   1.000  O
  O23      1.0000 0.74790  0.55500  0.72400  Biso   1.000  O
  O24      1.0000 0.25210  0.44500  0.27600  Biso   1.000  O
  O25      1.0000 0.59390  0.12420  0.61580  Biso   1.000  O
  O26      1.0000 0.40610  0.87580  0.38420  Biso   1.000  O
  H1       1.0000 0.64380  0.17760  0.62160  Biso   1.000  H
  H2       1.0000 0.35620  0.82240  0.37840  Biso   1.000  H
  C1       1.0000 0.66800  0.06810  0.00740  Biso   1.000  C
  C2       1.0000 0.33200  0.93190  0.99260  Biso   1.000  C
  H3       1.0000 0.75170  0.05430  0.02310  Biso   1.000  H
  H4       1.0000 0.24830  0.94570  0.97690  Biso   1.000  H
  H5       1.0000 0.68300  0.10680  0.96440  Biso   1.000  H
  H6       1.0000 0.31700  0.89320  0.03560  Biso   1.000  H
  H7       1.0000 0.63020  0.98410  0.01130  Biso   1.000  H
  H8       1.0000 0.36980  0.01590  0.98870  Biso   1.000  H
  N1       1.0000 0.16270  0.09200  0.72880  Biso   1.000  N
  N2       1.0000 0.83730  0.90800  0.27120  Biso   1.000  N
  N3       1.0000 0.40000  0.31800  0.79560  Biso   1.000  N
  N4       1.0000 0.60000  0.68200  0.20440  Biso   1.000  N
  N5       1.0000 0.79630  0.91880  0.78350  Biso   1.000  N
  N6       1.0000 0.20370  0.08120  0.21650  Biso   1.000  N
  N7       1.0000 0.58290  0.70360  0.69430  Biso   1.000  N
  N8       1.0000 0.41710  0.29640  0.30570  Biso   1.000  N
  C3       1.0000 0.12280  0.66110  0.59450  Biso   1.000  C
  C4       1.0000 0.87720  0.33890  0.40550  Biso   1.000  C
  C5       1.0000 0.21540  0.56920  0.56550  Biso   1.000  C
  C6       1.0000 0.78460  0.43080  0.43450  Biso   1.000  C
  C7       1.0000 0.21930  0.55550  0.50450  Biso   1.000  C
  C8       1.0000 0.78070  0.44450  0.49550  Biso   1.000  C
  C9       1.0000 0.13550  0.63480  0.46720  Biso   1.000  C
  C10      1.0000 0.86450  0.36520  0.53280  Biso   1.000  C
  C11      1.0000 0.03780  0.72150  0.49650  Biso   1.000  C
  C12      1.0000 0.96220  0.27850  0.50350  Biso   1.000  C
  C13      1.0000 0.03350  0.73690  0.55890  Biso   1.000  C
  C14      1.0000 0.96650  0.26310  0.44110  Biso   1.000  C
  C15      1.0000 0.12440  0.67930  0.66110  Biso   1.000  C
  C16      1.0000 0.87560  0.32070  0.33890  Biso   1.000  C
  C17      1.0000 0.14990  0.63060  0.39860  Biso   1.000  C
  C18      1.0000 0.85010  0.36940  0.60140  Biso   1.000  C
  C19      1.0000 0.85330  0.36850  0.90420  Biso   1.000  C
  C20      1.0000 0.14670  0.63150  0.09580  Biso   1.000  C
  C21      1.0000 0.77040  0.46250  0.93590  Biso   1.000  C
  C22      1.0000 0.22960  0.53750  0.06410  Biso   1.000  C
  C23      1.0000 0.77160  0.46700  0.99830  Biso   1.000  C
  C24      1.0000 0.22840  0.53300  0.00170  Biso   1.000  C
  C25      1.0000 0.85460  0.37640  0.03230  Biso   1.000  C
  C26      1.0000 0.14540  0.62360  0.96770  Biso   1.000  C
  C27      1.0000 0.94120  0.28720  0.00020  Biso   1.000  C
  C28      1.0000 0.05880  0.71280  0.99980  Biso   1.000  C
  C29      1.0000 0.93860  0.28040  0.93780  Biso   1.000  C
  C30      1.0000 0.06140  0.71960  0.06220  Biso   1.000  C
  C31      1.0000 0.84720  0.35680  0.83700  Biso   1.000  C
  C32      1.0000 0.15280  0.64320  0.16300  Biso   1.000  C
  C33      1.0000 0.84690  0.36830  0.10160  Biso   1.000  C
  C34      1.0000 0.15310  0.63170  0.89840  Biso   1.000  C
  C35      1.0000 0.17700  0.97660  0.77560  Biso   1.000  C
  C36      1.0000 0.82300  0.02340  0.22440  Biso   1.000  C
  H9       1.0000 0.10320  0.97950  0.80920  Biso   1.000  H
  H10      1.0000 0.89680  0.02050  0.19080  Biso   1.000  H
  H11      1.0000 0.25960  0.97670  0.79110  Biso   1.000  H
  H12      1.0000 0.74040  0.02330  0.20890  Biso   1.000  H
  H13      1.0000 0.17770  0.89690  0.75740  Biso   1.000  H
  H14      1.0000 0.82230  0.10310  0.24260  Biso   1.000  H
  C37      1.0000 0.26720  0.10050  0.67460  Biso   1.000  C
  C38      1.0000 0.73280  0.89950  0.32540  Biso   1.000  C
  H15      1.0000 0.25110  0.18190  0.64730  Biso   1.000  H
  H16      1.0000 0.74890  0.81810  0.35270  Biso   1.000  H
  H17      1.0000 0.26700  0.02590  0.65300  Biso   1.000  H
  H18      1.0000 0.73300  0.97410  0.34700  Biso   1.000  H
  H19      1.0000 0.35280  0.09950  0.68760  Biso   1.000  H
  H20      1.0000 0.64720  0.90050  0.31240  Biso   1.000  H
  C39      1.0000 0.06380  0.18560  0.73560  Biso   1.000  C
  C40      1.0000 0.93620  0.81440  0.26440  Biso   1.000  C
  H21      1.0000 0.99990  0.17550  0.77140  Biso   1.000  H
  H22      1.0000 0.00010  0.82450  0.22860  Biso   1.000  H
  C41      1.0000 0.43860  0.20760  0.84230  Biso   1.000  C
  C42      1.0000 0.56140  0.79240  0.15770  Biso   1.000  C
  H23      1.0000 0.37180  0.20410  0.87900  Biso   1.000  H
  H24      1.0000 0.62820  0.79590  0.12100  Biso   1.000  H
  H25      1.0000 0.52350  0.22150  0.85270  Biso   1.000  H
  H26      1.0000 0.47650  0.77850  0.14730  Biso   1.000  H
  H27      1.0000 0.44570  0.12520  0.82570  Biso   1.000  H
  H28      1.0000 0.55430  0.87480  0.17430  Biso   1.000  H
  C43      1.0000 0.49540  0.34630  0.73850  Biso   1.000  C
  C44      1.0000 0.50460  0.65370  0.26150  Biso   1.000  C
  H29      1.0000 0.58240  0.35240  0.74870  Biso   1.000  H
  H30      1.0000 0.41760  0.64760  0.25130  Biso   1.000  H
  H31      1.0000 0.46670  0.42930  0.71530  Biso   1.000  H
  H32      1.0000 0.53330  0.57070  0.28470  Biso   1.000  H
  H33      1.0000 0.49990  0.27600  0.71380  Biso   1.000  H
  H34      1.0000 0.50010  0.72400  0.28620  Biso   1.000  H
  C45      1.0000 0.28230  0.38940  0.80810  Biso   1.000  C
  C46      1.0000 0.71770  0.61060  0.19190  Biso   1.000  C
  H35      1.0000 0.22820  0.36860  0.84640  Biso   1.000  H
  H36      1.0000 0.77180  0.63140  0.15360  Biso   1.000  H
  C47      1.0000 0.52850  0.79140  0.64340  Biso   1.000  C
  C48      1.0000 0.47150  0.20860  0.35660  Biso   1.000  C
  H37      1.0000 0.57990  0.77390  0.60420  Biso   1.000  H
  H38      1.0000 0.42010  0.22610  0.39580  Biso   1.000  H
  H39      1.0000 0.53340  0.88280  0.64800  Biso   1.000  H
  H40      1.0000 0.46660  0.11720  0.35200  Biso   1.000  H
  H41      1.0000 0.43670  0.77500  0.64460  Biso   1.000  H
  H42      1.0000 0.56330  0.22500  0.35540  Biso   1.000  H
  C49      1.0000 0.50860  0.70700  0.75670  Biso   1.000  C
  C50      1.0000 0.49140  0.29300  0.24330  Biso   1.000  C
  H43      1.0000 0.54670  0.63830  0.78520  Biso   1.000  H
  H44      1.0000 0.45330  0.36170  0.21480  Biso   1.000  H
  H45      1.0000 0.41660  0.69250  0.75710  Biso   1.000  H
  H46      1.0000 0.58340  0.30750  0.24290  Biso   1.000  H
  H47      1.0000 0.51330  0.79230  0.76900  Biso   1.000  H
  H48      1.0000 0.48670  0.20770  0.23100  Biso   1.000  H
  C51      1.0000 0.69570  0.62850  0.68190  Biso   1.000  C
  C52      1.0000 0.30430  0.37150  0.31810  Biso   1.000  C
  H49      1.0000 0.73740  0.63020  0.64080  Biso   1.000  H
  H50      1.0000 0.26260  0.36980  0.35920  Biso   1.000  H
  C53      1.0000 0.75040  0.01830  0.73410  Biso   1.000  C
  C54      1.0000 0.24960  0.98170  0.26590  Biso   1.000  C
  H51      1.0000 0.66030  0.00440  0.73050  Biso   1.000  H
  H52      1.0000 0.33970  0.99560  0.26950  Biso   1.000  H
  H53      1.0000 0.80820  0.00960  0.69530  Biso   1.000  H
  H54      1.0000 0.19180  0.99040  0.30470  Biso   1.000  H
  H55      1.0000 0.75280  0.10610  0.74430  Biso   1.000  H
  H56      1.0000 0.24720  0.89390  0.25570  Biso   1.000  H
  C55      1.0000 0.73870  0.93470  0.84680  Biso   1.000  C
  C56      1.0000 0.26130  0.06530  0.15320  Biso   1.000  C
  H57      1.0000 0.77430  0.86320  0.87490  Biso   1.000  H
  H58      1.0000 0.22570  0.13680  0.12510  Biso   1.000  H
  H59      1.0000 0.64310  0.93330  0.85200  Biso   1.000  H
  H60      1.0000 0.35690  0.06670  0.14800  Biso   1.000  H
  H61      1.0000 0.76060  0.01830  0.85570  Biso   1.000  H
  H62      1.0000 0.23940  0.98170  0.14430  Biso   1.000  H
  C57      1.0000 0.88990  0.82230  0.76840  Biso   1.000  C
  C58      1.0000 0.11010  0.17770  0.23160  Biso   1.000  C
  H63      1.0000 0.92100  0.81720  0.72650  Biso   1.000  H
  H64      1.0000 0.07900  0.18280  0.27350  Biso   1.000  H
  C59      1.0000 0.65260  0.09020  0.50920  Biso   1.000  C
  C60      1.0000 0.34740  0.90980  0.49080  Biso   1.000  C
  H65      1.0000 0.73940  0.12350  0.50410  Biso   1.000  H
  H66      1.0000 0.26060  0.87650  0.49590  Biso   1.000  H
  H67      1.0000 0.62130  0.10440  0.46980  Biso   1.000  H
  H68      1.0000 0.37870  0.89560  0.53020  Biso   1.000  H
  H69      1.0000 0.65880  0.99650  0.52460  Biso   1.000  H
  H70      1.0000 0.34120  0.00350  0.47540  Biso   1.000  H
  C61      1.0000 0.55850  0.16050  0.55370  Biso   1.000  C
  C62      1.0000 0.44150  0.83950  0.44630  Biso   1.000  C
  H71      1.0000 0.56090  0.25590  0.54110  Biso   1.000  H
  H72      1.0000 0.43910  0.74410  0.45890  Biso   1.000  H
  H73      1.0000 0.46810  0.13740  0.55400  Biso   1.000  H
  H74      1.0000 0.53190  0.86260  0.44600  Biso   1.000  H
  O27      1.0000 0.59330  0.12460  0.11210  Biso   1.000  O
  O28      1.0000 0.40670  0.87540  0.88790  Biso   1.000  O
  H75      1.0000 0.64610  0.17340  0.11940  Biso   1.000  H
  H76      1.0000 0.35390  0.82660  0.88060  Biso   1.000  H
  C63      1.0000 0.57570  0.15750  0.04310  Biso   1.000  C
  C64      1.0000 0.42430  0.84250  0.95690  Biso   1.000  C
  H77      1.0000 0.48410  0.14660  0.03890  Biso   1.000  H
  H78      1.0000 0.51590  0.85340  0.96110  Biso   1.000  H
  H79      1.0000 0.59410  0.24930  0.02750  Biso   1.000  H
  H80      1.0000 0.40590  0.75070  0.97250  Biso   1.000  H
