data_image0
_cell_length_a       10.105
_cell_length_b       18.133
_cell_length_c       15.59
_cell_angle_alpha    90
_cell_angle_beta     103.29
_cell_angle_gamma    90

_symmetry_space_group_name_H-M    "P 1"
_symmetry_int_tables_number       1

loop_
  _symmetry_equiv_pos_as_xyz
  'x, y, z'

loop_
  _atom_site_label
  _atom_site_occupancy
  _atom_site_fract_x
  _atom_site_fract_y
  _atom_site_fract_z
  _atom_site_thermal_displace_type
  _atom_site_B_iso_or_equiv
  _atom_site_type_symbol
  Pt1      1.0000 0.72126  0.78810  0.95605  Biso   1.000  Pt
  Pt2      1.0000 0.22126  0.71190  0.45605  Biso   1.000  Pt
  Pt3      1.0000 0.27874  0.21190  0.04395  Biso   1.000  Pt
  Pt4      1.0000 0.77874  0.28810  0.54395  Biso   1.000  Pt
  Cu1      1.0000 0.21141  0.48181  0.16663  Biso   1.000  Cu
  Cu2      1.0000 0.71141  0.01819  0.66663  Biso   1.000  Cu
  Cu3      1.0000 0.78859  0.51819  0.83337  Biso   1.000  Cu
  Cu4      1.0000 0.28859  0.98181  0.33337  Biso   1.000  Cu
  O1       1.0000 0.32890  0.53140  0.10410  Biso   1.000  O
  O2       1.0000 0.82890  0.96860  0.60410  Biso   1.000  O
  O3       1.0000 0.67110  0.46860  0.89590  Biso   1.000  O
  O4       1.0000 0.17110  0.03140  0.39590  Biso   1.000  O
  O5       1.0000 0.20080  0.53690  0.96680  Biso   1.000  O
  O6       1.0000 0.70080  0.96310  0.46680  Biso   1.000  O
  O7       1.0000 0.79920  0.46310  0.03320  Biso   1.000  O
  O8       1.0000 0.29920  0.03690  0.53320  Biso   1.000  O
  O9       1.0000 0.39580  0.93090  0.26610  Biso   1.000  O
  O10      1.0000 0.89580  0.56910  0.76610  Biso   1.000  O
  O11      1.0000 0.60420  0.06910  0.73390  Biso   1.000  O
  O12      1.0000 0.10420  0.43090  0.23390  Biso   1.000  O
  O13      1.0000 0.29760  0.00100  0.15310  Biso   1.000  O
  O14      1.0000 0.79760  0.49900  0.65310  Biso   1.000  O
  O15      1.0000 0.70240  0.99900  0.84690  Biso   1.000  O
  O16      1.0000 0.20240  0.50100  0.34690  Biso   1.000  O
  O17      1.0000 0.35970  0.40900  0.20660  Biso   1.000  O
  O18      1.0000 0.85970  0.09100  0.70660  Biso   1.000  O
  O19      1.0000 0.64030  0.59100  0.79340  Biso   1.000  O
  O20      1.0000 0.14030  0.90900  0.29340  Biso   1.000  O
  O21      1.0000 0.08410  0.56610  0.14980  Biso   1.000  O
  O22      1.0000 0.58410  0.93390  0.64980  Biso   1.000  O
  O23      1.0000 0.91590  0.43390  0.85020  Biso   1.000  O
  O24      1.0000 0.41590  0.06610  0.35020  Biso   1.000  O
  O25      1.0000 0.08990  0.41960  0.04470  Biso   1.000  O
  O26      1.0000 0.58990  0.08040  0.54470  Biso   1.000  O
  O27      1.0000 0.91010  0.58040  0.95530  Biso   1.000  O
  O28      1.0000 0.41010  0.91960  0.45530  Biso   1.000  O
  N1       1.0000 0.59780  0.70060  0.96570  Biso   1.000  N
  N2       1.0000 0.09780  0.79940  0.46570  Biso   1.000  N
  N3       1.0000 0.40220  0.29940  0.03430  Biso   1.000  N
  N4       1.0000 0.90220  0.20060  0.53430  Biso   1.000  N
  H1       1.0000 0.60570  0.74750  0.98520  Biso   1.000  H
  H2       1.0000 0.10570  0.75250  0.48520  Biso   1.000  H
  H3       1.0000 0.39430  0.25250  0.01480  Biso   1.000  H
  H4       1.0000 0.89430  0.24750  0.51480  Biso   1.000  H
  H5       1.0000 0.66110  0.69400  0.93410  Biso   1.000  H
  H6       1.0000 0.16110  0.80600  0.43410  Biso   1.000  H
  H7       1.0000 0.33890  0.30600  0.06590  Biso   1.000  H
  H8       1.0000 0.83890  0.19400  0.56590  Biso   1.000  H
  N5       1.0000 0.61500  0.84460  0.03100  Biso   1.000  N
  N6       1.0000 0.11500  0.65540  0.53100  Biso   1.000  N
  N7       1.0000 0.38500  0.15540  0.96900  Biso   1.000  N
  N8       1.0000 0.88500  0.34460  0.46900  Biso   1.000  N
  H9       1.0000 0.69120  0.86280  0.01830  Biso   1.000  H
  H10      1.0000 0.19120  0.63720  0.51830  Biso   1.000  H
  H11      1.0000 0.30880  0.13720  0.98170  Biso   1.000  H
  H12      1.0000 0.80880  0.36280  0.48170  Biso   1.000  H
  H13      1.0000 0.59980  0.80020  0.00480  Biso   1.000  H
  H14      1.0000 0.09980  0.69980  0.50480  Biso   1.000  H
  H15      1.0000 0.40020  0.19980  0.99520  Biso   1.000  H
  H16      1.0000 0.90020  0.30020  0.49520  Biso   1.000  H
  N9       1.0000 0.81830  0.72800  0.87910  Biso   1.000  N
  N10      1.0000 0.31830  0.77200  0.37910  Biso   1.000  N
  N11      1.0000 0.18170  0.27200  0.12090  Biso   1.000  N
  N12      1.0000 0.68170  0.22800  0.62090  Biso   1.000  N
  N13      1.0000 0.83770  0.87960  0.95220  Biso   1.000  N
  N14      1.0000 0.33770  0.62040  0.45220  Biso   1.000  N
  N15      1.0000 0.16230  0.12040  0.04780  Biso   1.000  N
  N16      1.0000 0.66230  0.37960  0.54780  Biso   1.000  N
  C1       1.0000 0.47620  0.69370  0.91070  Biso   1.000  C
  C2       1.0000 0.97620  0.80630  0.41070  Biso   1.000  C
  C3       1.0000 0.52380  0.30630  0.08930  Biso   1.000  C
  C4       1.0000 0.02380  0.19370  0.58930  Biso   1.000  C
  H17      1.0000 0.45570  0.72260  0.86010  Biso   1.000  H
  H18      1.0000 0.95570  0.77740  0.36010  Biso   1.000  H
  H19      1.0000 0.54430  0.27740  0.13990  Biso   1.000  H
  H20      1.0000 0.04430  0.22260  0.63990  Biso   1.000  H
  C5       1.0000 0.37980  0.64520  0.92670  Biso   1.000  C
  C6       1.0000 0.87980  0.85480  0.42670  Biso   1.000  C
  C7       1.0000 0.62020  0.35480  0.07330  Biso   1.000  C
  C8       1.0000 0.12020  0.14520  0.57330  Biso   1.000  C
  H21      1.0000 0.29540  0.64160  0.88750  Biso   1.000  H
  H22      1.0000 0.79540  0.85840  0.38750  Biso   1.000  H
  H23      1.0000 0.70460  0.35840  0.11250  Biso   1.000  H
  H24      1.0000 0.20460  0.14160  0.61250  Biso   1.000  H
  C9       1.0000 0.40970  0.60200  0.00160  Biso   1.000  C
  C10      1.0000 0.90970  0.89800  0.50160  Biso   1.000  C
  C11      1.0000 0.59030  0.39800  0.99840  Biso   1.000  C
  C12      1.0000 0.09030  0.10200  0.49840  Biso   1.000  C
  C13      1.0000 0.53730  0.60750  0.05640  Biso   1.000  C
  C14      1.0000 0.03730  0.89250  0.55640  Biso   1.000  C
  C15      1.0000 0.46270  0.39250  0.94360  Biso   1.000  C
  C16      1.0000 0.96270  0.10750  0.44360  Biso   1.000  C
  H25      1.0000 0.56090  0.57850  0.10670  Biso   1.000  H
  H26      1.0000 0.06090  0.92150  0.60670  Biso   1.000  H
  H27      1.0000 0.43910  0.42150  0.89330  Biso   1.000  H
  H28      1.0000 0.93910  0.07850  0.39330  Biso   1.000  H
  C17      1.0000 0.62940  0.65630  0.03610  Biso   1.000  C
  C18      1.0000 0.12940  0.84370  0.53610  Biso   1.000  C
  C19      1.0000 0.37060  0.34370  0.96390  Biso   1.000  C
  C20      1.0000 0.87060  0.15630  0.46390  Biso   1.000  C
  H29      1.0000 0.71640  0.65870  0.07230  Biso   1.000  H
  H30      1.0000 0.21640  0.84130  0.57230  Biso   1.000  H
  H31      1.0000 0.28360  0.34130  0.92770  Biso   1.000  H
  H32      1.0000 0.78360  0.15870  0.42770  Biso   1.000  H
  C21      1.0000 0.30280  0.55240  0.02510  Biso   1.000  C
  C22      1.0000 0.80280  0.94760  0.52510  Biso   1.000  C
  C23      1.0000 0.69720  0.44760  0.97490  Biso   1.000  C
  C24      1.0000 0.19720  0.05240  0.47490  Biso   1.000  C
  C25      1.0000 0.64090  0.83350  0.11900  Biso   1.000  C
  C26      1.0000 0.14090  0.66650  0.61900  Biso   1.000  C
  C27      1.0000 0.35910  0.16650  0.88100  Biso   1.000  C
  C28      1.0000 0.85910  0.33350  0.38100  Biso   1.000  C
  H33      1.0000 0.71150  0.80220  0.14530  Biso   1.000  H
  H34      1.0000 0.21150  0.69780  0.64530  Biso   1.000  H
  H35      1.0000 0.28850  0.19780  0.85470  Biso   1.000  H
  H36      1.0000 0.78850  0.30220  0.35470  Biso   1.000  H
  C29      1.0000 0.56580  0.86740  0.17030  Biso   1.000  C
  C30      1.0000 0.06580  0.63260  0.67030  Biso   1.000  C
  C31      1.0000 0.43420  0.13260  0.82970  Biso   1.000  C
  C32      1.0000 0.93420  0.36740  0.32970  Biso   1.000  C
  H37      1.0000 0.58610  0.85980  0.23090  Biso   1.000  H
  H38      1.0000 0.08610  0.64020  0.73090  Biso   1.000  H
  H39      1.0000 0.41390  0.14020  0.76910  Biso   1.000  H
  H40      1.0000 0.91390  0.35980  0.26910  Biso   1.000  H
  C33      1.0000 0.45950  0.91280  0.13110  Biso   1.000  C
  C34      1.0000 0.95950  0.58720  0.63110  Biso   1.000  C
  C35      1.0000 0.54050  0.08720  0.86890  Biso   1.000  C
  C36      1.0000 0.04050  0.41280  0.36890  Biso   1.000  C
  C37      1.0000 0.43210  0.92340  0.04160  Biso   1.000  C
  C38      1.0000 0.93210  0.57660  0.54160  Biso   1.000  C
  C39      1.0000 0.56790  0.07660  0.95840  Biso   1.000  C
  C40      1.0000 0.06790  0.42340  0.45840  Biso   1.000  C
  H41      1.0000 0.36060  0.95350  0.01390  Biso   1.000  H
  H42      1.0000 0.86060  0.54650  0.51390  Biso   1.000  H
  H43      1.0000 0.63940  0.04650  0.98610  Biso   1.000  H
  H44      1.0000 0.13940  0.45350  0.48610  Biso   1.000  H
  C41      1.0000 0.51230  0.88870  0.99350  Biso   1.000  C
  C42      1.0000 0.01230  0.61130  0.49350  Biso   1.000  C
  C43      1.0000 0.48770  0.11130  0.00650  Biso   1.000  C
  C44      1.0000 0.98770  0.38870  0.50650  Biso   1.000  C
  H45      1.0000 0.49430  0.89620  0.93290  Biso   1.000  H
  H46      1.0000 0.99430  0.60380  0.43290  Biso   1.000  H
  H47      1.0000 0.50570  0.10380  0.06710  Biso   1.000  H
  H48      1.0000 0.00570  0.39620  0.56710  Biso   1.000  H
  C45      1.0000 0.37540  0.95220  0.18630  Biso   1.000  C
  C46      1.0000 0.87540  0.54780  0.68630  Biso   1.000  C
  C47      1.0000 0.62460  0.04780  0.81370  Biso   1.000  C
  C48      1.0000 0.12460  0.45220  0.31370  Biso   1.000  C
  C49      1.0000 0.96380  0.74110  0.88490  Biso   1.000  C
  C50      1.0000 0.46380  0.75890  0.38490  Biso   1.000  C
  C51      1.0000 0.03620  0.25890  0.11510  Biso   1.000  C
  C52      1.0000 0.53620  0.24110  0.61510  Biso   1.000  C
  H49      1.0000 0.99190  0.71070  0.84110  Biso   1.000  H
  H50      1.0000 0.49190  0.78930  0.34110  Biso   1.000  H
  H51      1.0000 0.00810  0.28930  0.15890  Biso   1.000  H
  H52      1.0000 0.50810  0.21070  0.65890  Biso   1.000  H
  H53      1.0000 0.01440  0.72490  0.94240  Biso   1.000  H
  H54      1.0000 0.51440  0.77510  0.44240  Biso   1.000  H
  H55      1.0000 0.98560  0.27510  0.05760  Biso   1.000  H
  H56      1.0000 0.48560  0.22490  0.55760  Biso   1.000  H
  C53      1.0000 0.00300  0.82110  0.87150  Biso   1.000  C
  C54      1.0000 0.50300  0.67890  0.37150  Biso   1.000  C
  C55      1.0000 0.99700  0.17890  0.12850  Biso   1.000  C
  C56      1.0000 0.49700  0.32110  0.62850  Biso   1.000  C
  C57      1.0000 0.98300  0.86950  0.94740  Biso   1.000  C
  C58      1.0000 0.48300  0.63050  0.44740  Biso   1.000  C
  C59      1.0000 0.01700  0.13050  0.05260  Biso   1.000  C
  C60      1.0000 0.51700  0.36950  0.55260  Biso   1.000  C
  H57      1.0000 0.03280  0.84800  0.00230  Biso   1.000  H
  H58      1.0000 0.53280  0.65200  0.50230  Biso   1.000  H
  H59      1.0000 0.96720  0.15200  0.99770  Biso   1.000  H
  H60      1.0000 0.46720  0.34800  0.49770  Biso   1.000  H
  H61      1.0000 0.02220  0.91760  0.94180  Biso   1.000  H
  H62      1.0000 0.52220  0.58240  0.44180  Biso   1.000  H
  H63      1.0000 0.97780  0.08240  0.05820  Biso   1.000  H
  H64      1.0000 0.47780  0.41760  0.55820  Biso   1.000  H
  C61      1.0000 0.15770  0.81960  0.87530  Biso   1.000  C
  C62      1.0000 0.65770  0.68040  0.37530  Biso   1.000  C
  C63      1.0000 0.84230  0.18040  0.12470  Biso   1.000  C
  C64      1.0000 0.34230  0.31960  0.62470  Biso   1.000  C
  H65      1.0000 0.18850  0.86860  0.86710  Biso   1.000  H
  H66      1.0000 0.68850  0.63140  0.36710  Biso   1.000  H
  H67      1.0000 0.81150  0.13140  0.13290  Biso   1.000  H
  H68      1.0000 0.31150  0.36860  0.63290  Biso   1.000  H
  H69      1.0000 0.17480  0.78810  0.82950  Biso   1.000  H
  H70      1.0000 0.67480  0.71190  0.32950  Biso   1.000  H
  H71      1.0000 0.82520  0.21190  0.17050  Biso   1.000  H
  H72      1.0000 0.32520  0.28810  0.67050  Biso   1.000  H
  H73      1.0000 0.20570  0.80110  0.93160  Biso   1.000  H
  H74      1.0000 0.70570  0.69890  0.43160  Biso   1.000  H
  H75      1.0000 0.79430  0.19890  0.06840  Biso   1.000  H
  H76      1.0000 0.29430  0.30110  0.56840  Biso   1.000  H
  C65      1.0000 0.92540  0.85130  0.78330  Biso   1.000  C
  C66      1.0000 0.42540  0.64870  0.28330  Biso   1.000  C
  C67      1.0000 0.07460  0.14870  0.21670  Biso   1.000  C
  C68      1.0000 0.57460  0.35130  0.71670  Biso   1.000  C
  H77      1.0000 0.95220  0.90140  0.77710  Biso   1.000  H
  H78      1.0000 0.45220  0.59860  0.27710  Biso   1.000  H
  H79      1.0000 0.04780  0.09860  0.22290  Biso   1.000  H
  H80      1.0000 0.54780  0.40140  0.72290  Biso   1.000  H
  H81      1.0000 0.82960  0.84940  0.78050  Biso   1.000  H
  H82      1.0000 0.32960  0.65060  0.28050  Biso   1.000  H
  H83      1.0000 0.17040  0.15060  0.21950  Biso   1.000  H
  H84      1.0000 0.67040  0.34940  0.71950  Biso   1.000  H
  H85      1.0000 0.94540  0.82200  0.73650  Biso   1.000  H
  H86      1.0000 0.44540  0.67800  0.23650  Biso   1.000  H
  H87      1.0000 0.05460  0.17800  0.26350  Biso   1.000  H
  H88      1.0000 0.55460  0.32200  0.76350  Biso   1.000  H
  N17      1.0000 0.15280  0.02980  0.82380  Biso   1.000  N
  N18      1.0000 0.65280  0.47020  0.32380  Biso   1.000  N
  N19      1.0000 0.84720  0.97020  0.17620  Biso   1.000  N
  N20      1.0000 0.34720  0.52980  0.67620  Biso   1.000  N
  N21      1.0000 0.83320  0.24780  0.85570  Biso   1.000  N
  N22      1.0000 0.33320  0.25220  0.35570  Biso   1.000  N
  N23      1.0000 0.16680  0.75220  0.14430  Biso   1.000  N
  N24      1.0000 0.66680  0.74780  0.64430  Biso   1.000  N
  O29      1.0000 0.11330  0.03350  0.74250  Biso   1.000  O
  O30      1.0000 0.61330  0.46650  0.24250  Biso   1.000  O
  O31      1.0000 0.88670  0.96650  0.25750  Biso   1.000  O
  O32      1.0000 0.38670  0.53350  0.75750  Biso   1.000  O
  O33      1.0000 0.25760  0.99590  0.85490  Biso   1.000  O
  O34      1.0000 0.75760  0.50410  0.35490  Biso   1.000  O
  O35      1.0000 0.74240  0.00410  0.14510  Biso   1.000  O
  O36      1.0000 0.24240  0.49590  0.64510  Biso   1.000  O
  O37      1.0000 0.08590  0.05940  0.87010  Biso   1.000  O
  O38      1.0000 0.58590  0.44060  0.37010  Biso   1.000  O
  O39      1.0000 0.91410  0.94060  0.12990  Biso   1.000  O
  O40      1.0000 0.41410  0.55940  0.62990  Biso   1.000  O
  O41      1.0000 0.85000  0.29610  0.90600  Biso   1.000  O
  O42      1.0000 0.35000  0.20390  0.40600  Biso   1.000  O
  O43      1.0000 0.15000  0.70390  0.09400  Biso   1.000  O
  O44      1.0000 0.65000  0.79610  0.59400  Biso   1.000  O
  O45      1.0000 0.79560  0.18850  0.85050  Biso   1.000  O
  O46      1.0000 0.29560  0.31150  0.35050  Biso   1.000  O
  O47      1.0000 0.20440  0.81150  0.14950  Biso   1.000  O
  O48      1.0000 0.70440  0.68850  0.64950  Biso   1.000  O
  O49      1.0000 0.87690  0.26080  0.79000  Biso   1.000  O
  O50      1.0000 0.37690  0.23920  0.29000  Biso   1.000  O
  O51      1.0000 0.12310  0.73920  0.21000  Biso   1.000  O
  O52      1.0000 0.62310  0.76080  0.71000  Biso   1.000  O
  O53      1.0000 0.65640  0.04860  0.30340  Biso   1.000  O
  O54      1.0000 0.15640  0.45140  0.80340  Biso   1.000  O
  O55      1.0000 0.34360  0.95140  0.69660  Biso   1.000  O
  O56      1.0000 0.84360  0.54860  0.19660  Biso   1.000  O
  O57      1.0000 0.63040  0.20860  0.27880  Biso   1.000  O
  O58      1.0000 0.13040  0.29140  0.77880  Biso   1.000  O
  O59      1.0000 0.36960  0.79140  0.72120  Biso   1.000  O
  O60      1.0000 0.86960  0.70860  0.22120  Biso   1.000  O
