data_image0
_cell_length_a       10.34
_cell_length_b       11.737
_cell_length_c       12.916
_cell_angle_alpha    95.039
_cell_angle_beta     113.367
_cell_angle_gamma    98.987

_symmetry_space_group_name_H-M    "P 1"
_symmetry_int_tables_number       1

loop_
  _symmetry_equiv_pos_as_xyz
  'x, y, z'

loop_
  _atom_site_label
  _atom_site_occupancy
  _atom_site_fract_x
  _atom_site_fract_y
  _atom_site_fract_z
  _atom_site_thermal_displace_type
  _atom_site_B_iso_or_equiv
  _atom_site_type_symbol
  C1       1.0000 0.65600  0.96550  0.69020  Biso   1.000  C
  C2       1.0000 0.34400  0.03450  0.30980  Biso   1.000  C
  H1       1.0000 0.75570  0.95740  0.71060  Biso   1.000  H
  H2       1.0000 0.24430  0.04260  0.28940  Biso   1.000  H
  H3       1.0000 0.60170  0.94660  0.60690  Biso   1.000  H
  H4       1.0000 0.39830  0.05340  0.39310  Biso   1.000  H
  H5       1.0000 0.61160  0.91180  0.72650  Biso   1.000  H
  H6       1.0000 0.38840  0.08820  0.27350  Biso   1.000  H
  C3       1.0000 0.49780  0.09990  0.69760  Biso   1.000  C
  C4       1.0000 0.50220  0.90010  0.30240  Biso   1.000  C
  H7       1.0000 0.45440  0.04590  0.73430  Biso   1.000  H
  H8       1.0000 0.54560  0.95410  0.26570  Biso   1.000  H
  H9       1.0000 0.44450  0.07950  0.61440  Biso   1.000  H
  H10      1.0000 0.55550  0.92050  0.38560  Biso   1.000  H
  H11      1.0000 0.49380  0.18010  0.72250  Biso   1.000  H
  H12      1.0000 0.50620  0.81990  0.27750  Biso   1.000  H
  C5       1.0000 0.73710  0.12280  0.85970  Biso   1.000  C
  C6       1.0000 0.26290  0.87720  0.14030  Biso   1.000  C
  H13      1.0000 0.69020  0.07240  0.89690  Biso   1.000  H
  H14      1.0000 0.30980  0.92760  0.10310  Biso   1.000  H
  H15      1.0000 0.73860  0.20470  0.88370  Biso   1.000  H
  H16      1.0000 0.26140  0.79530  0.11630  Biso   1.000  H
  H17      1.0000 0.83610  0.11200  0.88160  Biso   1.000  H
  H18      1.0000 0.16390  0.88800  0.11840  Biso   1.000  H
  C7       1.0000 0.65450  0.09080  0.73130  Biso   1.000  C
  C8       1.0000 0.34550  0.90920  0.26870  Biso   1.000  C
  C9       1.0000 0.73240  0.17170  0.67710  Biso   1.000  C
  C10      1.0000 0.26760  0.82830  0.32290  Biso   1.000  C
  C11      1.0000 0.65930  0.23800  0.59760  Biso   1.000  C
  C12      1.0000 0.34070  0.76200  0.40240  Biso   1.000  C
  H19      1.0000 0.55970  0.23280  0.57860  Biso   1.000  H
  H20      1.0000 0.44030  0.76720  0.42140  Biso   1.000  H
  C13      1.0000 0.72320  0.31170  0.54410  Biso   1.000  C
  C14      1.0000 0.27680  0.68830  0.45590  Biso   1.000  C
  C15      1.0000 0.63460  0.37710  0.45700  Biso   1.000  C
  C16      1.0000 0.36540  0.62290  0.54300  Biso   1.000  C
  C17      1.0000 0.70560  0.45630  0.41310  Biso   1.000  C
  C18      1.0000 0.29440  0.54370  0.58690  Biso   1.000  C
  H21      1.0000 0.80710  0.46660  0.43930  Biso   1.000  H
  H22      1.0000 0.19290  0.53340  0.56070  Biso   1.000  H
  C19      1.0000 0.63230  0.52100  0.33210  Biso   1.000  C
  C20      1.0000 0.36770  0.47900  0.66790  Biso   1.000  C
  C21      1.0000 0.48290  0.50770  0.29620  Biso   1.000  C
  C22      1.0000 0.51710  0.49230  0.70380  Biso   1.000  C
  H23      1.0000 0.43120  0.55250  0.24240  Biso   1.000  H
  H24      1.0000 0.56880  0.44750  0.75760  Biso   1.000  H
  C23      1.0000 0.41180  0.42970  0.33920  Biso   1.000  C
  C24      1.0000 0.58820  0.57030  0.66080  Biso   1.000  C
  H25      1.0000 0.31060  0.42100  0.31440  Biso   1.000  H
  H26      1.0000 0.68940  0.57900  0.68560  Biso   1.000  H
  C25      1.0000 0.48460  0.36390  0.41780  Biso   1.000  C
  C26      1.0000 0.51540  0.63610  0.58220  Biso   1.000  C
  H27      1.0000 0.43310  0.30940  0.44540  Biso   1.000  H
  H28      1.0000 0.56690  0.69060  0.55460  Biso   1.000  H
  C27      1.0000 0.71810  0.60270  0.28820  Biso   1.000  C
  C28      1.0000 0.28190  0.39730  0.71180  Biso   1.000  C
  C29      1.0000 0.64840  0.64410  0.18630  Biso   1.000  C
  C30      1.0000 0.35160  0.35590  0.81370  Biso   1.000  C
  H29      1.0000 0.54670  0.61970  0.14720  Biso   1.000  H
  H30      1.0000 0.45330  0.38030  0.85280  Biso   1.000  H
  C31      1.0000 0.72010  0.71930  0.13890  Biso   1.000  C
  C32      1.0000 0.27990  0.28070  0.86110  Biso   1.000  C
  C33      1.0000 0.63860  0.75590  0.02330  Biso   1.000  C
  C34      1.0000 0.36140  0.24410  0.97670  Biso   1.000  C
  C35      1.0000 0.63660  0.88570  0.04620  Biso   1.000  C
  C36      1.0000 0.36340  0.11430  0.95380  Biso   1.000  C
  H31      1.0000 0.58790  0.89700  0.09660  Biso   1.000  H
  H32      1.0000 0.41210  0.10300  0.90340  Biso   1.000  H
  H33      1.0000 0.58490  0.91170  0.97370  Biso   1.000  H
  H34      1.0000 0.41510  0.08830  0.02630  Biso   1.000  H
  H35      1.0000 0.73570  0.93130  0.08300  Biso   1.000  H
  H36      1.0000 0.26430  0.06870  0.91700  Biso   1.000  H
  C37      1.0000 0.72170  0.74070  0.95050  Biso   1.000  C
  C38      1.0000 0.27830  0.25930  0.04950  Biso   1.000  C
  H37      1.0000 0.81580  0.79450  0.98620  Biso   1.000  H
  H38      1.0000 0.18420  0.20550  0.01380  Biso   1.000  H
  H39      1.0000 0.66740  0.75760  0.87400  Biso   1.000  H
  H40      1.0000 0.33260  0.24240  0.12600  Biso   1.000  H
  H41      1.0000 0.73540  0.66000  0.94430  Biso   1.000  H
  H42      1.0000 0.26460  0.34000  0.05570  Biso   1.000  H
  C39      1.0000 0.48410  0.68750  0.95930  Biso   1.000  C
  C40      1.0000 0.51590  0.31250  0.04070  Biso   1.000  C
  H43      1.0000 0.48330  0.60360  0.95110  Biso   1.000  H
  H44      1.0000 0.51670  0.39640  0.04890  Biso   1.000  H
  H45      1.0000 0.44170  0.70970  0.88340  Biso   1.000  H
  H46      1.0000 0.55830  0.29030  0.11660  Biso   1.000  H
  H47      1.0000 0.42800  0.70520  0.00220  Biso   1.000  H
  H48      1.0000 0.57200  0.29480  0.99780  Biso   1.000  H
  C41      1.0000 0.12810  0.95860  0.52010  Biso   1.000  C
  C42      1.0000 0.87190  0.04140  0.47990  Biso   1.000  C
  H49      1.0000 0.19860  0.91350  0.56420  Biso   1.000  H
  H50      1.0000 0.80140  0.08650  0.43580  Biso   1.000  H
  H51      1.0000 0.16340  0.99380  0.46680  Biso   1.000  H
  H52      1.0000 0.83660  0.00620  0.53320  Biso   1.000  H
  C43      1.0000 0.87920  0.94430  0.39800  Biso   1.000  C
  C44      1.0000 0.12080  0.05570  0.60200  Biso   1.000  C
  H53      1.0000 0.78420  0.88980  0.36110  Biso   1.000  H
  H54      1.0000 0.21580  0.11020  0.63890  Biso   1.000  H
  H55      1.0000 0.89920  0.97870  0.33730  Biso   1.000  H
  H56      1.0000 0.10080  0.02130  0.66270  Biso   1.000  H
  C45      1.0000 0.86500  0.30150  0.27150  Biso   1.000  C
  C46      1.0000 0.13500  0.69850  0.72850  Biso   1.000  C
  H57      1.0000 0.83320  0.36710  0.23160  Biso   1.000  H
  H58      1.0000 0.16680  0.63290  0.76840  Biso   1.000  H
  H59      1.0000 0.80230  0.27690  0.31030  Biso   1.000  H
  H60      1.0000 0.19770  0.72310  0.68970  Biso   1.000  H
  C47      1.0000 0.01970  0.33600  0.35510  Biso   1.000  C
  C48      1.0000 0.98030  0.66400  0.64490  Biso   1.000  C
  H61      1.0000 0.07150  0.40070  0.33280  Biso   1.000  H
  H62      1.0000 0.92850  0.59930  0.66720  Biso   1.000  H
  H63      1.0000 0.02770  0.36160  0.43290  Biso   1.000  H
  H64      1.0000 0.97230  0.63840  0.56710  Biso   1.000  H
  O1       1.0000 0.07760  0.23360  0.35160  Biso   1.000  O
  O2       1.0000 0.92240  0.76640  0.64840  Biso   1.000  O
  C49      1.0000 0.01100  0.18130  0.23340  Biso   1.000  C
  C50      1.0000 0.98900  0.81870  0.76660  Biso   1.000  C
  H65      1.0000 0.01070  0.09660  0.22520  Biso   1.000  H
  H66      1.0000 0.98930  0.90340  0.77480  Biso   1.000  H
  H67      1.0000 0.06330  0.21840  0.19130  Biso   1.000  H
  H68      1.0000 0.93670  0.78160  0.80870  Biso   1.000  H
  C51      1.0000 0.86170  0.20060  0.18890  Biso   1.000  C
  C52      1.0000 0.13830  0.79940  0.81110  Biso   1.000  C
  H69      1.0000 0.79370  0.12980  0.18640  Biso   1.000  H
  H70      1.0000 0.20630  0.87020  0.81360  Biso   1.000  H
  H71      1.0000 0.83200  0.22030  0.11090  Biso   1.000  H
  H72      1.0000 0.16800  0.77970  0.88910  Biso   1.000  H
  C53      1.0000 0.06470  0.55190  0.11150  Biso   1.000  C
  C54      1.0000 0.93530  0.44810  0.88850  Biso   1.000  C
  H73      1.0000 0.05900  0.63510  0.12390  Biso   1.000  H
  H74      1.0000 0.94100  0.36490  0.87610  Biso   1.000  H
  H75      1.0000 0.11010  0.53060  0.18840  Biso   1.000  H
  H76      1.0000 0.88990  0.46940  0.81160  Biso   1.000  H
  C55      1.0000 0.91230  0.48380  0.05950  Biso   1.000  C
  C56      1.0000 0.08770  0.51620  0.94050  Biso   1.000  C
  H77      1.0000 0.91230  0.41060  0.09210  Biso   1.000  H
  H78      1.0000 0.08770  0.58940  0.90790  Biso   1.000  H
  H79      1.0000 0.85590  0.52930  0.08690  Biso   1.000  H
  H80      1.0000 0.14410  0.47070  0.91310  Biso   1.000  H
  N1       1.0000 0.83410  0.45180  0.93790  Biso   1.000  N
  N2       1.0000 0.16590  0.54820  0.06210  Biso   1.000  N
  N3       1.0000 0.98950  0.87860  0.45380  Biso   1.000  N
  N4       1.0000 0.01050  0.12140  0.54620  Biso   1.000  N
  H81      1.0000 0.95600  0.84700  0.50100  Biso   1.000  H
  H82      1.0000 0.04400  0.15300  0.49900  Biso   1.000  H
  O3       1.0000 0.86510  0.16978  0.71088  Biso   1.000  O
  O4       1.0000 0.13490  0.83022  0.28912  Biso   1.000  O
  O5       1.0000 0.85560  0.32869  0.56267  Biso   1.000  O
  O6       1.0000 0.14440  0.67131  0.43733  Biso   1.000  O
  O7       1.0000 0.85320  0.62552  0.34849  Biso   1.000  O
  O8       1.0000 0.14680  0.37448  0.65151  Biso   1.000  O
  O9       1.0000 0.85310  0.76494  0.18594  Biso   1.000  O
  O10      1.0000 0.14690  0.23506  0.81406  Biso   1.000  O
  Cu1      1.0000 0.00404  0.26409  0.67301  Biso   1.000  Cu
  Cu2      1.0000 0.99596  0.73591  0.32699  Biso   1.000  Cu
