data_image0
_cell_length_a       8.538
_cell_length_b       9.248
_cell_length_c       10.687
_cell_angle_alpha    67.73
_cell_angle_beta     63.28
_cell_angle_gamma    74.08

_symmetry_space_group_name_H-M    "P 1"
_symmetry_int_tables_number       1

loop_
  _symmetry_equiv_pos_as_xyz
  'x, y, z'

loop_
  _atom_site_label
  _atom_site_occupancy
  _atom_site_fract_x
  _atom_site_fract_y
  _atom_site_fract_z
  _atom_site_thermal_displace_type
  _atom_site_B_iso_or_equiv
  _atom_site_type_symbol
  Cu1      1.0000 0.99458  0.24436  0.46240  Biso   1.000  Cu
  Cu2      1.0000 0.00542  0.75564  0.53760  Biso   1.000  Cu
  Mn1      1.0000 0.25715  0.14548  0.92865  Biso   1.000  Mn
  Mn2      1.0000 0.74285  0.85452  0.07135  Biso   1.000  Mn
  O1       1.0000 0.33180  0.20960  0.06730  Biso   1.000  O
  O2       1.0000 0.66820  0.79040  0.93270  Biso   1.000  O
  O3       1.0000 0.02260  0.11760  0.13480  Biso   1.000  O
  O4       1.0000 0.97740  0.88240  0.86520  Biso   1.000  O
  O5       1.0000 0.09390  0.32010  0.55660  Biso   1.000  O
  O6       1.0000 0.90610  0.67990  0.44340  Biso   1.000  O
  O7       1.0000 0.80070  0.17180  0.64890  Biso   1.000  O
  O8       1.0000 0.19930  0.82820  0.35110  Biso   1.000  O
  O9       1.0000 0.22270  0.49310  0.56240  Biso   1.000  O
  O10      1.0000 0.77730  0.50690  0.43760  Biso   1.000  O
  O11      1.0000 0.52190  0.14560  0.78470  Biso   1.000  O
  O12      1.0000 0.47810  0.85440  0.21530  Biso   1.000  O
  O13      1.0000 0.31050  0.88130  0.01360  Biso   1.000  O
  O14      1.0000 0.68950  0.11870  0.98640  Biso   1.000  O
  O15      1.0000 0.17380  0.40430  0.84740  Biso   1.000  O
  O16      1.0000 0.82620  0.59570  0.15260  Biso   1.000  O
  O17      1.0000 0.13220  0.12550  0.80650  Biso   1.000  O
  O18      1.0000 0.86780  0.87450  0.19350  Biso   1.000  O
  O19      1.0000 0.20710  0.59260  0.98540  Biso   1.000  O
  O20      1.0000 0.79290  0.40740  0.01460  Biso   1.000  O
  N1       1.0000 0.20600  0.27140  0.28560  Biso   1.000  N
  N2       1.0000 0.79400  0.72860  0.71440  Biso   1.000  N
  N3       1.0000 0.91640  0.16620  0.35810  Biso   1.000  N
  N4       1.0000 0.08360  0.83380  0.64190  Biso   1.000  N
  C1       1.0000 0.03350  0.16170  0.22920  Biso   1.000  C
  C2       1.0000 0.96650  0.83830  0.77080  Biso   1.000  C
  C3       1.0000 0.20710  0.21920  0.18840  Biso   1.000  C
  C4       1.0000 0.79290  0.78080  0.81160  Biso   1.000  C
  C5       1.0000 0.35920  0.33670  0.25940  Biso   1.000  C
  C6       1.0000 0.64080  0.66330  0.74060  Biso   1.000  C
  C7       1.0000 0.30020  0.47030  0.32660  Biso   1.000  C
  C8       1.0000 0.69980  0.52970  0.67340  Biso   1.000  C
  C9       1.0000 0.20080  0.42520  0.49260  Biso   1.000  C
  C10      1.0000 0.79920  0.57480  0.50740  Biso   1.000  C
  C11      1.0000 0.74570  0.11090  0.41640  Biso   1.000  C
  C12      1.0000 0.25430  0.88910  0.58360  Biso   1.000  C
  C13      1.0000 0.60740  0.19190  0.52920  Biso   1.000  C
  C14      1.0000 0.39260  0.80810  0.47080  Biso   1.000  C
  C15      1.0000 0.64590  0.16700  0.66200  Biso   1.000  C
  C16      1.0000 0.35410  0.83300  0.33800  Biso   1.000  C
  H1       1.0000 0.41800  0.37400  0.16200  Biso   1.000  H
  H2       1.0000 0.58200  0.62600  0.83800  Biso   1.000  H
  H3       1.0000 0.44000  0.25900  0.29600  Biso   1.000  H
  H4       1.0000 0.56000  0.74100  0.70400  Biso   1.000  H
  H5       1.0000 0.22800  0.54600  0.28400  Biso   1.000  H
  H6       1.0000 0.77200  0.45400  0.71600  Biso   1.000  H
  H7       1.0000 0.40100  0.51800  0.29700  Biso   1.000  H
  H8       1.0000 0.59900  0.48200  0.70300  Biso   1.000  H
  H9       1.0000 0.75400  0.99600  0.46400  Biso   1.000  H
  H10      1.0000 0.24600  0.00400  0.53600  Biso   1.000  H
  H11      1.0000 0.70400  0.13400  0.34100  Biso   1.000  H
  H12      1.0000 0.29600  0.86600  0.65900  Biso   1.000  H
  H13      1.0000 0.59300  0.30100  0.48400  Biso   1.000  H
  H14      1.0000 0.40700  0.69900  0.51600  Biso   1.000  H
  H15      1.0000 0.49700  0.15700  0.55800  Biso   1.000  H
  H16      1.0000 0.50300  0.84300  0.44200  Biso   1.000  H
  H17      1.0000 0.27700  0.86900  0.09300  Biso   1.000  H
  H18      1.0000 0.72300  0.13100  0.90700  Biso   1.000  H
  H19      1.0000 0.40100  0.85700  0.98500  Biso   1.000  H
  H20      1.0000 0.59900  0.14300  0.01500  Biso   1.000  H
  H21      1.0000 0.18100  0.43200  0.77300  Biso   1.000  H
  H22      1.0000 0.81900  0.56800  0.22700  Biso   1.000  H
  H23      1.0000 0.20600  0.45200  0.86600  Biso   1.000  H
  H24      1.0000 0.79400  0.54800  0.13400  Biso   1.000  H
  H25      1.0000 0.10500  0.19200  0.74100  Biso   1.000  H
  H26      1.0000 0.89500  0.80800  0.25900  Biso   1.000  H
  H27      1.0000 0.09800  0.05400  0.82200  Biso   1.000  H
  H28      1.0000 0.90200  0.94600  0.17800  Biso   1.000  H
  H29      1.0000 0.10400  0.59700  0.04000  Biso   1.000  H
  H30      1.0000 0.89600  0.40300  0.96000  Biso   1.000  H
  H31      1.0000 0.22400  0.67800  0.96300  Biso   1.000  H
  H32      1.0000 0.77600  0.32200  0.03700  Biso   1.000  H
