data_image0
_cell_length_a       8.689
_cell_length_b       8.9998
_cell_length_c       7.6978
_cell_angle_alpha    90
_cell_angle_beta     111.448
_cell_angle_gamma    90

_symmetry_space_group_name_H-M    "P 1"
_symmetry_int_tables_number       1

loop_
  _symmetry_equiv_pos_as_xyz
  'x, y, z'

loop_
  _atom_site_label
  _atom_site_occupancy
  _atom_site_fract_x
  _atom_site_fract_y
  _atom_site_fract_z
  _atom_site_thermal_displace_type
  _atom_site_B_iso_or_equiv
  _atom_site_type_symbol
  Cu1      1.0000 0.00000  0.00000  0.00000  Biso   1.000  Cu
  Cu2      1.0000 0.00000  0.50000  0.50000  Biso   1.000  Cu
  O1       1.0000 0.97625  0.74028  0.05810  Biso   1.000  O
  O2       1.0000 0.02375  0.24028  0.44190  Biso   1.000  O
  O3       1.0000 0.02375  0.25972  0.94190  Biso   1.000  O
  O4       1.0000 0.97625  0.75972  0.55810  Biso   1.000  O
  O5       1.0000 0.97420  0.56261  0.24620  Biso   1.000  O
  O6       1.0000 0.02580  0.06261  0.25380  Biso   1.000  O
  O7       1.0000 0.02580  0.43739  0.75380  Biso   1.000  O
  O8       1.0000 0.97420  0.93739  0.74620  Biso   1.000  O
  N1       1.0000 0.48300  0.58230  0.70700  Biso   1.000  N
  N2       1.0000 0.51700  0.08230  0.79300  Biso   1.000  N
  N3       1.0000 0.51700  0.41770  0.29300  Biso   1.000  N
  N4       1.0000 0.48300  0.91770  0.20700  Biso   1.000  N
  N5       1.0000 0.36160  0.49965  0.71380  Biso   1.000  N
  N6       1.0000 0.63840  0.99965  0.78620  Biso   1.000  N
  N7       1.0000 0.63840  0.50035  0.28620  Biso   1.000  N
  N8       1.0000 0.36160  0.00035  0.21380  Biso   1.000  N
  N9       1.0000 0.44530  0.67020  0.55760  Biso   1.000  N
  N10      1.0000 0.55470  0.17020  0.94240  Biso   1.000  N
  N11      1.0000 0.55470  0.32980  0.44240  Biso   1.000  N
  N12      1.0000 0.44530  0.82980  0.05760  Biso   1.000  N
  N13      1.0000 0.05180  0.67190  0.20560  Biso   1.000  N
  N14      1.0000 0.94820  0.17190  0.29440  Biso   1.000  N
  N15      1.0000 0.94820  0.32810  0.79440  Biso   1.000  N
  N16      1.0000 0.05180  0.82810  0.70560  Biso   1.000  N
  N17      1.0000 0.20260  0.71280  0.30320  Biso   1.000  N
  N18      1.0000 0.79740  0.21280  0.19680  Biso   1.000  N
  N19      1.0000 0.79740  0.28720  0.69680  Biso   1.000  N
  N20      1.0000 0.20260  0.78720  0.80320  Biso   1.000  N
  N21      1.0000 0.23400  0.53340  0.55910  Biso   1.000  N
  N22      1.0000 0.76600  0.03340  0.94090  Biso   1.000  N
  N23      1.0000 0.76600  0.46660  0.44090  Biso   1.000  N
  N24      1.0000 0.23400  0.96660  0.05910  Biso   1.000  N
  C1       1.0000 0.64550  0.58420  0.85740  Biso   1.000  C
  C2       1.0000 0.35450  0.08420  0.64260  Biso   1.000  C
  C3       1.0000 0.35450  0.41580  0.14260  Biso   1.000  C
  C4       1.0000 0.64550  0.91580  0.35740  Biso   1.000  C
  C5       1.0000 0.28610  0.63760  0.46610  Biso   1.000  C
  C6       1.0000 0.71390  0.13760  0.03390  Biso   1.000  C
  C7       1.0000 0.71390  0.36240  0.53390  Biso   1.000  C
  C8       1.0000 0.28610  0.86240  0.96610  Biso   1.000  C
  H1       1.0000 0.67300  0.48400  0.90900  Biso   1.000  H
  H2       1.0000 0.32700  0.98400  0.59100  Biso   1.000  H
  H3       1.0000 0.32700  0.51600  0.09100  Biso   1.000  H
  H4       1.0000 0.67300  0.01600  0.40900  Biso   1.000  H
  H5       1.0000 0.71800  0.59900  0.80700  Biso   1.000  H
  H6       1.0000 0.28200  0.09900  0.69300  Biso   1.000  H
  H7       1.0000 0.28200  0.40100  0.19300  Biso   1.000  H
  H8       1.0000 0.71800  0.90100  0.30700  Biso   1.000  H
  H9       1.0000 0.64500  0.65300  0.94100  Biso   1.000  H
  H10      1.0000 0.35500  0.15300  0.55900  Biso   1.000  H
  H11      1.0000 0.35500  0.34700  0.05900  Biso   1.000  H
  H12      1.0000 0.64500  0.84700  0.44100  Biso   1.000  H
