data_image0
_cell_length_a       9.577
_cell_length_b       11.739
_cell_length_c       7.765
_cell_angle_alpha    72
_cell_angle_beta     75.6
_cell_angle_gamma    70.83

_symmetry_space_group_name_H-M    "P 1"
_symmetry_int_tables_number       1

loop_
  _symmetry_equiv_pos_as_xyz
  'x, y, z'

loop_
  _atom_site_label
  _atom_site_occupancy
  _atom_site_fract_x
  _atom_site_fract_y
  _atom_site_fract_z
  _atom_site_thermal_displace_type
  _atom_site_B_iso_or_equiv
  _atom_site_type_symbol
  Cu1      1.0000 0.50000  0.50000  0.50000  Biso   1.000  Cu
  Cu2      1.0000 0.32877  0.02289  0.55089  Biso   1.000  Cu
  Cu3      1.0000 0.67123  0.97711  0.44911  Biso   1.000  Cu
  Cu4      1.0000 0.48544  0.25667  0.36696  Biso   1.000  Cu
  Cu5      1.0000 0.51456  0.74333  0.63304  Biso   1.000  Cu
  O1       1.0000 0.43710  0.43530  0.34370  Biso   1.000  O
  O2       1.0000 0.56290  0.56470  0.65630  Biso   1.000  O
  O3       1.0000 0.48620  0.08200  0.34820  Biso   1.000  O
  O4       1.0000 0.51380  0.91800  0.65180  Biso   1.000  O
  N1       1.0000 0.39240  0.30940  0.15600  Biso   1.000  N
  N2       1.0000 0.60760  0.69060  0.84400  Biso   1.000  N
  O5       1.0000 0.34650  0.65710  0.42880  Biso   1.000  O
  O6       1.0000 0.65350  0.34290  0.57120  Biso   1.000  O
  O7       1.0000 0.41580  0.82210  0.42300  Biso   1.000  O
  O8       1.0000 0.58420  0.17790  0.57700  Biso   1.000  O
  O9       1.0000 0.18240  0.96870  0.75290  Biso   1.000  O
  O10      1.0000 0.81760  0.03130  0.24710  Biso   1.000  O
  O11      1.0000 0.28210  0.76380  0.81030  Biso   1.000  O
  O12      1.0000 0.71790  0.23620  0.18970  Biso   1.000  O
  O13      1.0000 0.16890  0.13780  0.41980  Biso   1.000  O
  O14      1.0000 0.83110  0.86220  0.58020  Biso   1.000  O
  C1       1.0000 0.34430  0.50940  0.21070  Biso   1.000  C
  C2       1.0000 0.65570  0.49060  0.78930  Biso   1.000  C
  C3       1.0000 0.33400  0.43150  0.09260  Biso   1.000  C
  C4       1.0000 0.66600  0.56850  0.90740  Biso   1.000  C
  C5       1.0000 0.27000  0.47440  0.93560  Biso   1.000  C
  C6       1.0000 0.73000  0.52560  0.06440  Biso   1.000  C
  C7       1.0000 0.26540  0.38890  0.85050  Biso   1.000  C
  C8       1.0000 0.73460  0.61110  0.14950  Biso   1.000  C
  C9       1.0000 0.32570  0.26210  0.92010  Biso   1.000  C
  C10      1.0000 0.67430  0.73790  0.07990  Biso   1.000  C
  C11      1.0000 0.39210  0.22430  0.07430  Biso   1.000  C
  C12      1.0000 0.60790  0.77570  0.92570  Biso   1.000  C
  C13      1.0000 0.47090  0.09270  0.16500  Biso   1.000  C
  C14      1.0000 0.52910  0.90730  0.83500  Biso   1.000  C
  C15      1.0000 0.33130  0.77180  0.38840  Biso   1.000  C
  C16      1.0000 0.66870  0.22820  0.61160  Biso   1.000  C
  C17      1.0000 0.20210  0.85720  0.29470  Biso   1.000  C
  C18      1.0000 0.79790  0.14280  0.70530  Biso   1.000  C
  H1       1.0000 0.13610  0.90940  0.37220  Biso   1.000  H
  H2       1.0000 0.86390  0.09060  0.62780  Biso   1.000  H
  H3       1.0000 0.14860  0.80870  0.27120  Biso   1.000  H
  H4       1.0000 0.85140  0.19130  0.72880  Biso   1.000  H
  H5       1.0000 0.23890  0.90810  0.18070  Biso   1.000  H
  H6       1.0000 0.76110  0.09190  0.81930  Biso   1.000  H
  C19      1.0000 0.17730  0.85620  0.82680  Biso   1.000  C
  C20      1.0000 0.82270  0.14380  0.17320  Biso   1.000  C
  C21      1.0000 0.02880  0.83930  0.93690  Biso   1.000  C
  C22      1.0000 0.97120  0.16070  0.06310  Biso   1.000  C
  H7       1.0000 0.96380  0.84640  0.85550  Biso   1.000  H
  H8       1.0000 0.03620  0.15360  0.14450  Biso   1.000  H
  H9       1.0000 0.98390  0.90220  0.00420  Biso   1.000  H
  H10      1.0000 0.01610  0.09780  0.99580  Biso   1.000  H
  H11      1.0000 0.04400  0.75850  0.02100  Biso   1.000  H
  H12      1.0000 0.95600  0.24150  0.97900  Biso   1.000  H
  O15      1.0000 0.21890  0.25110  0.56330  Biso   1.000  O
  O16      1.0000 0.78110  0.74890  0.43670  Biso   1.000  O
  C23      1.0000 0.14460  0.23950  0.46490  Biso   1.000  C
  C24      1.0000 0.85540  0.76050  0.53510  Biso   1.000  C
  C25      1.0000 0.02040  0.34720  0.38710  Biso   1.000  C
  C26      1.0000 0.97960  0.65280  0.61290  Biso   1.000  C
  H13      1.0000 0.03890  0.36290  0.25570  Biso   1.000  H
  H14      1.0000 0.96110  0.63710  0.74430  Biso   1.000  H
  H15      1.0000 0.01670  0.42000  0.42160  Biso   1.000  H
  H16      1.0000 0.98330  0.58000  0.57840  Biso   1.000  H
  H17      1.0000 0.92640  0.32710  0.43450  Biso   1.000  H
  H18      1.0000 0.07360  0.67290  0.56550  Biso   1.000  H
  H19      1.0000 0.25000  0.54800  0.27100  Biso   1.000  H
  H20      1.0000 0.75000  0.45200  0.72900  Biso   1.000  H
  H21      1.0000 0.38500  0.57300  0.13200  Biso   1.000  H
  H22      1.0000 0.61500  0.42700  0.86800  Biso   1.000  H
  H23      1.0000 0.23300  0.56000  0.89500  Biso   1.000  H
  H24      1.0000 0.76700  0.44000  0.10500  Biso   1.000  H
  H25      1.0000 0.23500  0.41500  0.72800  Biso   1.000  H
  H26      1.0000 0.76500  0.58500  0.27200  Biso   1.000  H
  H27      1.0000 0.32100  0.20000  0.86200  Biso   1.000  H
  H28      1.0000 0.67900  0.80000  0.13800  Biso   1.000  H
  H29      1.0000 0.41500  0.04300  0.17800  Biso   1.000  H
  H30      1.0000 0.58500  0.95700  0.82200  Biso   1.000  H
  H31      1.0000 0.57200  0.07400  0.08800  Biso   1.000  H
  H32      1.0000 0.42800  0.92600  0.91200  Biso   1.000  H
