data_image0
_cell_length_a       11.1039
_cell_length_b       11.3999
_cell_length_c       21.9492
_cell_angle_alpha    90
_cell_angle_beta     104.62
_cell_angle_gamma    90

_symmetry_space_group_name_H-M    "P 1"
_symmetry_int_tables_number       1

loop_
  _symmetry_equiv_pos_as_xyz
  'x, y, z'

loop_
  _atom_site_label
  _atom_site_occupancy
  _atom_site_fract_x
  _atom_site_fract_y
  _atom_site_fract_z
  _atom_site_thermal_displace_type
  _atom_site_B_iso_or_equiv
  _atom_site_type_symbol
  Cu1      1.0000 0.72180  0.36812  0.12258  Biso   1.000  Cu
  Cu2      1.0000 0.27820  0.86812  0.37742  Biso   1.000  Cu
  Cu3      1.0000 0.27820  0.63188  0.87742  Biso   1.000  Cu
  Cu4      1.0000 0.72180  0.13188  0.62258  Biso   1.000  Cu
  Cu5      1.0000 0.50000  0.50000  0.00000  Biso   1.000  Cu
  Cu6      1.0000 0.50000  0.00000  0.50000  Biso   1.000  Cu
  Cl1      1.0000 0.91532  0.29144  0.14792  Biso   1.000  Cl
  Cl2      1.0000 0.08468  0.79144  0.35208  Biso   1.000  Cl
  Cl3      1.0000 0.08468  0.70856  0.85208  Biso   1.000  Cl
  Cl4      1.0000 0.91532  0.20856  0.64792  Biso   1.000  Cl
  Cl5      1.0000 0.57507  0.28030  0.02940  Biso   1.000  Cl
  Cl6      1.0000 0.42493  0.78030  0.47060  Biso   1.000  Cl
  Cl7      1.0000 0.42493  0.71970  0.97060  Biso   1.000  Cl
  Cl8      1.0000 0.57507  0.21970  0.52940  Biso   1.000  Cl
  O1       1.0000 0.26760  0.01661  0.95743  Biso   1.000  O
  O2       1.0000 0.73240  0.51661  0.54257  Biso   1.000  O
  O3       1.0000 0.73240  0.98339  0.04257  Biso   1.000  O
  O4       1.0000 0.26760  0.48339  0.45743  Biso   1.000  O
  O5       1.0000 0.14380  0.94180  0.12846  Biso   1.000  O
  O6       1.0000 0.85620  0.44180  0.37154  Biso   1.000  O
  O7       1.0000 0.85620  0.05820  0.87154  Biso   1.000  O
  O8       1.0000 0.14380  0.55820  0.62846  Biso   1.000  O
  O9       1.0000 0.14640  0.45710  0.14035  Biso   1.000  O
  O10      1.0000 0.85360  0.95710  0.35965  Biso   1.000  O
  O11      1.0000 0.85360  0.54290  0.85965  Biso   1.000  O
  O12      1.0000 0.14640  0.04290  0.64035  Biso   1.000  O
  H1       1.0000 0.07310  0.43390  0.13680  Biso   1.000  H
  H2       1.0000 0.92690  0.93390  0.36320  Biso   1.000  H
  H3       1.0000 0.92690  0.56610  0.86320  Biso   1.000  H
  H4       1.0000 0.07310  0.06610  0.63680  Biso   1.000  H
  N1       1.0000 0.76797  0.49028  0.06646  Biso   1.000  N
  N2       1.0000 0.23203  0.99028  0.43354  Biso   1.000  N
  N3       1.0000 0.23203  0.50972  0.93354  Biso   1.000  N
  N4       1.0000 0.76797  0.00972  0.56646  Biso   1.000  N
  N5       1.0000 0.68258  0.54151  0.02039  Biso   1.000  N
  N6       1.0000 0.31742  0.04151  0.47961  Biso   1.000  N
  N7       1.0000 0.31742  0.45849  0.97961  Biso   1.000  N
  N8       1.0000 0.68258  0.95849  0.52039  Biso   1.000  N
  N9       1.0000 0.73567  0.62383  0.99318  Biso   1.000  N
  N10      1.0000 0.26433  0.12383  0.50682  Biso   1.000  N
  N11      1.0000 0.26433  0.37617  0.00682  Biso   1.000  N
  N12      1.0000 0.73567  0.87617  0.49318  Biso   1.000  N
  N13      1.0000 0.87850  0.53804  0.07069  Biso   1.000  N
  N14      1.0000 0.12150  0.03804  0.42931  Biso   1.000  N
  N15      1.0000 0.12150  0.46196  0.92931  Biso   1.000  N
  N16      1.0000 0.87850  0.96196  0.57069  Biso   1.000  N
  N17      1.0000 0.13470  0.84060  0.99212  Biso   1.000  N
  N18      1.0000 0.86530  0.34060  0.50788  Biso   1.000  N
  N19      1.0000 0.86530  0.15940  0.00788  Biso   1.000  N
  N20      1.0000 0.13470  0.65940  0.49212  Biso   1.000  N
  N21      1.0000 0.59050  0.48659  0.13686  Biso   1.000  N
  N22      1.0000 0.40950  0.98659  0.36314  Biso   1.000  N
  N23      1.0000 0.40950  0.51341  0.86314  Biso   1.000  N
  N24      1.0000 0.59050  0.01341  0.63686  Biso   1.000  N
  N25      1.0000 0.49922  0.52712  0.09070  Biso   1.000  N
  N26      1.0000 0.50078  0.02712  0.40930  Biso   1.000  N
  N27      1.0000 0.50078  0.47288  0.90930  Biso   1.000  N
  N28      1.0000 0.49922  0.97288  0.59070  Biso   1.000  N
  N29      1.0000 0.42143  0.59269  0.11354  Biso   1.000  N
  N30      1.0000 0.57857  0.09269  0.38646  Biso   1.000  N
  N31      1.0000 0.57857  0.40731  0.88646  Biso   1.000  N
  N32      1.0000 0.42143  0.90731  0.61354  Biso   1.000  N
  N33      1.0000 0.57570  0.52484  0.19177  Biso   1.000  N
  N34      1.0000 0.42430  0.02484  0.30823  Biso   1.000  N
  N35      1.0000 0.42430  0.47516  0.80823  Biso   1.000  N
  N36      1.0000 0.57570  0.97516  0.69177  Biso   1.000  N
  N37      1.0000 0.33200  0.76742  0.31373  Biso   1.000  N
  N38      1.0000 0.66800  0.26742  0.18627  Biso   1.000  N
  N39      1.0000 0.66800  0.23258  0.68627  Biso   1.000  N
  N40      1.0000 0.33200  0.73258  0.81373  Biso   1.000  N
  N41      1.0000 0.39710  0.09430  0.90246  Biso   1.000  N
  N42      1.0000 0.60290  0.59430  0.59754  Biso   1.000  N
  N43      1.0000 0.60290  0.90570  0.09754  Biso   1.000  N
  N44      1.0000 0.39710  0.40570  0.40246  Biso   1.000  N
  N45      1.0000 0.07040  0.01220  0.20965  Biso   1.000  N
  N46      1.0000 0.92960  0.51220  0.29035  Biso   1.000  N
  N47      1.0000 0.92960  0.98780  0.79035  Biso   1.000  N
  N48      1.0000 0.07040  0.48780  0.70965  Biso   1.000  N
  C1       1.0000 0.85610  0.61930  0.02516  Biso   1.000  C
  C2       1.0000 0.14390  0.11930  0.47484  Biso   1.000  C
  C3       1.0000 0.14390  0.38070  0.97484  Biso   1.000  C
  C4       1.0000 0.85610  0.88070  0.52516  Biso   1.000  C
  C5       1.0000 0.95320  0.69710  0.01335  Biso   1.000  C
  C6       1.0000 0.04680  0.19710  0.48665  Biso   1.000  C
  C7       1.0000 0.04680  0.30290  0.98665  Biso   1.000  C
  C8       1.0000 0.95320  0.80290  0.51335  Biso   1.000  C
  C9       1.0000 0.92200  0.80000  0.97862  Biso   1.000  C
  C10      1.0000 0.07800  0.30000  0.52138  Biso   1.000  C
  C11      1.0000 0.07800  0.20000  0.02138  Biso   1.000  C
  C12      1.0000 0.92200  0.70000  0.47862  Biso   1.000  C
  H5       1.0000 0.83730  0.82140  0.96240  Biso   1.000  H
  H6       1.0000 0.16270  0.32140  0.53760  Biso   1.000  H
  H7       1.0000 0.16270  0.17860  0.03760  Biso   1.000  H
  H8       1.0000 0.83730  0.67860  0.46240  Biso   1.000  H
  C13      1.0000 0.01570  0.87010  0.96825  Biso   1.000  C
  C14      1.0000 0.98430  0.37010  0.53175  Biso   1.000  C
  C15      1.0000 0.98430  0.12990  0.03175  Biso   1.000  C
  C16      1.0000 0.01570  0.62990  0.46825  Biso   1.000  C
  H9       1.0000 0.99570  0.93980  0.94400  Biso   1.000  H
  H10      1.0000 0.00430  0.43980  0.55600  Biso   1.000  H
  H11      1.0000 0.00430  0.06020  0.05600  Biso   1.000  H
  H12      1.0000 0.99570  0.56020  0.44400  Biso   1.000  H
  C17      1.0000 0.16800  0.74270  0.02614  Biso   1.000  C
  C18      1.0000 0.83200  0.24270  0.47386  Biso   1.000  C
  C19      1.0000 0.83200  0.25730  0.97386  Biso   1.000  C
  C20      1.0000 0.16800  0.75730  0.52614  Biso   1.000  C
  H13      1.0000 0.25360  0.72450  0.04250  Biso   1.000  H
  H14      1.0000 0.74640  0.22450  0.45750  Biso   1.000  H
  H15      1.0000 0.74640  0.27550  0.95750  Biso   1.000  H
  H16      1.0000 0.25360  0.77550  0.54250  Biso   1.000  H
  C21      1.0000 0.07820  0.66910  0.03716  Biso   1.000  C
  C22      1.0000 0.92180  0.16910  0.46284  Biso   1.000  C
  C23      1.0000 0.92180  0.33090  0.96284  Biso   1.000  C
  C24      1.0000 0.07820  0.83090  0.53716  Biso   1.000  C
  H17      1.0000 0.10120  0.59930  0.06090  Biso   1.000  H
  H18      1.0000 0.89880  0.09930  0.43910  Biso   1.000  H
  H19      1.0000 0.89880  0.40070  0.93910  Biso   1.000  H
  H20      1.0000 0.10120  0.90070  0.56090  Biso   1.000  H
  C25      1.0000 0.47170  0.58880  0.17593  Biso   1.000  C
  C26      1.0000 0.52830  0.08880  0.32407  Biso   1.000  C
  C27      1.0000 0.52830  0.41120  0.82407  Biso   1.000  C
  C28      1.0000 0.47170  0.91120  0.67593  Biso   1.000  C
  C29      1.0000 0.42130  0.65090  0.22287  Biso   1.000  C
  C30      1.0000 0.57870  0.15090  0.27713  Biso   1.000  C
  C31      1.0000 0.57870  0.34910  0.77713  Biso   1.000  C
  C32      1.0000 0.42130  0.84910  0.72287  Biso   1.000  C
  C33      1.0000 0.29920  0.68890  0.20981  Biso   1.000  C
  C34      1.0000 0.70080  0.18890  0.29019  Biso   1.000  C
  C35      1.0000 0.70080  0.31110  0.79019  Biso   1.000  C
  C36      1.0000 0.29920  0.81110  0.70981  Biso   1.000  C
  H21      1.0000 0.24460  0.67590  0.16950  Biso   1.000  H
  H22      1.0000 0.75540  0.17590  0.33050  Biso   1.000  H
  H23      1.0000 0.75540  0.32410  0.83050  Biso   1.000  H
  H24      1.0000 0.24460  0.82410  0.66950  Biso   1.000  H
  C37      1.0000 0.25770  0.74630  0.25632  Biso   1.000  C
  C38      1.0000 0.74230  0.24630  0.24368  Biso   1.000  C
  C39      1.0000 0.74230  0.25370  0.74368  Biso   1.000  C
  C40      1.0000 0.25770  0.75370  0.75632  Biso   1.000  C
  H25      1.0000 0.17350  0.77150  0.24720  Biso   1.000  H
  H26      1.0000 0.82650  0.27150  0.25280  Biso   1.000  H
  H27      1.0000 0.82650  0.22850  0.75280  Biso   1.000  H
  H28      1.0000 0.17350  0.72850  0.74720  Biso   1.000  H
  C41      1.0000 0.45050  0.73140  0.32595  Biso   1.000  C
  C42      1.0000 0.54950  0.23140  0.17405  Biso   1.000  C
  C43      1.0000 0.54950  0.26860  0.67405  Biso   1.000  C
  C44      1.0000 0.45050  0.76860  0.82595  Biso   1.000  C
  H29      1.0000 0.50380  0.74680  0.36630  Biso   1.000  H
  H30      1.0000 0.49620  0.24680  0.13370  Biso   1.000  H
  H31      1.0000 0.49620  0.25320  0.63370  Biso   1.000  H
  H32      1.0000 0.50380  0.75320  0.86630  Biso   1.000  H
  C45      1.0000 0.49800  0.67290  0.28243  Biso   1.000  C
  C46      1.0000 0.50200  0.17290  0.21757  Biso   1.000  C
  C47      1.0000 0.50200  0.32710  0.71757  Biso   1.000  C
  C48      1.0000 0.49800  0.82710  0.78243  Biso   1.000  C
  H33      1.0000 0.58230  0.64790  0.29290  Biso   1.000  H
  H34      1.0000 0.41770  0.14790  0.20710  Biso   1.000  H
  H35      1.0000 0.41770  0.35210  0.70710  Biso   1.000  H
  H36      1.0000 0.58230  0.85210  0.79290  Biso   1.000  H
  C49      1.0000 0.36220  0.01180  0.93747  Biso   1.000  C
  C50      1.0000 0.63780  0.51180  0.56253  Biso   1.000  C
  C51      1.0000 0.63780  0.98820  0.06253  Biso   1.000  C
  C52      1.0000 0.36220  0.48820  0.43747  Biso   1.000  C
  H37      1.0000 0.41360  0.94450  0.94790  Biso   1.000  H
  H38      1.0000 0.58640  0.44450  0.55210  Biso   1.000  H
  H39      1.0000 0.58640  0.05550  0.05210  Biso   1.000  H
  H40      1.0000 0.41360  0.55550  0.44790  Biso   1.000  H
  C53      1.0000 0.32580  0.20100  0.88547  Biso   1.000  C
  C54      1.0000 0.67420  0.70100  0.61453  Biso   1.000  C
  C55      1.0000 0.67420  0.79900  0.11453  Biso   1.000  C
  C56      1.0000 0.32580  0.29900  0.38547  Biso   1.000  C
  H41      1.0000 0.24840  0.19560  0.89900  Biso   1.000  H
  H42      1.0000 0.75160  0.69560  0.60100  Biso   1.000  H
  H43      1.0000 0.75160  0.80440  0.10100  Biso   1.000  H
  H44      1.0000 0.24840  0.30440  0.39900  Biso   1.000  H
  H45      1.0000 0.30610  0.21160  0.83970  Biso   1.000  H
  H46      1.0000 0.69390  0.71160  0.66030  Biso   1.000  H
  H47      1.0000 0.69390  0.78840  0.16030  Biso   1.000  H
  H48      1.0000 0.30610  0.28840  0.33970  Biso   1.000  H
  H49      1.0000 0.37460  0.26810  0.90620  Biso   1.000  H
  H50      1.0000 0.62540  0.76810  0.59380  Biso   1.000  H
  H51      1.0000 0.62540  0.73190  0.09380  Biso   1.000  H
  H52      1.0000 0.37460  0.23190  0.40620  Biso   1.000  H
  C57      1.0000 0.51450  0.08600  0.88511  Biso   1.000  C
  C58      1.0000 0.48550  0.58600  0.61489  Biso   1.000  C
  C59      1.0000 0.48550  0.91400  0.11489  Biso   1.000  C
  C60      1.0000 0.51450  0.41400  0.38511  Biso   1.000  C
  H53      1.0000 0.55660  0.01290  0.90170  Biso   1.000  H
  H54      1.0000 0.44340  0.51290  0.59830  Biso   1.000  H
  H55      1.0000 0.44340  0.98710  0.09830  Biso   1.000  H
  H56      1.0000 0.55660  0.48710  0.40170  Biso   1.000  H
  H57      1.0000 0.56740  0.15290  0.90280  Biso   1.000  H
  H58      1.0000 0.43260  0.65290  0.59720  Biso   1.000  H
  H59      1.0000 0.43260  0.84710  0.09720  Biso   1.000  H
  H60      1.0000 0.56740  0.34710  0.40280  Biso   1.000  H
  H61      1.0000 0.49900  0.08680  0.83910  Biso   1.000  H
  H62      1.0000 0.50100  0.58680  0.66090  Biso   1.000  H
  H63      1.0000 0.50100  0.91320  0.16090  Biso   1.000  H
  H64      1.0000 0.49900  0.41320  0.33910  Biso   1.000  H
  C61      1.0000 0.15720  0.99650  0.17773  Biso   1.000  C
  C62      1.0000 0.84280  0.49650  0.32227  Biso   1.000  C
  C63      1.0000 0.84280  0.00350  0.82227  Biso   1.000  C
  C64      1.0000 0.15720  0.50350  0.67773  Biso   1.000  C
  H65      1.0000 0.23650  0.03090  0.19490  Biso   1.000  H
  H66      1.0000 0.76350  0.53090  0.30510  Biso   1.000  H
  H67      1.0000 0.76350  0.96910  0.80510  Biso   1.000  H
  H68      1.0000 0.23650  0.46910  0.69490  Biso   1.000  H
  C65      1.0000 0.09260  0.08540  0.26584  Biso   1.000  C
  C66      1.0000 0.90740  0.58540  0.23416  Biso   1.000  C
  C67      1.0000 0.90740  0.91460  0.73416  Biso   1.000  C
  C68      1.0000 0.09260  0.41460  0.76584  Biso   1.000  C
  H69      1.0000 0.18170  0.10280  0.28040  Biso   1.000  H
  H70      1.0000 0.81830  0.60280  0.21960  Biso   1.000  H
  H71      1.0000 0.81830  0.89720  0.71960  Biso   1.000  H
  H72      1.0000 0.18170  0.39720  0.78040  Biso   1.000  H
  H73      1.0000 0.06510  0.04380  0.29900  Biso   1.000  H
  H74      1.0000 0.93490  0.54380  0.20100  Biso   1.000  H
  H75      1.0000 0.93490  0.95620  0.70100  Biso   1.000  H
  H76      1.0000 0.06510  0.45620  0.79900  Biso   1.000  H
  H77      1.0000 0.04600  0.15890  0.25590  Biso   1.000  H
  H78      1.0000 0.95400  0.65890  0.24410  Biso   1.000  H
  H79      1.0000 0.95400  0.84110  0.74410  Biso   1.000  H
  H80      1.0000 0.04600  0.34110  0.75590  Biso   1.000  H
  C69      1.0000 0.94630  0.96420  0.18689  Biso   1.000  C
  C70      1.0000 0.05370  0.46420  0.31311  Biso   1.000  C
  C71      1.0000 0.05370  0.03580  0.81311  Biso   1.000  C
  C72      1.0000 0.94630  0.53580  0.68689  Biso   1.000  C
  H81      1.0000 0.94280  0.91630  0.14940  Biso   1.000  H
  H82      1.0000 0.05720  0.41630  0.35060  Biso   1.000  H
  H83      1.0000 0.05720  0.08370  0.85060  Biso   1.000  H
  H84      1.0000 0.94280  0.58370  0.64940  Biso   1.000  H
  H85      1.0000 0.88610  0.02850  0.17610  Biso   1.000  H
  H86      1.0000 0.11390  0.52850  0.32390  Biso   1.000  H
  H87      1.0000 0.11390  0.97150  0.82390  Biso   1.000  H
  H88      1.0000 0.88610  0.47150  0.67610  Biso   1.000  H
  H89      1.0000 0.92620  0.91550  0.21980  Biso   1.000  H
  H90      1.0000 0.07380  0.41550  0.28020  Biso   1.000  H
  H91      1.0000 0.07380  0.08450  0.78020  Biso   1.000  H
  H92      1.0000 0.92620  0.58450  0.71980  Biso   1.000  H
  C73      1.0000 0.23020  0.36770  0.16738  Biso   1.000  C
  C74      1.0000 0.76980  0.86770  0.33262  Biso   1.000  C
  C75      1.0000 0.76980  0.63230  0.83262  Biso   1.000  C
  C76      1.0000 0.23020  0.13230  0.66738  Biso   1.000  C
  H93      1.0000 0.28820  0.35360  0.14110  Biso   1.000  H
  H94      1.0000 0.71180  0.85360  0.35890  Biso   1.000  H
  H95      1.0000 0.71180  0.64640  0.85890  Biso   1.000  H
  H96      1.0000 0.28820  0.14640  0.64110  Biso   1.000  H
  H97      1.0000 0.18390  0.29560  0.17020  Biso   1.000  H
  H98      1.0000 0.81610  0.79560  0.32980  Biso   1.000  H
  H99      1.0000 0.81610  0.70440  0.82980  Biso   1.000  H
  H100     1.0000 0.18390  0.20440  0.67020  Biso   1.000  H
  H101     1.0000 0.27680  0.39160  0.20960  Biso   1.000  H
  H102     1.0000 0.72320  0.89160  0.29040  Biso   1.000  H
  H103     1.0000 0.72320  0.60840  0.79040  Biso   1.000  H
  H104     1.0000 0.27680  0.10840  0.70960  Biso   1.000  H
  H105     1.0000 0.19500  0.88900  0.98770  Biso   1.000  H
  H106     1.0000 0.80500  0.38900  0.51230  Biso   1.000  H
  H107     1.0000 0.80500  0.11100  0.01230  Biso   1.000  H
  H108     1.0000 0.19500  0.61100  0.48770  Biso   1.000  H
