data_image0
_cell_length_a       12.1834
_cell_length_b       22.8445
_cell_length_c       6.9771
_cell_angle_alpha    90
_cell_angle_beta     102.707
_cell_angle_gamma    90

_symmetry_space_group_name_H-M    "P 1"
_symmetry_int_tables_number       1

loop_
  _symmetry_equiv_pos_as_xyz
  'x, y, z'

loop_
  _atom_site_label
  _atom_site_occupancy
  _atom_site_fract_x
  _atom_site_fract_y
  _atom_site_fract_z
  _atom_site_thermal_displace_type
  _atom_site_B_iso_or_equiv
  _atom_site_type_symbol
  O1       1.0000 0.41320  0.78888  0.38370  Biso   1.000  O
  O2       1.0000 0.58680  0.28888  0.11630  Biso   1.000  O
  O3       1.0000 0.58680  0.21112  0.61630  Biso   1.000  O
  O4       1.0000 0.41320  0.71112  0.88370  Biso   1.000  O
  H1       1.0000 0.43600  0.81740  0.32600  Biso   1.000  H
  H2       1.0000 0.56400  0.31740  0.17400  Biso   1.000  H
  H3       1.0000 0.56400  0.18260  0.67400  Biso   1.000  H
  H4       1.0000 0.43600  0.68260  0.82600  Biso   1.000  H
  H5       1.0000 0.41100  0.79750  0.49900  Biso   1.000  H
  H6       1.0000 0.58900  0.29750  0.00100  Biso   1.000  H
  H7       1.0000 0.58900  0.20250  0.50100  Biso   1.000  H
  H8       1.0000 0.41100  0.70250  0.99900  Biso   1.000  H
  Cu1      1.0000 0.86885  0.49525  0.29903  Biso   1.000  Cu
  Cu2      1.0000 0.13115  0.99525  0.20097  Biso   1.000  Cu
  Cu3      1.0000 0.13115  0.50475  0.70097  Biso   1.000  Cu
  Cu4      1.0000 0.86885  0.00475  0.79903  Biso   1.000  Cu
  Cu5      1.0000 0.07346  0.56226  0.20647  Biso   1.000  Cu
  Cu6      1.0000 0.92654  0.06226  0.29353  Biso   1.000  Cu
  Cu7      1.0000 0.92654  0.43774  0.79353  Biso   1.000  Cu
  Cu8      1.0000 0.07346  0.93774  0.70647  Biso   1.000  Cu
  O5       1.0000 0.91435  0.57500  0.23200  Biso   1.000  O
  O6       1.0000 0.08565  0.07500  0.26800  Biso   1.000  O
  O7       1.0000 0.08565  0.42500  0.76800  Biso   1.000  O
  O8       1.0000 0.91435  0.92500  0.73200  Biso   1.000  O
  O9       1.0000 0.40114  0.68027  0.26220  Biso   1.000  O
  O10      1.0000 0.59886  0.18027  0.23780  Biso   1.000  O
  O11      1.0000 0.59886  0.31973  0.73780  Biso   1.000  O
  O12      1.0000 0.40114  0.81973  0.76220  Biso   1.000  O
  H9       1.0000 0.41060  0.71540  0.29800  Biso   1.000  H
  H10      1.0000 0.58940  0.21540  0.20200  Biso   1.000  H
  H11      1.0000 0.58940  0.28460  0.70200  Biso   1.000  H
  H12      1.0000 0.41060  0.78460  0.79800  Biso   1.000  H
  O13      1.0000 0.52328  0.39382  0.23700  Biso   1.000  O
  O14      1.0000 0.47672  0.89382  0.26300  Biso   1.000  O
  O15      1.0000 0.47672  0.60618  0.76300  Biso   1.000  O
  O16      1.0000 0.52328  0.10618  0.73700  Biso   1.000  O
  H13      1.0000 0.46020  0.40880  0.23600  Biso   1.000  H
  H14      1.0000 0.53980  0.90880  0.26400  Biso   1.000  H
  H15      1.0000 0.53980  0.59120  0.76400  Biso   1.000  H
  H16      1.0000 0.46020  0.09120  0.73600  Biso   1.000  H
  N1       1.0000 0.09520  0.64530  0.15530  Biso   1.000  N
  N2       1.0000 0.90480  0.14530  0.34470  Biso   1.000  N
  N3       1.0000 0.90480  0.35470  0.84470  Biso   1.000  N
  N4       1.0000 0.09520  0.85470  0.65530  Biso   1.000  N
  N5       1.0000 0.71571  0.52233  0.30460  Biso   1.000  N
  N6       1.0000 0.28429  0.02233  0.19540  Biso   1.000  N
  N7       1.0000 0.28429  0.47767  0.69540  Biso   1.000  N
  N8       1.0000 0.71571  0.97767  0.80460  Biso   1.000  N
  N9       1.0000 0.02650  0.48413  0.27810  Biso   1.000  N
  N10      1.0000 0.97350  0.98413  0.22190  Biso   1.000  N
  N11      1.0000 0.97350  0.51587  0.72190  Biso   1.000  N
  N12      1.0000 0.02650  0.01587  0.77810  Biso   1.000  N
  N13      1.0000 0.07206  0.43644  0.26480  Biso   1.000  N
  N14      1.0000 0.92794  0.93644  0.23520  Biso   1.000  N
  N15      1.0000 0.92794  0.56356  0.73520  Biso   1.000  N
  N16      1.0000 0.07206  0.06356  0.76480  Biso   1.000  N
  N17      1.0000 0.11360  0.39356  0.25640  Biso   1.000  N
  N18      1.0000 0.88640  0.89356  0.24360  Biso   1.000  N
  N19      1.0000 0.88640  0.60644  0.74360  Biso   1.000  N
  N20      1.0000 0.11360  0.10644  0.75640  Biso   1.000  N
  N21      1.0000 0.85668  0.42247  0.44420  Biso   1.000  N
  N22      1.0000 0.14332  0.92247  0.05580  Biso   1.000  N
  N23      1.0000 0.14332  0.57753  0.55580  Biso   1.000  N
  N24      1.0000 0.85668  0.07753  0.94420  Biso   1.000  N
  N25      1.0000 0.87909  0.37385  0.39480  Biso   1.000  N
  N26      1.0000 0.12091  0.87385  0.10520  Biso   1.000  N
  N27      1.0000 0.12091  0.62615  0.60520  Biso   1.000  N
  N28      1.0000 0.87909  0.12615  0.89480  Biso   1.000  N
  N29      1.0000 0.89800  0.32685  0.35770  Biso   1.000  N
  N30      1.0000 0.10200  0.82685  0.14230  Biso   1.000  N
  N31      1.0000 0.10200  0.67315  0.64230  Biso   1.000  N
  N32      1.0000 0.89800  0.17315  0.85770  Biso   1.000  N
  N33      1.0000 0.18805  0.53387  0.06580  Biso   1.000  N
  N34      1.0000 0.81195  0.03387  0.43420  Biso   1.000  N
  N35      1.0000 0.81195  0.46613  0.93420  Biso   1.000  N
  N36      1.0000 0.18805  0.96613  0.56580  Biso   1.000  N
  N37      1.0000 0.26290  0.50089  0.13870  Biso   1.000  N
  N38      1.0000 0.73710  0.00089  0.36130  Biso   1.000  N
  N39      1.0000 0.73710  0.49911  0.86130  Biso   1.000  N
  N40      1.0000 0.26290  0.99911  0.63870  Biso   1.000  N
  N41      1.0000 0.33600  0.47003  0.20150  Biso   1.000  N
  N42      1.0000 0.66400  0.97003  0.29850  Biso   1.000  N
  N43      1.0000 0.66400  0.52997  0.79850  Biso   1.000  N
  N44      1.0000 0.33600  0.02997  0.70150  Biso   1.000  N
  C1       1.0000 0.85740  0.62494  0.22050  Biso   1.000  C
  C2       1.0000 0.14260  0.12494  0.27950  Biso   1.000  C
  C3       1.0000 0.14260  0.37506  0.77950  Biso   1.000  C
  C4       1.0000 0.85740  0.87506  0.72050  Biso   1.000  C
  C5       1.0000 0.90780  0.67904  0.18780  Biso   1.000  C
  C6       1.0000 0.09220  0.17904  0.31220  Biso   1.000  C
  C7       1.0000 0.09220  0.32096  0.81220  Biso   1.000  C
  C8       1.0000 0.90780  0.82096  0.68780  Biso   1.000  C
  C9       1.0000 0.84630  0.73140  0.18310  Biso   1.000  C
  C10      1.0000 0.15370  0.23140  0.31690  Biso   1.000  C
  C11      1.0000 0.15370  0.26860  0.81690  Biso   1.000  C
  C12      1.0000 0.84630  0.76860  0.68310  Biso   1.000  C
  H17      1.0000 0.88220  0.76720  0.16470  Biso   1.000  H
  H18      1.0000 0.11780  0.26720  0.33530  Biso   1.000  H
  H19      1.0000 0.11780  0.23280  0.83530  Biso   1.000  H
  H20      1.0000 0.88220  0.73280  0.66470  Biso   1.000  H
  C13      1.0000 0.73560  0.73305  0.20400  Biso   1.000  C
  C14      1.0000 0.26440  0.23305  0.29600  Biso   1.000  C
  C15      1.0000 0.26440  0.26695  0.79600  Biso   1.000  C
  C16      1.0000 0.73560  0.76695  0.70400  Biso   1.000  C
  C17      1.0000 0.68670  0.67978  0.22930  Biso   1.000  C
  C18      1.0000 0.31330  0.17978  0.27070  Biso   1.000  C
  C19      1.0000 0.31330  0.32022  0.77070  Biso   1.000  C
  C20      1.0000 0.68670  0.82022  0.72930  Biso   1.000  C
  H21      1.0000 0.61020  0.67940  0.23970  Biso   1.000  H
  H22      1.0000 0.38980  0.17940  0.26030  Biso   1.000  H
  H23      1.0000 0.38980  0.32060  0.76030  Biso   1.000  H
  H24      1.0000 0.61020  0.82060  0.73970  Biso   1.000  H
  C21      1.0000 0.74410  0.62628  0.24040  Biso   1.000  C
  C22      1.0000 0.25590  0.12628  0.25960  Biso   1.000  C
  C23      1.0000 0.25590  0.37372  0.75960  Biso   1.000  C
  C24      1.0000 0.74410  0.87372  0.74040  Biso   1.000  C
  C25      1.0000 0.67100  0.78926  0.19780  Biso   1.000  C
  C26      1.0000 0.32900  0.28926  0.30220  Biso   1.000  C
  C27      1.0000 0.32900  0.21074  0.80220  Biso   1.000  C
  C28      1.0000 0.67100  0.71074  0.69780  Biso   1.000  C
  H25      1.0000 0.60600  0.78840  0.08660  Biso   1.000  H
  H26      1.0000 0.39400  0.28840  0.41340  Biso   1.000  H
  H27      1.0000 0.39400  0.21160  0.91340  Biso   1.000  H
  H28      1.0000 0.60600  0.71160  0.58660  Biso   1.000  H
  H29      1.0000 0.71990  0.82220  0.18250  Biso   1.000  H
  H30      1.0000 0.28010  0.32220  0.31750  Biso   1.000  H
  H31      1.0000 0.28010  0.17780  0.81750  Biso   1.000  H
  H32      1.0000 0.71990  0.67780  0.68250  Biso   1.000  H
  H33      1.0000 0.64510  0.79380  0.32040  Biso   1.000  H
  H34      1.0000 0.35490  0.29380  0.17960  Biso   1.000  H
  H35      1.0000 0.35490  0.20620  0.67960  Biso   1.000  H
  H36      1.0000 0.64510  0.70620  0.82040  Biso   1.000  H
  C29      1.0000 0.02150  0.68552  0.15930  Biso   1.000  C
  C30      1.0000 0.97850  0.18552  0.34070  Biso   1.000  C
  C31      1.0000 0.97850  0.31448  0.84070  Biso   1.000  C
  C32      1.0000 0.02150  0.81448  0.65930  Biso   1.000  C
  H37      1.0000 0.04470  0.72440  0.14110  Biso   1.000  H
  H38      1.0000 0.95530  0.22440  0.35890  Biso   1.000  H
  H39      1.0000 0.95530  0.27560  0.85890  Biso   1.000  H
  H40      1.0000 0.04470  0.77560  0.64110  Biso   1.000  H
  C33      1.0000 0.20460  0.66616  0.12080  Biso   1.000  C
  C34      1.0000 0.79540  0.16616  0.37920  Biso   1.000  C
  C35      1.0000 0.79540  0.33384  0.87920  Biso   1.000  C
  C36      1.0000 0.20460  0.83384  0.62080  Biso   1.000  C
  H41      1.0000 0.19780  0.70790  0.08210  Biso   1.000  H
  H42      1.0000 0.80220  0.20790  0.41790  Biso   1.000  H
  H43      1.0000 0.80220  0.29210  0.91790  Biso   1.000  H
  H44      1.0000 0.19780  0.79210  0.58210  Biso   1.000  H
  H45      1.0000 0.22350  0.64370  0.01090  Biso   1.000  H
  H46      1.0000 0.77650  0.14370  0.48910  Biso   1.000  H
  H47      1.0000 0.77650  0.35630  0.98910  Biso   1.000  H
  H48      1.0000 0.22350  0.85630  0.51090  Biso   1.000  H
  C37      1.0000 0.29870  0.65935  0.30120  Biso   1.000  C
  C38      1.0000 0.70130  0.15935  0.19880  Biso   1.000  C
  C39      1.0000 0.70130  0.34065  0.69880  Biso   1.000  C
  C40      1.0000 0.29870  0.84065  0.80120  Biso   1.000  C
  H49      1.0000 0.28030  0.68160  0.41180  Biso   1.000  H
  H50      1.0000 0.71970  0.18160  0.08820  Biso   1.000  H
  H51      1.0000 0.71970  0.31840  0.58820  Biso   1.000  H
  H52      1.0000 0.28030  0.81840  0.91180  Biso   1.000  H
  H53      1.0000 0.30680  0.61760  0.33940  Biso   1.000  H
  H54      1.0000 0.69320  0.11760  0.16060  Biso   1.000  H
  H55      1.0000 0.69320  0.38240  0.66060  Biso   1.000  H
  H56      1.0000 0.30680  0.88240  0.83940  Biso   1.000  H
  C41      1.0000 0.68210  0.57537  0.27880  Biso   1.000  C
  C42      1.0000 0.31790  0.07537  0.22120  Biso   1.000  C
  C43      1.0000 0.31790  0.42463  0.72120  Biso   1.000  C
  C44      1.0000 0.68210  0.92463  0.77880  Biso   1.000  C
  H57      1.0000 0.60620  0.58220  0.28580  Biso   1.000  H
  H58      1.0000 0.39380  0.08220  0.21420  Biso   1.000  H
  H59      1.0000 0.39380  0.41780  0.71420  Biso   1.000  H
  H60      1.0000 0.60620  0.91780  0.78580  Biso   1.000  H
  C45      1.0000 0.63310  0.47971  0.34720  Biso   1.000  C
  C46      1.0000 0.36690  0.97971  0.15280  Biso   1.000  C
  C47      1.0000 0.36690  0.52029  0.65280  Biso   1.000  C
  C48      1.0000 0.63310  0.02029  0.84720  Biso   1.000  C
  H61      1.0000 0.56670  0.50110  0.37120  Biso   1.000  H
  H62      1.0000 0.43330  0.00110  0.12880  Biso   1.000  H
  H63      1.0000 0.43330  0.49890  0.62880  Biso   1.000  H
  H64      1.0000 0.56670  0.99890  0.87120  Biso   1.000  H
  H65      1.0000 0.66710  0.45790  0.46840  Biso   1.000  H
  H66      1.0000 0.33290  0.95790  0.03160  Biso   1.000  H
  H67      1.0000 0.33290  0.54210  0.53160  Biso   1.000  H
  H68      1.0000 0.66710  0.04210  0.96840  Biso   1.000  H
  C49      1.0000 0.59550  0.43682  0.18130  Biso   1.000  C
  C50      1.0000 0.40450  0.93682  0.31870  Biso   1.000  C
  C51      1.0000 0.40450  0.56318  0.81870  Biso   1.000  C
  C52      1.0000 0.59550  0.06318  0.68130  Biso   1.000  C
  H69      1.0000 0.55490  0.45790  0.06280  Biso   1.000  H
  H70      1.0000 0.44510  0.95790  0.43720  Biso   1.000  H
  H71      1.0000 0.44510  0.54210  0.93720  Biso   1.000  H
  H72      1.0000 0.55490  0.04210  0.56280  Biso   1.000  H
  H73      1.0000 0.66200  0.41750  0.14950  Biso   1.000  H
  H74      1.0000 0.33800  0.91750  0.35050  Biso   1.000  H
  H75      1.0000 0.33800  0.58250  0.85050  Biso   1.000  H
  H76      1.0000 0.66200  0.08250  0.64950  Biso   1.000  H
