data_image0
_cell_length_a       9.434
_cell_length_b       20.618
_cell_length_c       10.04
_cell_angle_alpha    90
_cell_angle_beta     102.587
_cell_angle_gamma    90

_symmetry_space_group_name_H-M    "P 1"
_symmetry_int_tables_number       1

loop_
  _symmetry_equiv_pos_as_xyz
  'x, y, z'

loop_
  _atom_site_label
  _atom_site_occupancy
  _atom_site_fract_x
  _atom_site_fract_y
  _atom_site_fract_z
  _atom_site_thermal_displace_type
  _atom_site_B_iso_or_equiv
  _atom_site_type_symbol
  Cu1      1.0000 0.02008  0.56180  0.74265  Biso   1.000  Cu
  Cu2      1.0000 0.97992  0.06180  0.75735  Biso   1.000  Cu
  Cu3      1.0000 0.97992  0.43820  0.25735  Biso   1.000  Cu
  Cu4      1.0000 0.02008  0.93820  0.24265  Biso   1.000  Cu
  Cu5      1.0000 0.80839  0.50174  0.48956  Biso   1.000  Cu
  Cu6      1.0000 0.19161  0.00174  0.01044  Biso   1.000  Cu
  Cu7      1.0000 0.19161  0.49826  0.51044  Biso   1.000  Cu
  Cu8      1.0000 0.80839  0.99826  0.98956  Biso   1.000  Cu
  O1       1.0000 0.85570  0.58575  0.58710  Biso   1.000  O
  O2       1.0000 0.14430  0.08575  0.91290  Biso   1.000  O
  O3       1.0000 0.14430  0.41425  0.41290  Biso   1.000  O
  O4       1.0000 0.85570  0.91425  0.08710  Biso   1.000  O
  O5       1.0000 0.36660  0.68278  0.08050  Biso   1.000  O
  O6       1.0000 0.63340  0.18278  0.41950  Biso   1.000  O
  O7       1.0000 0.63340  0.31722  0.91950  Biso   1.000  O
  O8       1.0000 0.36660  0.81722  0.58050  Biso   1.000  O
  H1       1.0000 0.36920  0.72260  0.09850  Biso   1.000  H
  H2       1.0000 0.63080  0.22260  0.40150  Biso   1.000  H
  H3       1.0000 0.63080  0.27740  0.90150  Biso   1.000  H
  H4       1.0000 0.36920  0.77740  0.59850  Biso   1.000  H
  O9       1.0000 0.34730  0.52318  0.35760  Biso   1.000  O
  O10      1.0000 0.65270  0.02318  0.14240  Biso   1.000  O
  O11      1.0000 0.65270  0.47682  0.64240  Biso   1.000  O
  O12      1.0000 0.34730  0.97682  0.85760  Biso   1.000  O
  N1       1.0000 0.97830  0.47914  0.63820  Biso   1.000  N
  N2       1.0000 0.02170  0.97914  0.86180  Biso   1.000  N
  N3       1.0000 0.02170  0.52086  0.36180  Biso   1.000  N
  N4       1.0000 0.97830  0.02086  0.13820  Biso   1.000  N
  N5       1.0000 0.99100  0.42373  0.68930  Biso   1.000  N
  N6       1.0000 0.00900  0.92373  0.81070  Biso   1.000  N
  N7       1.0000 0.00900  0.57627  0.31070  Biso   1.000  N
  N8       1.0000 0.99100  0.07627  0.18930  Biso   1.000  N
  N9       1.0000 0.00010  0.37400  0.73220  Biso   1.000  N
  N10      1.0000 0.99990  0.87400  0.76780  Biso   1.000  N
  N11      1.0000 0.99990  0.62600  0.26780  Biso   1.000  N
  N12      1.0000 0.00010  0.12600  0.23220  Biso   1.000  N
  N13      1.0000 0.17490  0.52061  0.88230  Biso   1.000  N
  N14      1.0000 0.82510  0.02061  0.61770  Biso   1.000  N
  N15      1.0000 0.82510  0.47939  0.11770  Biso   1.000  N
  N16      1.0000 0.17490  0.97939  0.38230  Biso   1.000  N
  N17      1.0000 0.16370  0.50622  0.99420  Biso   1.000  N
  N18      1.0000 0.83630  0.00622  0.50580  Biso   1.000  N
  N19      1.0000 0.83630  0.49378  0.00580  Biso   1.000  N
  N20      1.0000 0.16370  0.99378  0.49420  Biso   1.000  N
  N21      1.0000 0.15890  0.49163  0.10510  Biso   1.000  N
  N22      1.0000 0.84110  0.99163  0.39490  Biso   1.000  N
  N23      1.0000 0.84110  0.50837  0.89490  Biso   1.000  N
  N24      1.0000 0.15890  0.00837  0.60510  Biso   1.000  N
  N25      1.0000 0.19040  0.58468  0.59810  Biso   1.000  N
  N26      1.0000 0.80960  0.08468  0.90190  Biso   1.000  N
  N27      1.0000 0.80960  0.41532  0.40190  Biso   1.000  N
  N28      1.0000 0.19040  0.91532  0.09810  Biso   1.000  N
  N29      1.0000 0.26040  0.63115  0.58820  Biso   1.000  N
  N30      1.0000 0.73960  0.13115  0.91180  Biso   1.000  N
  N31      1.0000 0.73960  0.36885  0.41180  Biso   1.000  N
  N32      1.0000 0.26040  0.86885  0.08820  Biso   1.000  N
  N33      1.0000 0.33160  0.67710  0.58770  Biso   1.000  N
  N34      1.0000 0.66840  0.17710  0.91230  Biso   1.000  N
  N35      1.0000 0.66840  0.32290  0.41230  Biso   1.000  N
  N36      1.0000 0.33160  0.82290  0.08770  Biso   1.000  N
  N37      1.0000 0.02580  0.64927  0.82260  Biso   1.000  N
  N38      1.0000 0.97420  0.14927  0.67740  Biso   1.000  N
  N39      1.0000 0.97420  0.35073  0.17740  Biso   1.000  N
  N40      1.0000 0.02580  0.85073  0.32260  Biso   1.000  N
  N41      1.0000 0.65380  0.54109  0.34980  Biso   1.000  N
  N42      1.0000 0.34620  0.04109  0.15020  Biso   1.000  N
  N43      1.0000 0.34620  0.45891  0.65020  Biso   1.000  N
  N44      1.0000 0.65380  0.95891  0.84980  Biso   1.000  N
  C1       1.0000 0.80530  0.64407  0.54810  Biso   1.000  C
  C2       1.0000 0.19470  0.14407  0.95190  Biso   1.000  C
  C3       1.0000 0.19470  0.35593  0.45190  Biso   1.000  C
  C4       1.0000 0.80530  0.85593  0.04810  Biso   1.000  C
  C5       1.0000 0.85550  0.70000  0.62860  Biso   1.000  C
  C6       1.0000 0.14450  0.20000  0.87140  Biso   1.000  C
  C7       1.0000 0.14450  0.30000  0.37140  Biso   1.000  C
  C8       1.0000 0.85550  0.80000  0.12860  Biso   1.000  C
  C9       1.0000 0.80150  0.76147  0.58370  Biso   1.000  C
  C10      1.0000 0.19850  0.26147  0.91630  Biso   1.000  C
  C11      1.0000 0.19850  0.23853  0.41630  Biso   1.000  C
  C12      1.0000 0.80150  0.73853  0.08370  Biso   1.000  C
  H5       1.0000 0.83600  0.79800  0.63900  Biso   1.000  H
  H6       1.0000 0.16400  0.29800  0.86100  Biso   1.000  H
  H7       1.0000 0.16400  0.20200  0.36100  Biso   1.000  H
  H8       1.0000 0.83600  0.70200  0.13900  Biso   1.000  H
  C13      1.0000 0.70030  0.77167  0.46280  Biso   1.000  C
  C14      1.0000 0.29970  0.27167  0.03720  Biso   1.000  C
  C15      1.0000 0.29970  0.22833  0.53720  Biso   1.000  C
  C16      1.0000 0.70030  0.72833  0.96280  Biso   1.000  C
  C17      1.0000 0.65040  0.71717  0.38660  Biso   1.000  C
  C18      1.0000 0.34960  0.21717  0.11340  Biso   1.000  C
  C19      1.0000 0.34960  0.28283  0.61340  Biso   1.000  C
  C20      1.0000 0.65040  0.78283  0.88660  Biso   1.000  C
  H9       1.0000 0.58040  0.72260  0.30370  Biso   1.000  H
  H10      1.0000 0.41960  0.22260  0.19630  Biso   1.000  H
  H11      1.0000 0.41960  0.27740  0.69630  Biso   1.000  H
  H12      1.0000 0.58040  0.77740  0.80370  Biso   1.000  H
  C21      1.0000 0.69870  0.65411  0.42630  Biso   1.000  C
  C22      1.0000 0.30130  0.15411  0.07370  Biso   1.000  C
  C23      1.0000 0.30130  0.34589  0.57370  Biso   1.000  C
  C24      1.0000 0.69870  0.84589  0.92630  Biso   1.000  C
  C25      1.0000 0.95600  0.69800  0.76130  Biso   1.000  C
  C26      1.0000 0.04400  0.19800  0.73870  Biso   1.000  C
  C27      1.0000 0.04400  0.30200  0.23870  Biso   1.000  C
  C28      1.0000 0.95600  0.80200  0.26130  Biso   1.000  C
  H13      1.0000 0.97200  0.73820  0.80860  Biso   1.000  H
  H14      1.0000 0.02800  0.23820  0.69140  Biso   1.000  H
  H15      1.0000 0.02800  0.26180  0.19140  Biso   1.000  H
  H16      1.0000 0.97200  0.76180  0.30860  Biso   1.000  H
  C29      1.0000 0.64850  0.83920  0.41700  Biso   1.000  C
  C30      1.0000 0.35150  0.33920  0.08300  Biso   1.000  C
  C31      1.0000 0.35150  0.16080  0.58300  Biso   1.000  C
  C32      1.0000 0.64850  0.66080  0.91700  Biso   1.000  C
  H17      1.0000 0.60470  0.85950  0.48670  Biso   1.000  H
  H18      1.0000 0.39530  0.35950  0.01330  Biso   1.000  H
  H19      1.0000 0.39530  0.14050  0.51330  Biso   1.000  H
  H20      1.0000 0.60470  0.64050  0.98670  Biso   1.000  H
  H21      1.0000 0.57610  0.83660  0.33080  Biso   1.000  H
  H22      1.0000 0.42390  0.33660  0.16920  Biso   1.000  H
  H23      1.0000 0.42390  0.16340  0.66920  Biso   1.000  H
  H24      1.0000 0.57610  0.66340  0.83080  Biso   1.000  H
  H25      1.0000 0.73110  0.86540  0.40390  Biso   1.000  H
  H26      1.0000 0.26890  0.36540  0.09610  Biso   1.000  H
  H27      1.0000 0.26890  0.13460  0.59610  Biso   1.000  H
  H28      1.0000 0.73110  0.63460  0.90390  Biso   1.000  H
  C33      1.0000 0.62800  0.60204  0.33800  Biso   1.000  C
  C34      1.0000 0.37200  0.10204  0.16200  Biso   1.000  C
  C35      1.0000 0.37200  0.39796  0.66200  Biso   1.000  C
  C36      1.0000 0.62800  0.89796  0.83800  Biso   1.000  C
  H29      1.0000 0.55380  0.61490  0.26260  Biso   1.000  H
  H30      1.0000 0.44620  0.11490  0.23740  Biso   1.000  H
  H31      1.0000 0.44620  0.38510  0.73740  Biso   1.000  H
  H32      1.0000 0.55380  0.88510  0.76260  Biso   1.000  H
  C37      1.0000 0.12010  0.66308  0.95810  Biso   1.000  C
  C38      1.0000 0.87990  0.16308  0.54190  Biso   1.000  C
  C39      1.0000 0.87990  0.33692  0.04190  Biso   1.000  C
  C40      1.0000 0.12010  0.83692  0.45810  Biso   1.000  C
  H33      1.0000 0.11390  0.62670  0.02100  Biso   1.000  H
  H34      1.0000 0.88610  0.12670  0.47900  Biso   1.000  H
  H35      1.0000 0.88610  0.37330  0.97900  Biso   1.000  H
  H36      1.0000 0.11390  0.87330  0.52100  Biso   1.000  H
  H37      1.0000 0.08570  0.70290  0.99630  Biso   1.000  H
  H38      1.0000 0.91430  0.20290  0.50370  Biso   1.000  H
  H39      1.0000 0.91430  0.29710  0.00370  Biso   1.000  H
  H40      1.0000 0.08570  0.79710  0.49630  Biso   1.000  H
  C41      1.0000 0.27660  0.67210  0.94700  Biso   1.000  C
  C42      1.0000 0.72340  0.17210  0.55300  Biso   1.000  C
  C43      1.0000 0.72340  0.32790  0.05300  Biso   1.000  C
  C44      1.0000 0.27660  0.82790  0.44700  Biso   1.000  C
  H41      1.0000 0.31020  0.63300  0.90570  Biso   1.000  H
  H42      1.0000 0.68980  0.13300  0.59430  Biso   1.000  H
  H43      1.0000 0.68980  0.36700  0.09430  Biso   1.000  H
  H44      1.0000 0.31020  0.86700  0.40570  Biso   1.000  H
  H45      1.0000 0.28390  0.70960  0.88750  Biso   1.000  H
  H46      1.0000 0.71610  0.20960  0.61250  Biso   1.000  H
  H47      1.0000 0.71610  0.29040  0.11250  Biso   1.000  H
  H48      1.0000 0.28390  0.79040  0.38750  Biso   1.000  H
  C45      1.0000 0.55200  0.49795  0.25640  Biso   1.000  C
  C46      1.0000 0.44800  0.99795  0.24360  Biso   1.000  C
  C47      1.0000 0.44800  0.50205  0.74360  Biso   1.000  C
  C48      1.0000 0.55200  0.00205  0.75640  Biso   1.000  C
  H49      1.0000 0.60630  0.46160  0.22660  Biso   1.000  H
  H50      1.0000 0.39370  0.96160  0.27340  Biso   1.000  H
  H51      1.0000 0.39370  0.53840  0.77340  Biso   1.000  H
  H52      1.0000 0.60630  0.03840  0.72660  Biso   1.000  H
  H53      1.0000 0.50320  0.52250  0.17440  Biso   1.000  H
  H54      1.0000 0.49680  0.02250  0.32560  Biso   1.000  H
  H55      1.0000 0.49680  0.47750  0.82560  Biso   1.000  H
  H56      1.0000 0.50320  0.97750  0.67440  Biso   1.000  H
  C49      1.0000 0.43950  0.47168  0.33000  Biso   1.000  C
  C50      1.0000 0.56050  0.97168  0.17000  Biso   1.000  C
  C51      1.0000 0.56050  0.52832  0.67000  Biso   1.000  C
  C52      1.0000 0.43950  0.02832  0.83000  Biso   1.000  C
  H57      1.0000 0.38000  0.43820  0.27280  Biso   1.000  H
  H58      1.0000 0.62000  0.93820  0.22720  Biso   1.000  H
  H59      1.0000 0.62000  0.56180  0.72720  Biso   1.000  H
  H60      1.0000 0.38000  0.06180  0.77280  Biso   1.000  H
  H61      1.0000 0.48900  0.45110  0.41680  Biso   1.000  H
  H62      1.0000 0.51100  0.95110  0.08320  Biso   1.000  H
  H63      1.0000 0.51100  0.54890  0.58320  Biso   1.000  H
  H64      1.0000 0.48900  0.04890  0.91680  Biso   1.000  H
  H65      1.0000 0.29500  0.52760  0.28300  Biso   1.000  H
  H66      1.0000 0.70500  0.02760  0.21700  Biso   1.000  H
  H67      1.0000 0.70500  0.47240  0.71700  Biso   1.000  H
  H68      1.0000 0.29500  0.97240  0.78300  Biso   1.000  H
