data_image0
_cell_length_a       5.726
_cell_length_b       8.806
_cell_length_c       12.866
_cell_angle_alpha    90
_cell_angle_beta     101.12
_cell_angle_gamma    90

_symmetry_space_group_name_H-M    "P 1"
_symmetry_int_tables_number       1

loop_
  _symmetry_equiv_pos_as_xyz
  'x, y, z'

loop_
  _atom_site_label
  _atom_site_occupancy
  _atom_site_fract_x
  _atom_site_fract_y
  _atom_site_fract_z
  _atom_site_thermal_displace_type
  _atom_site_B_iso_or_equiv
  _atom_site_type_symbol
  Cu1      1.0000 0.50000  0.45689  0.25000  Biso   1.000  Cu
  Cu2      1.0000 0.50000  0.54311  0.75000  Biso   1.000  Cu
  O1       1.0000 0.29080  0.29950  0.17490  Biso   1.000  O
  O2       1.0000 0.70920  0.29950  0.32510  Biso   1.000  O
  O3       1.0000 0.70920  0.70050  0.82510  Biso   1.000  O
  O4       1.0000 0.29080  0.70050  0.67490  Biso   1.000  O
  O5       1.0000 0.46420  0.29370  0.03550  Biso   1.000  O
  O6       1.0000 0.53580  0.29370  0.46450  Biso   1.000  O
  O7       1.0000 0.53580  0.70630  0.96450  Biso   1.000  O
  O8       1.0000 0.46420  0.70630  0.53550  Biso   1.000  O
  O9       1.0000 0.16720  0.48080  0.36590  Biso   1.000  O
  O10      1.0000 0.83280  0.48080  0.13410  Biso   1.000  O
  O11      1.0000 0.83280  0.51920  0.63410  Biso   1.000  O
  O12      1.0000 0.16720  0.51920  0.86590  Biso   1.000  O
  N1       1.0000 0.66610  0.62510  0.34070  Biso   1.000  N
  N2       1.0000 0.33390  0.62510  0.15930  Biso   1.000  N
  N3       1.0000 0.33390  0.37490  0.65930  Biso   1.000  N
  N4       1.0000 0.66610  0.37490  0.84070  Biso   1.000  N
  C1       1.0000 0.62730  0.76750  0.28000  Biso   1.000  C
  C2       1.0000 0.37270  0.76750  0.22000  Biso   1.000  C
  C3       1.0000 0.37270  0.23250  0.72000  Biso   1.000  C
  C4       1.0000 0.62730  0.23250  0.78000  Biso   1.000  C
  C5       1.0000 0.31680  0.24790  0.08600  Biso   1.000  C
  C6       1.0000 0.68320  0.24790  0.41400  Biso   1.000  C
  C7       1.0000 0.68320  0.75210  0.91400  Biso   1.000  C
  C8       1.0000 0.31680  0.75210  0.58600  Biso   1.000  C
  C9       1.0000 0.15070  0.12020  0.04170  Biso   1.000  C
  C10      1.0000 0.84930  0.12020  0.45830  Biso   1.000  C
  C11      1.0000 0.84930  0.87980  0.95830  Biso   1.000  C
  C12      1.0000 0.15070  0.87980  0.54170  Biso   1.000  C
  C13      1.0000 0.19220  0.03850  0.95370  Biso   1.000  C
  C14      1.0000 0.80780  0.03850  0.54630  Biso   1.000  C
  C15      1.0000 0.80780  0.96150  0.04630  Biso   1.000  C
  C16      1.0000 0.19220  0.96150  0.45370  Biso   1.000  C
  C17      1.0000 0.95670  0.08040  0.08800  Biso   1.000  C
  C18      1.0000 0.04330  0.08040  0.41200  Biso   1.000  C
  C19      1.0000 0.04330  0.91960  0.91200  Biso   1.000  C
  C20      1.0000 0.95670  0.91960  0.58800  Biso   1.000  C
  H1       1.0000 0.01100  0.53400  0.34500  Biso   1.000  H
  H2       1.0000 0.98900  0.53400  0.15500  Biso   1.000  H
  H3       1.0000 0.98900  0.46600  0.65500  Biso   1.000  H
  H4       1.0000 0.01100  0.46600  0.84500  Biso   1.000  H
  H5       1.0000 0.17200  0.43700  0.43700  Biso   1.000  H
  H6       1.0000 0.82800  0.43700  0.06300  Biso   1.000  H
  H7       1.0000 0.82800  0.56300  0.56300  Biso   1.000  H
  H8       1.0000 0.17200  0.56300  0.93700  Biso   1.000  H
  H9       1.0000 0.59900  0.63400  0.40800  Biso   1.000  H
  H10      1.0000 0.40100  0.63400  0.09200  Biso   1.000  H
  H11      1.0000 0.40100  0.36600  0.59200  Biso   1.000  H
  H12      1.0000 0.59900  0.36600  0.90800  Biso   1.000  H
  H13      1.0000 0.84300  0.60200  0.36100  Biso   1.000  H
  H14      1.0000 0.15700  0.60200  0.13900  Biso   1.000  H
  H15      1.0000 0.15700  0.39800  0.63900  Biso   1.000  H
  H16      1.0000 0.84300  0.39800  0.86100  Biso   1.000  H
  H17      1.0000 0.65900  0.86500  0.33300  Biso   1.000  H
  H18      1.0000 0.34100  0.86500  0.16700  Biso   1.000  H
  H19      1.0000 0.34100  0.13500  0.66700  Biso   1.000  H
  H20      1.0000 0.65900  0.13500  0.83300  Biso   1.000  H
  H21      1.0000 0.74900  0.77400  0.22500  Biso   1.000  H
  H22      1.0000 0.25100  0.77400  0.27500  Biso   1.000  H
  H23      1.0000 0.25100  0.22600  0.77500  Biso   1.000  H
  H24      1.0000 0.74900  0.22600  0.72500  Biso   1.000  H
  H25      1.0000 0.34300  0.06900  0.91700  Biso   1.000  H
  H26      1.0000 0.65700  0.06900  0.58300  Biso   1.000  H
  H27      1.0000 0.65700  0.93100  0.08300  Biso   1.000  H
  H28      1.0000 0.34300  0.93100  0.41700  Biso   1.000  H
  H29      1.0000 0.92300  0.14300  0.15700  Biso   1.000  H
  H30      1.0000 0.07700  0.14300  0.34300  Biso   1.000  H
  H31      1.0000 0.07700  0.85700  0.84300  Biso   1.000  H
  H32      1.0000 0.92300  0.85700  0.65700  Biso   1.000  H
