data_image0
_cell_length_a       10.408
_cell_length_b       17.12
_cell_length_c       11.582
_cell_angle_alpha    90
_cell_angle_beta     114.531
_cell_angle_gamma    90

_symmetry_space_group_name_H-M    "P 1"
_symmetry_int_tables_number       1

loop_
  _symmetry_equiv_pos_as_xyz
  'x, y, z'

loop_
  _atom_site_label
  _atom_site_occupancy
  _atom_site_fract_x
  _atom_site_fract_y
  _atom_site_fract_z
  _atom_site_thermal_displace_type
  _atom_site_B_iso_or_equiv
  _atom_site_type_symbol
  Cu1      1.0000 0.23195  0.21872  0.75074  Biso   1.000  Cu
  Cu2      1.0000 0.76805  0.71872  0.74926  Biso   1.000  Cu
  Cu3      1.0000 0.76805  0.78128  0.24926  Biso   1.000  Cu
  Cu4      1.0000 0.23195  0.28128  0.25074  Biso   1.000  Cu
  S1       1.0000 0.80594  0.21083  0.89212  Biso   1.000  S
  S2       1.0000 0.19406  0.71083  0.60788  Biso   1.000  S
  S3       1.0000 0.19406  0.78917  0.10788  Biso   1.000  S
  S4       1.0000 0.80594  0.28917  0.39212  Biso   1.000  S
  O1       1.0000 0.31800  0.21897  0.94370  Biso   1.000  O
  O2       1.0000 0.68200  0.71897  0.55630  Biso   1.000  O
  O3       1.0000 0.68200  0.78103  0.05630  Biso   1.000  O
  O4       1.0000 0.31800  0.28103  0.44370  Biso   1.000  O
  H1       1.0000 0.38600  0.20440  0.98800  Biso   1.000  H
  H2       1.0000 0.61400  0.70440  0.51200  Biso   1.000  H
  H3       1.0000 0.61400  0.79560  0.01200  Biso   1.000  H
  H4       1.0000 0.38600  0.29560  0.48800  Biso   1.000  H
  H5       1.0000 0.28900  0.24620  0.98300  Biso   1.000  H
  H6       1.0000 0.71100  0.74620  0.51700  Biso   1.000  H
  H7       1.0000 0.71100  0.75380  0.01700  Biso   1.000  H
  H8       1.0000 0.28900  0.25380  0.48300  Biso   1.000  H
  O5       1.0000 0.42950  0.16678  0.76990  Biso   1.000  O
  O6       1.0000 0.57050  0.66678  0.73010  Biso   1.000  O
  O7       1.0000 0.57050  0.83322  0.23010  Biso   1.000  O
  O8       1.0000 0.42950  0.33322  0.26990  Biso   1.000  O
  H9       1.0000 0.42200  0.13500  0.71800  Biso   1.000  H
  H10      1.0000 0.57800  0.63500  0.78200  Biso   1.000  H
  H11      1.0000 0.57800  0.86500  0.28200  Biso   1.000  H
  H12      1.0000 0.42200  0.36500  0.21800  Biso   1.000  H
  H13      1.0000 0.49100  0.19400  0.77200  Biso   1.000  H
  H14      1.0000 0.50900  0.69400  0.72800  Biso   1.000  H
  H15      1.0000 0.50900  0.80600  0.22800  Biso   1.000  H
  H16      1.0000 0.49100  0.30600  0.27200  Biso   1.000  H
  O9       1.0000 0.16440  0.20549  0.55070  Biso   1.000  O
  O10      1.0000 0.83560  0.70549  0.94930  Biso   1.000  O
  O11      1.0000 0.83560  0.79451  0.44930  Biso   1.000  O
  O12      1.0000 0.16440  0.29451  0.05070  Biso   1.000  O
  H17      1.0000 0.08400  0.21700  0.50600  Biso   1.000  H
  H18      1.0000 0.91600  0.71700  0.99400  Biso   1.000  H
  H19      1.0000 0.91600  0.78300  0.49400  Biso   1.000  H
  H20      1.0000 0.08400  0.28300  0.00600  Biso   1.000  H
  H21      1.0000 0.16400  0.15700  0.52600  Biso   1.000  H
  H22      1.0000 0.83600  0.65700  0.97400  Biso   1.000  H
  H23      1.0000 0.83600  0.84300  0.47400  Biso   1.000  H
  H24      1.0000 0.16400  0.34300  0.02600  Biso   1.000  H
  O13      1.0000 0.02690  0.27076  0.73340  Biso   1.000  O
  O14      1.0000 0.97310  0.77076  0.76660  Biso   1.000  O
  O15      1.0000 0.97310  0.72924  0.26660  Biso   1.000  O
  O16      1.0000 0.02690  0.22924  0.23340  Biso   1.000  O
  H25      1.0000 0.96100  0.28430  0.66400  Biso   1.000  H
  H26      1.0000 0.03900  0.78430  0.83600  Biso   1.000  H
  H27      1.0000 0.03900  0.71570  0.33600  Biso   1.000  H
  H28      1.0000 0.96100  0.21570  0.16400  Biso   1.000  H
  H29      1.0000 0.99500  0.25700  0.77100  Biso   1.000  H
  H30      1.0000 0.00500  0.75700  0.72900  Biso   1.000  H
  H31      1.0000 0.00500  0.74300  0.22900  Biso   1.000  H
  H32      1.0000 0.99500  0.24300  0.27100  Biso   1.000  H
  O17      1.0000 0.66820  0.23780  0.80520  Biso   1.000  O
  O18      1.0000 0.33180  0.73780  0.69480  Biso   1.000  O
  O19      1.0000 0.33180  0.76220  0.19480  Biso   1.000  O
  O20      1.0000 0.66820  0.26220  0.30520  Biso   1.000  O
  O21      1.0000 0.89710  0.27826  0.91900  Biso   1.000  O
  O22      1.0000 0.10290  0.77826  0.58100  Biso   1.000  O
  O23      1.0000 0.10290  0.72174  0.08100  Biso   1.000  O
  O24      1.0000 0.89710  0.22174  0.41900  Biso   1.000  O
  O25      1.0000 0.86040  0.15460  0.83530  Biso   1.000  O
  O26      1.0000 0.13960  0.65460  0.66470  Biso   1.000  O
  O27      1.0000 0.13960  0.84540  0.16470  Biso   1.000  O
  O28      1.0000 0.86040  0.34540  0.33530  Biso   1.000  O
  O29      1.0000 0.80570  0.18500  0.01000  Biso   1.000  O
  O30      1.0000 0.19430  0.68500  0.49000  Biso   1.000  O
  O31      1.0000 0.19430  0.81500  0.99000  Biso   1.000  O
  O32      1.0000 0.80570  0.31500  0.51000  Biso   1.000  O
  O33      1.0000 0.57890  0.17176  0.08750  Biso   1.000  O
  O34      1.0000 0.42110  0.67176  0.41250  Biso   1.000  O
  O35      1.0000 0.42110  0.82824  0.91250  Biso   1.000  O
  O36      1.0000 0.57890  0.32824  0.58750  Biso   1.000  O
  H33      1.0000 0.60700  0.19700  0.14900  Biso   1.000  H
  H34      1.0000 0.39300  0.69700  0.35100  Biso   1.000  H
  H35      1.0000 0.39300  0.80300  0.85100  Biso   1.000  H
  H36      1.0000 0.60700  0.30300  0.64900  Biso   1.000  H
  H37      1.0000 0.63200  0.17900  0.05600  Biso   1.000  H
  H38      1.0000 0.36800  0.67900  0.44400  Biso   1.000  H
  H39      1.0000 0.36800  0.82100  0.94400  Biso   1.000  H
  H40      1.0000 0.63200  0.32100  0.55600  Biso   1.000  H
  N1       1.0000 0.29120  0.33057  0.73960  Biso   1.000  N
  N2       1.0000 0.70880  0.83057  0.76040  Biso   1.000  N
  N3       1.0000 0.70880  0.66943  0.26040  Biso   1.000  N
  N4       1.0000 0.29120  0.16943  0.23960  Biso   1.000  N
  N5       1.0000 0.14850  0.38864  0.24730  Biso   1.000  N
  N6       1.0000 0.85150  0.88864  0.25270  Biso   1.000  N
  N7       1.0000 0.85150  0.61136  0.75270  Biso   1.000  N
  N8       1.0000 0.14850  0.11136  0.74730  Biso   1.000  N
  N9       1.0000 0.62850  0.54163  0.89750  Biso   1.000  N
  N10      1.0000 0.37150  0.04163  0.60250  Biso   1.000  N
  N11      1.0000 0.37150  0.45837  0.10250  Biso   1.000  N
  N12      1.0000 0.62850  0.95837  0.39750  Biso   1.000  N
  N13      1.0000 0.76580  0.55261  0.98720  Biso   1.000  N
  N14      1.0000 0.23420  0.05261  0.51280  Biso   1.000  N
  N15      1.0000 0.23420  0.44739  0.01280  Biso   1.000  N
  N16      1.0000 0.76580  0.94739  0.48720  Biso   1.000  N
  N17      1.0000 0.70030  0.43387  0.00559  Biso   1.000  N
  N18      1.0000 0.29970  0.93387  0.49441  Biso   1.000  N
  N19      1.0000 0.29970  0.56613  0.99441  Biso   1.000  N
  N20      1.0000 0.70030  0.06613  0.50559  Biso   1.000  N
  N21      1.0000 0.69080  0.35969  0.05350  Biso   1.000  N
  N22      1.0000 0.30920  0.85969  0.44650  Biso   1.000  N
  N23      1.0000 0.30920  0.64031  0.94650  Biso   1.000  N
  N24      1.0000 0.69080  0.14031  0.55350  Biso   1.000  N
  C1       1.0000 0.41510  0.35948  0.82370  Biso   1.000  C
  C2       1.0000 0.58490  0.85948  0.67630  Biso   1.000  C
  C3       1.0000 0.58490  0.64052  0.17630  Biso   1.000  C
  C4       1.0000 0.41510  0.14052  0.32370  Biso   1.000  C
  H41      1.0000 0.47840  0.32570  0.88500  Biso   1.000  H
  H42      1.0000 0.52160  0.82570  0.61500  Biso   1.000  H
  H43      1.0000 0.52160  0.67430  0.11500  Biso   1.000  H
  H44      1.0000 0.47840  0.17430  0.38500  Biso   1.000  H
  C5       1.0000 0.45280  0.43674  0.82340  Biso   1.000  C
  C6       1.0000 0.54720  0.93674  0.67660  Biso   1.000  C
  C7       1.0000 0.54720  0.56326  0.17660  Biso   1.000  C
  C8       1.0000 0.45280  0.06326  0.32340  Biso   1.000  C
  C9       1.0000 0.35760  0.48698  0.73380  Biso   1.000  C
  C10      1.0000 0.64240  0.98698  0.76620  Biso   1.000  C
  C11      1.0000 0.64240  0.51302  0.26620  Biso   1.000  C
  C12      1.0000 0.35760  0.01302  0.23380  Biso   1.000  C
  H45      1.0000 0.37910  0.54020  0.73240  Biso   1.000  H
  H46      1.0000 0.62090  0.04020  0.76760  Biso   1.000  H
  H47      1.0000 0.62090  0.45980  0.26760  Biso   1.000  H
  H48      1.0000 0.37910  0.95980  0.23240  Biso   1.000  H
  C13      1.0000 0.23090  0.45688  0.64710  Biso   1.000  C
  C14      1.0000 0.76910  0.95688  0.85290  Biso   1.000  C
  C15      1.0000 0.76910  0.54312  0.35290  Biso   1.000  C
  C16      1.0000 0.23090  0.04312  0.14710  Biso   1.000  C
  H49      1.0000 0.16480  0.48940  0.58560  Biso   1.000  H
  H50      1.0000 0.83520  0.98940  0.91440  Biso   1.000  H
  H51      1.0000 0.83520  0.51060  0.41440  Biso   1.000  H
  H52      1.0000 0.16480  0.01060  0.08560  Biso   1.000  H
  C17      1.0000 0.20290  0.37877  0.65190  Biso   1.000  C
  C18      1.0000 0.79710  0.87877  0.84810  Biso   1.000  C
  C19      1.0000 0.79710  0.62123  0.34810  Biso   1.000  C
  C20      1.0000 0.20290  0.12123  0.15190  Biso   1.000  C
  H53      1.0000 0.11800  0.35840  0.59090  Biso   1.000  H
  H54      1.0000 0.88200  0.85840  0.90910  Biso   1.000  H
  H55      1.0000 0.88200  0.64160  0.40910  Biso   1.000  H
  H56      1.0000 0.11800  0.14160  0.09090  Biso   1.000  H
  C21      1.0000 0.01560  0.40232  0.16320  Biso   1.000  C
  C22      1.0000 0.98440  0.90232  0.33680  Biso   1.000  C
  C23      1.0000 0.98440  0.59768  0.83680  Biso   1.000  C
  C24      1.0000 0.01560  0.09768  0.66320  Biso   1.000  C
  H57      1.0000 0.96360  0.36080  0.11190  Biso   1.000  H
  H58      1.0000 0.03640  0.86080  0.38810  Biso   1.000  H
  H59      1.0000 0.03640  0.63920  0.88810  Biso   1.000  H
  H60      1.0000 0.96360  0.13920  0.61190  Biso   1.000  H
  C25      1.0000 0.95150  0.47444  0.14850  Biso   1.000  C
  C26      1.0000 0.04850  0.97444  0.35150  Biso   1.000  C
  C27      1.0000 0.04850  0.52556  0.85150  Biso   1.000  C
  C28      1.0000 0.95150  0.02556  0.64850  Biso   1.000  C
  C29      1.0000 0.02930  0.53593  0.22300  Biso   1.000  C
  C30      1.0000 0.97070  0.03593  0.27700  Biso   1.000  C
  C31      1.0000 0.97070  0.46407  0.77700  Biso   1.000  C
  C32      1.0000 0.02930  0.96407  0.72300  Biso   1.000  C
  H61      1.0000 0.99020  0.58620  0.21430  Biso   1.000  H
  H62      1.0000 0.00980  0.08620  0.28570  Biso   1.000  H
  H63      1.0000 0.00980  0.41380  0.78570  Biso   1.000  H
  H64      1.0000 0.99020  0.91380  0.71430  Biso   1.000  H
  C33      1.0000 0.16620  0.52121  0.31070  Biso   1.000  C
  C34      1.0000 0.83380  0.02121  0.18930  Biso   1.000  C
  C35      1.0000 0.83380  0.47879  0.68930  Biso   1.000  C
  C36      1.0000 0.16620  0.97879  0.81070  Biso   1.000  C
  H65      1.0000 0.22090  0.56160  0.36300  Biso   1.000  H
  H66      1.0000 0.77910  0.06160  0.13700  Biso   1.000  H
  H67      1.0000 0.77910  0.43840  0.63700  Biso   1.000  H
  H68      1.0000 0.22090  0.93840  0.86300  Biso   1.000  H
  C37      1.0000 0.22150  0.44789  0.32080  Biso   1.000  C
  C38      1.0000 0.77850  0.94789  0.17920  Biso   1.000  C
  C39      1.0000 0.77850  0.55211  0.67920  Biso   1.000  C
  C40      1.0000 0.22150  0.05211  0.82080  Biso   1.000  C
  H69      1.0000 0.31390  0.43870  0.38160  Biso   1.000  H
  H70      1.0000 0.68610  0.93870  0.11840  Biso   1.000  H
  H71      1.0000 0.68610  0.56130  0.61840  Biso   1.000  H
  H72      1.0000 0.31390  0.06130  0.88160  Biso   1.000  H
  C41      1.0000 0.59180  0.47022  0.90980  Biso   1.000  C
  C42      1.0000 0.40820  0.97022  0.59020  Biso   1.000  C
  C43      1.0000 0.40820  0.52978  0.09020  Biso   1.000  C
  C44      1.0000 0.59180  0.02978  0.40980  Biso   1.000  C
  C45      1.0000 0.80790  0.48719  0.04970  Biso   1.000  C
  C46      1.0000 0.19210  0.98719  0.45030  Biso   1.000  C
  C47      1.0000 0.19210  0.51281  0.95030  Biso   1.000  C
  C48      1.0000 0.80790  0.01281  0.54970  Biso   1.000  C
  H73      1.0000 0.72700  0.36300  0.13500  Biso   1.000  H
  H74      1.0000 0.27300  0.86300  0.36500  Biso   1.000  H
  H75      1.0000 0.27300  0.63700  0.86500  Biso   1.000  H
  H76      1.0000 0.72700  0.13700  0.63500  Biso   1.000  H
  H77      1.0000 0.72900  0.32200  0.02900  Biso   1.000  H
  H78      1.0000 0.27100  0.82200  0.47100  Biso   1.000  H
  H79      1.0000 0.27100  0.67800  0.97100  Biso   1.000  H
  H80      1.0000 0.72900  0.17800  0.52900  Biso   1.000  H
