data_image0
_cell_length_a       7.2114
_cell_length_b       11.5938
_cell_length_c       22.398
_cell_angle_alpha    90
_cell_angle_beta     94.164
_cell_angle_gamma    90

_symmetry_space_group_name_H-M    "P 1"
_symmetry_int_tables_number       1

loop_
  _symmetry_equiv_pos_as_xyz
  'x, y, z'

loop_
  _atom_site_label
  _atom_site_occupancy
  _atom_site_fract_x
  _atom_site_fract_y
  _atom_site_fract_z
  _atom_site_thermal_displace_type
  _atom_site_B_iso_or_equiv
  _atom_site_type_symbol
  Cu1      1.0000 0.58737  0.95536  0.74028  Biso   1.000  Cu
  Cu2      1.0000 0.91263  0.45536  0.75972  Biso   1.000  Cu
  Cu3      1.0000 0.41263  0.04464  0.25972  Biso   1.000  Cu
  Cu4      1.0000 0.08737  0.54464  0.24027  Biso   1.000  Cu
  S1       1.0000 0.42961  0.22127  0.81910  Biso   1.000  S
  S2       1.0000 0.07039  0.72127  0.68090  Biso   1.000  S
  S3       1.0000 0.57039  0.77873  0.18090  Biso   1.000  S
  S4       1.0000 0.92961  0.27873  0.31910  Biso   1.000  S
  O1       1.0000 0.58360  0.15690  0.79536  Biso   1.000  O
  O2       1.0000 0.91640  0.65690  0.70464  Biso   1.000  O
  O3       1.0000 0.41640  0.84310  0.20464  Biso   1.000  O
  O4       1.0000 0.08360  0.34310  0.29536  Biso   1.000  O
  O5       1.0000 0.25480  0.15500  0.80773  Biso   1.000  O
  O6       1.0000 0.24520  0.65500  0.69227  Biso   1.000  O
  O7       1.0000 0.74520  0.84500  0.19227  Biso   1.000  O
  O8       1.0000 0.75480  0.34500  0.30773  Biso   1.000  O
  O9       1.0000 0.41110  0.33320  0.78804  Biso   1.000  O
  O10      1.0000 0.08890  0.83320  0.71196  Biso   1.000  O
  O11      1.0000 0.58890  0.66680  0.21196  Biso   1.000  O
  O12      1.0000 0.91110  0.16680  0.28804  Biso   1.000  O
  O13      1.0000 0.46340  0.23990  0.88316  Biso   1.000  O
  O14      1.0000 0.03660  0.73990  0.61684  Biso   1.000  O
  O15      1.0000 0.53660  0.76010  0.11684  Biso   1.000  O
  O16      1.0000 0.96340  0.26010  0.38316  Biso   1.000  O
  O17      1.0000 0.35850  0.93070  0.78433  Biso   1.000  O
  O18      1.0000 0.14150  0.43070  0.71567  Biso   1.000  O
  O19      1.0000 0.64150  0.06930  0.21567  Biso   1.000  O
  O20      1.0000 0.85850  0.56930  0.28433  Biso   1.000  O
  H1       1.0000 0.27300  0.90000  0.76320  Biso   1.000  H
  H2       1.0000 0.22700  0.40000  0.73680  Biso   1.000  H
  H3       1.0000 0.72700  0.10000  0.23680  Biso   1.000  H
  H4       1.0000 0.77300  0.60000  0.26320  Biso   1.000  H
  H5       1.0000 0.32900  0.99900  0.78900  Biso   1.000  H
  H6       1.0000 0.17100  0.49900  0.71100  Biso   1.000  H
  H7       1.0000 0.67100  0.00100  0.21100  Biso   1.000  H
  H8       1.0000 0.82900  0.50100  0.28900  Biso   1.000  H
  O21      1.0000 0.81570  0.99450  0.69992  Biso   1.000  O
  O22      1.0000 0.68430  0.49450  0.80008  Biso   1.000  O
  O23      1.0000 0.18430  0.00550  0.30008  Biso   1.000  O
  O24      1.0000 0.31570  0.50550  0.19992  Biso   1.000  O
  H9       1.0000 0.81000  0.02300  0.66540  Biso   1.000  H
  H10      1.0000 0.69000  0.52300  0.83460  Biso   1.000  H
  H11      1.0000 0.19000  0.97700  0.33460  Biso   1.000  H
  H12      1.0000 0.31000  0.47700  0.16540  Biso   1.000  H
  H13      1.0000 0.87700  0.93300  0.70400  Biso   1.000  H
  H14      1.0000 0.62300  0.43300  0.79600  Biso   1.000  H
  H15      1.0000 0.12300  0.06700  0.29600  Biso   1.000  H
  H16      1.0000 0.37700  0.56700  0.20400  Biso   1.000  H
  O25      1.0000 0.57740  0.77270  0.71169  Biso   1.000  O
  O26      1.0000 0.92260  0.27270  0.78831  Biso   1.000  O
  O27      1.0000 0.42260  0.22730  0.28831  Biso   1.000  O
  O28      1.0000 0.07740  0.72730  0.21169  Biso   1.000  O
  H17      1.0000 0.48400  0.72600  0.70400  Biso   1.000  H
  H18      1.0000 0.01600  0.22600  0.79600  Biso   1.000  H
  H19      1.0000 0.51600  0.27400  0.29600  Biso   1.000  H
  H20      1.0000 0.98400  0.77400  0.20400  Biso   1.000  H
  H21      1.0000 0.67600  0.73700  0.70600  Biso   1.000  H
  H22      1.0000 0.82400  0.23700  0.79400  Biso   1.000  H
  H23      1.0000 0.32400  0.26300  0.29400  Biso   1.000  H
  H24      1.0000 0.17600  0.76300  0.20600  Biso   1.000  H
  O29      1.0000 0.28800  0.22740  0.44455  Biso   1.000  O
  O30      1.0000 0.21200  0.72740  0.05545  Biso   1.000  O
  O31      1.0000 0.71200  0.77260  0.55545  Biso   1.000  O
  O32      1.0000 0.78800  0.27260  0.94455  Biso   1.000  O
  H25      1.0000 0.27700  0.15100  0.43700  Biso   1.000  H
  H26      1.0000 0.22300  0.65100  0.06300  Biso   1.000  H
  H27      1.0000 0.72300  0.84900  0.56300  Biso   1.000  H
  H28      1.0000 0.77700  0.34900  0.93700  Biso   1.000  H
  H29      1.0000 0.18000  0.24600  0.42100  Biso   1.000  H
  H30      1.0000 0.32000  0.74600  0.07900  Biso   1.000  H
  H31      1.0000 0.82000  0.75400  0.57900  Biso   1.000  H
  H32      1.0000 0.68000  0.25400  0.92100  Biso   1.000  H
  O33      1.0000 0.94880  0.52850  0.47870  Biso   1.000  O
  O34      1.0000 0.55120  0.02850  0.02130  Biso   1.000  O
  O35      1.0000 0.05120  0.47150  0.52130  Biso   1.000  O
  O36      1.0000 0.44880  0.97150  0.97870  Biso   1.000  O
  O37      1.0000 0.93330  0.63600  0.47190  Biso   1.000  O
  O38      1.0000 0.56670  0.13600  0.02810  Biso   1.000  O
  O39      1.0000 0.06670  0.36400  0.52810  Biso   1.000  O
  O40      1.0000 0.43330  0.86400  0.97190  Biso   1.000  O
  N1       1.0000 0.74980  0.91430  0.81497  Biso   1.000  N
  N2       1.0000 0.75020  0.41430  0.68503  Biso   1.000  N
  N3       1.0000 0.25020  0.08570  0.18503  Biso   1.000  N
  N4       1.0000 0.24980  0.58570  0.31497  Biso   1.000  N
  N5       1.0000 0.92860  0.48630  0.16759  Biso   1.000  N
  N6       1.0000 0.57140  0.98630  0.33241  Biso   1.000  N
  N7       1.0000 0.07140  0.51370  0.83241  Biso   1.000  N
  N8       1.0000 0.42860  0.01370  0.66759  Biso   1.000  N
  N9       1.0000 0.74150  0.59570  0.91330  Biso   1.000  N
  N10      1.0000 0.75850  0.09570  0.58670  Biso   1.000  N
  N11      1.0000 0.25850  0.40430  0.08670  Biso   1.000  N
  N12      1.0000 0.24150  0.90430  0.41330  Biso   1.000  N
  N13      1.0000 0.73520  0.51710  0.95952  Biso   1.000  N
  N14      1.0000 0.76480  0.01710  0.54048  Biso   1.000  N
  N15      1.0000 0.26480  0.48290  0.04048  Biso   1.000  N
  N16      1.0000 0.23520  0.98290  0.45952  Biso   1.000  N
  N17      1.0000 0.80480  0.68630  0.99837  Biso   1.000  N
  N18      1.0000 0.69520  0.18630  0.50163  Biso   1.000  N
  N19      1.0000 0.19520  0.31370  0.00163  Biso   1.000  N
  N20      1.0000 0.30480  0.81370  0.49837  Biso   1.000  N
  N21      1.0000 0.83290  0.77950  0.03801  Biso   1.000  N
  N22      1.0000 0.66710  0.27950  0.46199  Biso   1.000  N
  N23      1.0000 0.16710  0.22050  0.96199  Biso   1.000  N
  N24      1.0000 0.33290  0.72050  0.53801  Biso   1.000  N
  H33      1.0000 0.83740  0.84860  0.02430  Biso   1.000  H
  H34      1.0000 0.66260  0.34860  0.47570  Biso   1.000  H
  H35      1.0000 0.16260  0.15140  0.97570  Biso   1.000  H
  H36      1.0000 0.33740  0.65140  0.52430  Biso   1.000  H
  H37      1.0000 0.84560  0.76740  0.07600  Biso   1.000  H
  H38      1.0000 0.65440  0.26740  0.42400  Biso   1.000  H
  H39      1.0000 0.15440  0.23260  0.92400  Biso   1.000  H
  H40      1.0000 0.34560  0.73260  0.57600  Biso   1.000  H
  C1       1.0000 0.71550  0.82370  0.85000  Biso   1.000  C
  C2       1.0000 0.78450  0.32370  0.65000  Biso   1.000  C
  C3       1.0000 0.28450  0.17630  0.15000  Biso   1.000  C
  C4       1.0000 0.21550  0.67630  0.35000  Biso   1.000  C
  H41      1.0000 0.61880  0.77400  0.83800  Biso   1.000  H
  H42      1.0000 0.88120  0.27400  0.66200  Biso   1.000  H
  H43      1.0000 0.38120  0.22600  0.16200  Biso   1.000  H
  H44      1.0000 0.11880  0.72600  0.33800  Biso   1.000  H
  C5       1.0000 0.81890  0.80170  0.90335  Biso   1.000  C
  C6       1.0000 0.68110  0.30170  0.59665  Biso   1.000  C
  C7       1.0000 0.18110  0.19830  0.09665  Biso   1.000  C
  C8       1.0000 0.31890  0.69830  0.40335  Biso   1.000  C
  C9       1.0000 0.96380  0.87580  0.92114  Biso   1.000  C
  C10      1.0000 0.53620  0.37580  0.57886  Biso   1.000  C
  C11      1.0000 0.03620  0.12420  0.07886  Biso   1.000  C
  C12      1.0000 0.46380  0.62420  0.42114  Biso   1.000  C
  H45      1.0000 0.03480  0.86360  0.95690  Biso   1.000  H
  H46      1.0000 0.46520  0.36360  0.54310  Biso   1.000  H
  H47      1.0000 0.96520  0.13640  0.04310  Biso   1.000  H
  H48      1.0000 0.53480  0.63640  0.45690  Biso   1.000  H
  C13      1.0000 0.00050  0.96810  0.88472  Biso   1.000  C
  C14      1.0000 0.49950  0.46810  0.61528  Biso   1.000  C
  C15      1.0000 0.99950  0.03190  0.11528  Biso   1.000  C
  C16      1.0000 0.50050  0.53190  0.38472  Biso   1.000  C
  H49      1.0000 0.09740  0.01860  0.89540  Biso   1.000  H
  H50      1.0000 0.40260  0.51860  0.60460  Biso   1.000  H
  H51      1.0000 0.90260  0.98140  0.10460  Biso   1.000  H
  H52      1.0000 0.59740  0.48140  0.39540  Biso   1.000  H
  C17      1.0000 0.89140  0.98380  0.83255  Biso   1.000  C
  C18      1.0000 0.60860  0.48380  0.66745  Biso   1.000  C
  C19      1.0000 0.10860  0.01620  0.16745  Biso   1.000  C
  C20      1.0000 0.39140  0.51620  0.33255  Biso   1.000  C
  H53      1.0000 0.91720  0.04580  0.80820  Biso   1.000  H
  H54      1.0000 0.58280  0.54580  0.69180  Biso   1.000  H
  H55      1.0000 0.08280  0.95420  0.19180  Biso   1.000  H
  H56      1.0000 0.41720  0.45420  0.30820  Biso   1.000  H
  C21      1.0000 0.89980  0.55020  0.11810  Biso   1.000  C
  C22      1.0000 0.60020  0.05020  0.38190  Biso   1.000  C
  C23      1.0000 0.10020  0.44980  0.88190  Biso   1.000  C
  C24      1.0000 0.39980  0.94980  0.61810  Biso   1.000  C
  H57      1.0000 0.95330  0.62310  0.11710  Biso   1.000  H
  H58      1.0000 0.54670  0.12310  0.38290  Biso   1.000  H
  H59      1.0000 0.04670  0.37690  0.88290  Biso   1.000  H
  H60      1.0000 0.45330  0.87690  0.61710  Biso   1.000  H
  C25      1.0000 0.79230  0.51120  0.06802  Biso   1.000  C
  C26      1.0000 0.70770  0.01120  0.43198  Biso   1.000  C
  C27      1.0000 0.20770  0.48880  0.93198  Biso   1.000  C
  C28      1.0000 0.29230  0.98880  0.56802  Biso   1.000  C
  C29      1.0000 0.70770  0.40370  0.07069  Biso   1.000  C
  C30      1.0000 0.79230  0.90370  0.42931  Biso   1.000  C
  C31      1.0000 0.29230  0.59630  0.92931  Biso   1.000  C
  C32      1.0000 0.20770  0.09630  0.57069  Biso   1.000  C
  H61      1.0000 0.63000  0.37700  0.03870  Biso   1.000  H
  H62      1.0000 0.87000  0.87700  0.46130  Biso   1.000  H
  H63      1.0000 0.37000  0.62300  0.96130  Biso   1.000  H
  H64      1.0000 0.13000  0.12300  0.53870  Biso   1.000  H
  C33      1.0000 0.74040  0.33730  0.12111  Biso   1.000  C
  C34      1.0000 0.75960  0.83730  0.37889  Biso   1.000  C
  C35      1.0000 0.25960  0.66270  0.87889  Biso   1.000  C
  C36      1.0000 0.24040  0.16270  0.62111  Biso   1.000  C
  H65      1.0000 0.68790  0.26430  0.12330  Biso   1.000  H
  H66      1.0000 0.81210  0.76430  0.37670  Biso   1.000  H
  H67      1.0000 0.31210  0.73570  0.87670  Biso   1.000  H
  H68      1.0000 0.18790  0.23570  0.62330  Biso   1.000  H
  C37      1.0000 0.85210  0.38040  0.16848  Biso   1.000  C
  C38      1.0000 0.64790  0.88040  0.33152  Biso   1.000  C
  C39      1.0000 0.14790  0.61960  0.83152  Biso   1.000  C
  C40      1.0000 0.35210  0.11960  0.66848  Biso   1.000  C
  H69      1.0000 0.87540  0.33470  0.20230  Biso   1.000  H
  H70      1.0000 0.62460  0.83470  0.29770  Biso   1.000  H
  H71      1.0000 0.12460  0.66530  0.79770  Biso   1.000  H
  H72      1.0000 0.37540  0.16530  0.70230  Biso   1.000  H
  C41      1.0000 0.78310  0.69630  0.93751  Biso   1.000  C
  C42      1.0000 0.71690  0.19630  0.56249  Biso   1.000  C
  C43      1.0000 0.21690  0.30370  0.06249  Biso   1.000  C
  C44      1.0000 0.28310  0.80370  0.43751  Biso   1.000  C
  C45      1.0000 0.77530  0.57220  0.00989  Biso   1.000  C
  C46      1.0000 0.72470  0.07220  0.49011  Biso   1.000  C
  C47      1.0000 0.22470  0.42780  0.99011  Biso   1.000  C
  C48      1.0000 0.27530  0.92780  0.50989  Biso   1.000  C
