data_image0
_cell_length_a       10.947
_cell_length_b       17.61
_cell_length_c       7.439
_cell_angle_alpha    90
_cell_angle_beta     90.426
_cell_angle_gamma    90

_symmetry_space_group_name_H-M    "P 1"
_symmetry_int_tables_number       1

loop_
  _symmetry_equiv_pos_as_xyz
  'x, y, z'

loop_
  _atom_site_label
  _atom_site_occupancy
  _atom_site_fract_x
  _atom_site_fract_y
  _atom_site_fract_z
  _atom_site_thermal_displace_type
  _atom_site_B_iso_or_equiv
  _atom_site_type_symbol
  Cu1      1.0000 0.27111  0.36311  0.01912  Biso   1.000  Cu
  Cu2      1.0000 0.72889  0.86311  0.48088  Biso   1.000  Cu
  Cu3      1.0000 0.72889  0.63689  0.98088  Biso   1.000  Cu
  Cu4      1.0000 0.27111  0.13689  0.51912  Biso   1.000  Cu
  S1       1.0000 0.18505  0.32157  0.41052  Biso   1.000  S
  S2       1.0000 0.81495  0.82157  0.08948  Biso   1.000  S
  S3       1.0000 0.81495  0.67843  0.58948  Biso   1.000  S
  S4       1.0000 0.18505  0.17843  0.91052  Biso   1.000  S
  O1       1.0000 0.37070  0.39463  0.81050  Biso   1.000  O
  O2       1.0000 0.62930  0.89463  0.68950  Biso   1.000  O
  O3       1.0000 0.62930  0.60537  0.18950  Biso   1.000  O
  O4       1.0000 0.37070  0.10537  0.31050  Biso   1.000  O
  O5       1.0000 0.16280  0.34548  0.21920  Biso   1.000  O
  O6       1.0000 0.83720  0.84548  0.28080  Biso   1.000  O
  O7       1.0000 0.83720  0.65452  0.78080  Biso   1.000  O
  O8       1.0000 0.16280  0.15452  0.71920  Biso   1.000  O
  O9       1.0000 0.26130  0.25291  0.41260  Biso   1.000  O
  O10      1.0000 0.73870  0.75291  0.08740  Biso   1.000  O
  O11      1.0000 0.73870  0.74709  0.58740  Biso   1.000  O
  O12      1.0000 0.26130  0.24709  0.91260  Biso   1.000  O
  O13      1.0000 0.06390  0.30777  0.48720  Biso   1.000  O
  O14      1.0000 0.93610  0.80777  0.01280  Biso   1.000  O
  O15      1.0000 0.93610  0.69223  0.51280  Biso   1.000  O
  O16      1.0000 0.06390  0.19223  0.98720  Biso   1.000  O
  O17      1.0000 0.24810  0.38390  0.50370  Biso   1.000  O
  O18      1.0000 0.75190  0.88390  0.99630  Biso   1.000  O
  O19      1.0000 0.75190  0.61610  0.49630  Biso   1.000  O
  O20      1.0000 0.24810  0.11610  0.00370  Biso   1.000  O
  N1       1.0000 0.42650  0.35903  0.16270  Biso   1.000  N
  N2       1.0000 0.57350  0.85903  0.33730  Biso   1.000  N
  N3       1.0000 0.57350  0.64097  0.83730  Biso   1.000  N
  N4       1.0000 0.42650  0.14097  0.66270  Biso   1.000  N
  N5       1.0000 0.13110  0.08538  0.39390  Biso   1.000  N
  N6       1.0000 0.86890  0.58538  0.10610  Biso   1.000  N
  N7       1.0000 0.86890  0.91462  0.60610  Biso   1.000  N
  N8       1.0000 0.13110  0.41462  0.89390  Biso   1.000  N
  N9       1.0000 0.61160  0.15294  0.29140  Biso   1.000  N
  N10      1.0000 0.38840  0.65294  0.20860  Biso   1.000  N
  N11      1.0000 0.38840  0.84706  0.70860  Biso   1.000  N
  N12      1.0000 0.61160  0.34706  0.79140  Biso   1.000  N
  N13      1.0000 0.69900  0.09649  0.29980  Biso   1.000  N
  N14      1.0000 0.30100  0.59649  0.20020  Biso   1.000  N
  N15      1.0000 0.30100  0.90351  0.70020  Biso   1.000  N
  N16      1.0000 0.69900  0.40351  0.79980  Biso   1.000  N
  N17      1.0000 0.79170  0.20656  0.26550  Biso   1.000  N
  N18      1.0000 0.20830  0.70656  0.23450  Biso   1.000  N
  N19      1.0000 0.20830  0.79344  0.73450  Biso   1.000  N
  N20      1.0000 0.79170  0.29344  0.76550  Biso   1.000  N
  N21      1.0000 0.87940  0.26195  0.21750  Biso   1.000  N
  N22      1.0000 0.12060  0.76195  0.28250  Biso   1.000  N
  N23      1.0000 0.12060  0.73805  0.78250  Biso   1.000  N
  N24      1.0000 0.87940  0.23805  0.71750  Biso   1.000  N
  H1       1.0000 0.95350  0.24860  0.19610  Biso   1.000  H
  H2       1.0000 0.04650  0.74860  0.30390  Biso   1.000  H
  H3       1.0000 0.04650  0.75140  0.80390  Biso   1.000  H
  H4       1.0000 0.95350  0.25140  0.69610  Biso   1.000  H
  H5       1.0000 0.85860  0.30890  0.20960  Biso   1.000  H
  H6       1.0000 0.14140  0.80890  0.29040  Biso   1.000  H
  H7       1.0000 0.14140  0.69110  0.79040  Biso   1.000  H
  H8       1.0000 0.85860  0.19110  0.70960  Biso   1.000  H
  C1       1.0000 0.49180  0.29510  0.17350  Biso   1.000  C
  C2       1.0000 0.50820  0.79510  0.32650  Biso   1.000  C
  C3       1.0000 0.50820  0.70490  0.82650  Biso   1.000  C
  C4       1.0000 0.49180  0.20490  0.67350  Biso   1.000  C
  H9       1.0000 0.46010  0.25110  0.12190  Biso   1.000  H
  H10      1.0000 0.53990  0.75110  0.37810  Biso   1.000  H
  H11      1.0000 0.53990  0.74890  0.87810  Biso   1.000  H
  H12      1.0000 0.46010  0.24890  0.62190  Biso   1.000  H
  C5       1.0000 0.60610  0.29160  0.25950  Biso   1.000  C
  C6       1.0000 0.39390  0.79160  0.24050  Biso   1.000  C
  C7       1.0000 0.39390  0.70840  0.74050  Biso   1.000  C
  C8       1.0000 0.60610  0.20840  0.75950  Biso   1.000  C
  C9       1.0000 0.65090  0.35760  0.33810  Biso   1.000  C
  C10      1.0000 0.34910  0.85760  0.16190  Biso   1.000  C
  C11      1.0000 0.34910  0.64240  0.66190  Biso   1.000  C
  C12      1.0000 0.65090  0.14240  0.83810  Biso   1.000  C
  H13      1.0000 0.72660  0.35750  0.39560  Biso   1.000  H
  H14      1.0000 0.27340  0.85750  0.10440  Biso   1.000  H
  H15      1.0000 0.27340  0.64250  0.60440  Biso   1.000  H
  H16      1.0000 0.72660  0.14250  0.89560  Biso   1.000  H
  C13      1.0000 0.58260  0.42310  0.33050  Biso   1.000  C
  C14      1.0000 0.41740  0.92310  0.16950  Biso   1.000  C
  C15      1.0000 0.41740  0.57690  0.66950  Biso   1.000  C
  C16      1.0000 0.58260  0.07690  0.83050  Biso   1.000  C
  H17      1.0000 0.61070  0.46740  0.38520  Biso   1.000  H
  H18      1.0000 0.38930  0.96740  0.11480  Biso   1.000  H
  H19      1.0000 0.38930  0.53260  0.61480  Biso   1.000  H
  H20      1.0000 0.61070  0.03260  0.88520  Biso   1.000  H
  C17      1.0000 0.47090  0.42230  0.23970  Biso   1.000  C
  C18      1.0000 0.52910  0.92230  0.26030  Biso   1.000  C
  C19      1.0000 0.52910  0.57770  0.76030  Biso   1.000  C
  C20      1.0000 0.47090  0.07770  0.73970  Biso   1.000  C
  H21      1.0000 0.42570  0.46690  0.23220  Biso   1.000  H
  H22      1.0000 0.57430  0.96690  0.26780  Biso   1.000  H
  H23      1.0000 0.57430  0.53310  0.76780  Biso   1.000  H
  H24      1.0000 0.42570  0.03310  0.73220  Biso   1.000  H
  C21      1.0000 0.02480  0.12210  0.37540  Biso   1.000  C
  C22      1.0000 0.97520  0.62210  0.12460  Biso   1.000  C
  C23      1.0000 0.97520  0.87790  0.62460  Biso   1.000  C
  C24      1.0000 0.02480  0.37790  0.87540  Biso   1.000  C
  H25      1.0000 0.01850  0.17130  0.42010  Biso   1.000  H
  H26      1.0000 0.98150  0.67130  0.07990  Biso   1.000  H
  H27      1.0000 0.98150  0.82870  0.57990  Biso   1.000  H
  H28      1.0000 0.01850  0.32870  0.92010  Biso   1.000  H
  C25      1.0000 0.92360  0.08980  0.29230  Biso   1.000  C
  C26      1.0000 0.07640  0.58980  0.20770  Biso   1.000  C
  C27      1.0000 0.07640  0.91020  0.70770  Biso   1.000  C
  C28      1.0000 0.92360  0.41020  0.79230  Biso   1.000  C
  C29      1.0000 0.93350  0.01680  0.22550  Biso   1.000  C
  C30      1.0000 0.06650  0.51680  0.27450  Biso   1.000  C
  C31      1.0000 0.06650  0.98320  0.77450  Biso   1.000  C
  C32      1.0000 0.93350  0.48320  0.72550  Biso   1.000  C
  H29      1.0000 0.86740  0.99380  0.16850  Biso   1.000  H
  H30      1.0000 0.13260  0.49380  0.33150  Biso   1.000  H
  H31      1.0000 0.13260  0.00620  0.83150  Biso   1.000  H
  H32      1.0000 0.86740  0.50620  0.66850  Biso   1.000  H
  C33      1.0000 0.04240  0.97880  0.24440  Biso   1.000  C
  C34      1.0000 0.95760  0.47880  0.25560  Biso   1.000  C
  C35      1.0000 0.95760  0.02120  0.75560  Biso   1.000  C
  C36      1.0000 0.04240  0.52120  0.74440  Biso   1.000  C
  H33      1.0000 0.05070  0.92960  0.20070  Biso   1.000  H
  H34      1.0000 0.94930  0.42960  0.29930  Biso   1.000  H
  H35      1.0000 0.94930  0.07040  0.79930  Biso   1.000  H
  H36      1.0000 0.05070  0.57040  0.70070  Biso   1.000  H
  C37      1.0000 0.13900  0.01430  0.32890  Biso   1.000  C
  C38      1.0000 0.86100  0.51430  0.17110  Biso   1.000  C
  C39      1.0000 0.86100  0.98570  0.67110  Biso   1.000  C
  C40      1.0000 0.13900  0.48570  0.82890  Biso   1.000  C
  H37      1.0000 0.21240  0.98820  0.34140  Biso   1.000  H
  H38      1.0000 0.78760  0.48820  0.15860  Biso   1.000  H
  H39      1.0000 0.78760  0.01180  0.65860  Biso   1.000  H
  H40      1.0000 0.21240  0.51180  0.84140  Biso   1.000  H
  C41      1.0000 0.66750  0.21890  0.26990  Biso   1.000  C
  C42      1.0000 0.33250  0.71890  0.23010  Biso   1.000  C
  C43      1.0000 0.33250  0.78110  0.73010  Biso   1.000  C
  C44      1.0000 0.66750  0.28110  0.76990  Biso   1.000  C
  C45      1.0000 0.80670  0.12980  0.28490  Biso   1.000  C
  C46      1.0000 0.19330  0.62980  0.21510  Biso   1.000  C
  C47      1.0000 0.19330  0.87020  0.71510  Biso   1.000  C
  C48      1.0000 0.80670  0.37020  0.78490  Biso   1.000  C
  H41      1.0000 0.34700  0.38700  0.72600  Biso   1.000  H
  H42      1.0000 0.65300  0.88700  0.77400  Biso   1.000  H
  H43      1.0000 0.65300  0.61300  0.27400  Biso   1.000  H
  H44      1.0000 0.34700  0.11300  0.22600  Biso   1.000  H
  H45      1.0000 0.44600  0.37500  0.79900  Biso   1.000  H
  H46      1.0000 0.55400  0.87500  0.70100  Biso   1.000  H
  H47      1.0000 0.55400  0.62500  0.20100  Biso   1.000  H
  H48      1.0000 0.44600  0.12500  0.29900  Biso   1.000  H
