data_image0
_cell_length_a       10.9136
_cell_length_b       17.598
_cell_length_c       7.4391
_cell_angle_alpha    90
_cell_angle_beta     90.448
_cell_angle_gamma    90

_symmetry_space_group_name_H-M    "P 1"
_symmetry_int_tables_number       1

loop_
  _symmetry_equiv_pos_as_xyz
  'x, y, z'

loop_
  _atom_site_label
  _atom_site_occupancy
  _atom_site_fract_x
  _atom_site_fract_y
  _atom_site_fract_z
  _atom_site_thermal_displace_type
  _atom_site_B_iso_or_equiv
  _atom_site_type_symbol
  Cu1      1.0000 0.72922  0.13693  0.98104  Biso   1.000  Cu
  Cu2      1.0000 0.27078  0.63693  0.51896  Biso   1.000  Cu
  Cu3      1.0000 0.27078  0.86307  0.01896  Biso   1.000  Cu
  Cu4      1.0000 0.72922  0.36307  0.48104  Biso   1.000  Cu
  S1       1.0000 0.81519  0.17844  0.58977  Biso   1.000  S
  S2       1.0000 0.18481  0.67844  0.91023  Biso   1.000  S
  S3       1.0000 0.18481  0.82156  0.41023  Biso   1.000  S
  S4       1.0000 0.81519  0.32156  0.08977  Biso   1.000  S
  C1       1.0000 0.86130  0.01440  0.17110  Biso   1.000  C
  C2       1.0000 0.13870  0.51440  0.32890  Biso   1.000  C
  C3       1.0000 0.13870  0.98560  0.82890  Biso   1.000  C
  C4       1.0000 0.86130  0.48560  0.67110  Biso   1.000  C
  H1       1.0000 0.78770  0.98830  0.15810  Biso   1.000  H
  H2       1.0000 0.21230  0.48830  0.34190  Biso   1.000  H
  H3       1.0000 0.21230  0.01170  0.84190  Biso   1.000  H
  H4       1.0000 0.78770  0.51170  0.65810  Biso   1.000  H
  C5       1.0000 0.95720  0.97910  0.25540  Biso   1.000  C
  C6       1.0000 0.04280  0.47910  0.24460  Biso   1.000  C
  C7       1.0000 0.04280  0.02090  0.74460  Biso   1.000  C
  C8       1.0000 0.95720  0.52090  0.75540  Biso   1.000  C
  H5       1.0000 0.94830  0.93000  0.29960  Biso   1.000  H
  H6       1.0000 0.05170  0.43000  0.20040  Biso   1.000  H
  H7       1.0000 0.05170  0.07000  0.70040  Biso   1.000  H
  H8       1.0000 0.94830  0.57000  0.79960  Biso   1.000  H
  C9       1.0000 0.06720  0.01670  0.27470  Biso   1.000  C
  C10      1.0000 0.93280  0.51670  0.22530  Biso   1.000  C
  C11      1.0000 0.93280  0.98330  0.72530  Biso   1.000  C
  C12      1.0000 0.06720  0.48330  0.77470  Biso   1.000  C
  H9       1.0000 0.13380  0.99360  0.33110  Biso   1.000  H
  H10      1.0000 0.86620  0.49360  0.16890  Biso   1.000  H
  H11      1.0000 0.86620  0.00640  0.66890  Biso   1.000  H
  H12      1.0000 0.13380  0.50640  0.83110  Biso   1.000  H
  C13      1.0000 0.07610  0.08990  0.20770  Biso   1.000  C
  C14      1.0000 0.92390  0.58990  0.29230  Biso   1.000  C
  C15      1.0000 0.92390  0.91010  0.79230  Biso   1.000  C
  C16      1.0000 0.07610  0.41010  0.70770  Biso   1.000  C
  C17      1.0000 0.97550  0.12210  0.12510  Biso   1.000  C
  C18      1.0000 0.02450  0.62210  0.37490  Biso   1.000  C
  C19      1.0000 0.02450  0.87790  0.87490  Biso   1.000  C
  C20      1.0000 0.97550  0.37790  0.62510  Biso   1.000  C
  H13      1.0000 0.98200  0.17130  0.08090  Biso   1.000  H
  H14      1.0000 0.01800  0.67130  0.41910  Biso   1.000  H
  H15      1.0000 0.01800  0.82870  0.91910  Biso   1.000  H
  H16      1.0000 0.98200  0.32870  0.58090  Biso   1.000  H
  C21      1.0000 0.19370  0.12980  0.21530  Biso   1.000  C
  C22      1.0000 0.80630  0.62980  0.28470  Biso   1.000  C
  C23      1.0000 0.80630  0.87020  0.78470  Biso   1.000  C
  C24      1.0000 0.19370  0.37020  0.71530  Biso   1.000  C
  C25      1.0000 0.33230  0.21830  0.22980  Biso   1.000  C
  C26      1.0000 0.66770  0.71830  0.27020  Biso   1.000  C
  C27      1.0000 0.66770  0.78170  0.77020  Biso   1.000  C
  C28      1.0000 0.33230  0.28170  0.72980  Biso   1.000  C
  C29      1.0000 0.39430  0.29160  0.24200  Biso   1.000  C
  C30      1.0000 0.60570  0.79160  0.25800  Biso   1.000  C
  C31      1.0000 0.60570  0.70840  0.75800  Biso   1.000  C
  C32      1.0000 0.39430  0.20840  0.74200  Biso   1.000  C
  C33      1.0000 0.34980  0.35750  0.16150  Biso   1.000  C
  C34      1.0000 0.65020  0.85750  0.33850  Biso   1.000  C
  C35      1.0000 0.65020  0.64250  0.83850  Biso   1.000  C
  C36      1.0000 0.34980  0.14250  0.66150  Biso   1.000  C
  H17      1.0000 0.27470  0.35710  0.10160  Biso   1.000  H
  H18      1.0000 0.72530  0.85710  0.39840  Biso   1.000  H
  H19      1.0000 0.72530  0.64290  0.89840  Biso   1.000  H
  H20      1.0000 0.27470  0.14290  0.60160  Biso   1.000  H
  C37      1.0000 0.41800  0.42350  0.17110  Biso   1.000  C
  C38      1.0000 0.58200  0.92350  0.32890  Biso   1.000  C
  C39      1.0000 0.58200  0.57650  0.82890  Biso   1.000  C
  C40      1.0000 0.41800  0.07650  0.67110  Biso   1.000  C
  H21      1.0000 0.38950  0.46810  0.11840  Biso   1.000  H
  H22      1.0000 0.61050  0.96810  0.38160  Biso   1.000  H
  H23      1.0000 0.61050  0.53190  0.88160  Biso   1.000  H
  H24      1.0000 0.38950  0.03190  0.61840  Biso   1.000  H
  C41      1.0000 0.52910  0.42200  0.26030  Biso   1.000  C
  C42      1.0000 0.47090  0.92200  0.23970  Biso   1.000  C
  C43      1.0000 0.47090  0.57800  0.73970  Biso   1.000  C
  C44      1.0000 0.52910  0.07800  0.76030  Biso   1.000  C
  H25      1.0000 0.57500  0.46640  0.26690  Biso   1.000  H
  H26      1.0000 0.42500  0.96640  0.23310  Biso   1.000  H
  H27      1.0000 0.42500  0.53360  0.73310  Biso   1.000  H
  H28      1.0000 0.57500  0.03360  0.76690  Biso   1.000  H
  C45      1.0000 0.50800  0.29490  0.32730  Biso   1.000  C
  C46      1.0000 0.49200  0.79490  0.17270  Biso   1.000  C
  C47      1.0000 0.49200  0.70510  0.67270  Biso   1.000  C
  C48      1.0000 0.50800  0.20510  0.82730  Biso   1.000  C
  H29      1.0000 0.53970  0.25090  0.37880  Biso   1.000  H
  H30      1.0000 0.46030  0.75090  0.12120  Biso   1.000  H
  H31      1.0000 0.46030  0.74910  0.62120  Biso   1.000  H
  H32      1.0000 0.53970  0.24910  0.87880  Biso   1.000  H
  N1       1.0000 0.86940  0.08561  0.10590  Biso   1.000  N
  N2       1.0000 0.13060  0.58561  0.39410  Biso   1.000  N
  N3       1.0000 0.13060  0.91439  0.89410  Biso   1.000  N
  N4       1.0000 0.86940  0.41439  0.60590  Biso   1.000  N
  N5       1.0000 0.30060  0.09641  0.19990  Biso   1.000  N
  N6       1.0000 0.69940  0.59641  0.30010  Biso   1.000  N
  N7       1.0000 0.69940  0.90359  0.80010  Biso   1.000  N
  N8       1.0000 0.30060  0.40359  0.69990  Biso   1.000  N
  N9       1.0000 0.38880  0.15321  0.20960  Biso   1.000  N
  N10      1.0000 0.61120  0.65321  0.29040  Biso   1.000  N
  N11      1.0000 0.61120  0.84679  0.79040  Biso   1.000  N
  N12      1.0000 0.38880  0.34679  0.70960  Biso   1.000  N
  N13      1.0000 0.20880  0.20660  0.23480  Biso   1.000  N
  N14      1.0000 0.79120  0.70660  0.26520  Biso   1.000  N
  N15      1.0000 0.79120  0.79340  0.76520  Biso   1.000  N
  N16      1.0000 0.20880  0.29340  0.73480  Biso   1.000  N
  N17      1.0000 0.12030  0.26168  0.28280  Biso   1.000  N
  N18      1.0000 0.87970  0.76168  0.21720  Biso   1.000  N
  N19      1.0000 0.87970  0.73832  0.71720  Biso   1.000  N
  N20      1.0000 0.12030  0.23832  0.78280  Biso   1.000  N
  H33      1.0000 0.14310  0.30680  0.31200  Biso   1.000  H
  H34      1.0000 0.85690  0.80680  0.18800  Biso   1.000  H
  H35      1.0000 0.85690  0.69320  0.68800  Biso   1.000  H
  H36      1.0000 0.14310  0.19320  0.81200  Biso   1.000  H
  H37      1.0000 0.04380  0.25000  0.28270  Biso   1.000  H
  H38      1.0000 0.95620  0.75000  0.21730  Biso   1.000  H
  H39      1.0000 0.95620  0.75000  0.71730  Biso   1.000  H
  H40      1.0000 0.04380  0.25000  0.78270  Biso   1.000  H
  N21      1.0000 0.57350  0.35893  0.33800  Biso   1.000  N
  N22      1.0000 0.42650  0.85893  0.16200  Biso   1.000  N
  N23      1.0000 0.42650  0.64107  0.66200  Biso   1.000  N
  N24      1.0000 0.57350  0.14107  0.83800  Biso   1.000  N
  O1       1.0000 0.83760  0.15462  0.78060  Biso   1.000  O
  O2       1.0000 0.16240  0.65462  0.71940  Biso   1.000  O
  O3       1.0000 0.16240  0.84538  0.21940  Biso   1.000  O
  O4       1.0000 0.83760  0.34538  0.28060  Biso   1.000  O
  O5       1.0000 0.93660  0.19239  0.51340  Biso   1.000  O
  O6       1.0000 0.06340  0.69239  0.98660  Biso   1.000  O
  O7       1.0000 0.06340  0.80761  0.48660  Biso   1.000  O
  O8       1.0000 0.93660  0.30761  0.01340  Biso   1.000  O
  O9       1.0000 0.75230  0.11614  0.49690  Biso   1.000  O
  O10      1.0000 0.24770  0.61614  0.00310  Biso   1.000  O
  O11      1.0000 0.24770  0.88386  0.50310  Biso   1.000  O
  O12      1.0000 0.75230  0.38386  0.99690  Biso   1.000  O
  O13      1.0000 0.73960  0.24705  0.58760  Biso   1.000  O
  O14      1.0000 0.26040  0.74705  0.91240  Biso   1.000  O
  O15      1.0000 0.26040  0.75295  0.41240  Biso   1.000  O
  O16      1.0000 0.73960  0.25295  0.08760  Biso   1.000  O
  O17      1.0000 0.62990  0.10530  0.19080  Biso   1.000  O
  O18      1.0000 0.37010  0.60530  0.30920  Biso   1.000  O
  O19      1.0000 0.37010  0.89470  0.80920  Biso   1.000  O
  O20      1.0000 0.62990  0.39470  0.69080  Biso   1.000  O
  H41      1.0000 0.66510  0.11780  0.28400  Biso   1.000  H
  H42      1.0000 0.33490  0.61780  0.21600  Biso   1.000  H
  H43      1.0000 0.33490  0.88220  0.71600  Biso   1.000  H
  H44      1.0000 0.66510  0.38220  0.78400  Biso   1.000  H
  H45      1.0000 0.55690  0.12340  0.19150  Biso   1.000  H
  H46      1.0000 0.44310  0.62340  0.30850  Biso   1.000  H
  H47      1.0000 0.44310  0.87660  0.80850  Biso   1.000  H
  H48      1.0000 0.55690  0.37660  0.69150  Biso   1.000  H
