data_image0
_cell_length_a       15.7078
_cell_length_b       15.7078
_cell_length_c       20.465
_cell_angle_alpha    90
_cell_angle_beta     90
_cell_angle_gamma    90

_symmetry_space_group_name_H-M    "P 1"
_symmetry_int_tables_number       1

loop_
  _symmetry_equiv_pos_as_xyz
  'x, y, z'

loop_
  _atom_site_label
  _atom_site_occupancy
  _atom_site_fract_x
  _atom_site_fract_y
  _atom_site_fract_z
  _atom_site_thermal_displace_type
  _atom_site_B_iso_or_equiv
  _atom_site_type_symbol
  Cu1      1.0000 0.25000  0.25000  0.53479  Biso   1.000  Cu
  Cu2      1.0000 0.25000  0.25000  0.96521  Biso   1.000  Cu
  Cu3      1.0000 0.75000  0.75000  0.46521  Biso   1.000  Cu
  Cu4      1.0000 0.75000  0.75000  0.03479  Biso   1.000  Cu
  Cl1      1.0000 0.25000  0.25000  0.41786  Biso   1.000  Cl
  Cl2      1.0000 0.25000  0.25000  0.08214  Biso   1.000  Cl
  Cl3      1.0000 0.75000  0.75000  0.58214  Biso   1.000  Cl
  Cl4      1.0000 0.75000  0.75000  0.91786  Biso   1.000  Cl
  O1       1.0000 0.25000  0.25000  0.64730  Biso   1.000  O
  O2       1.0000 0.25000  0.25000  0.85270  Biso   1.000  O
  O3       1.0000 0.75000  0.75000  0.35270  Biso   1.000  O
  O4       1.0000 0.75000  0.75000  0.14730  Biso   1.000  O
  N1       1.0000 0.32760  0.35800  0.54529  Biso   1.000  N
  N2       1.0000 0.14200  0.32760  0.54529  Biso   1.000  N
  N3       1.0000 0.17240  0.14200  0.54529  Biso   1.000  N
  N4       1.0000 0.35800  0.17240  0.54529  Biso   1.000  N
  N5       1.0000 0.32760  0.14200  0.95471  Biso   1.000  N
  N6       1.0000 0.35800  0.32760  0.95471  Biso   1.000  N
  N7       1.0000 0.17240  0.35800  0.95471  Biso   1.000  N
  N8       1.0000 0.14200  0.17240  0.95471  Biso   1.000  N
  N9       1.0000 0.67240  0.64200  0.45471  Biso   1.000  N
  N10      1.0000 0.85800  0.67240  0.45471  Biso   1.000  N
  N11      1.0000 0.82760  0.85800  0.45471  Biso   1.000  N
  N12      1.0000 0.64200  0.82760  0.45471  Biso   1.000  N
  N13      1.0000 0.67240  0.85800  0.04529  Biso   1.000  N
  N14      1.0000 0.64200  0.67240  0.04529  Biso   1.000  N
  N15      1.0000 0.82760  0.64200  0.04529  Biso   1.000  N
  N16      1.0000 0.85800  0.82760  0.04529  Biso   1.000  N
  N17      1.0000 0.42340  0.44210  0.59325  Biso   1.000  N
  N18      1.0000 0.05790  0.42340  0.59325  Biso   1.000  N
  N19      1.0000 0.07660  0.05790  0.59325  Biso   1.000  N
  N20      1.0000 0.44210  0.07660  0.59325  Biso   1.000  N
  N21      1.0000 0.42340  0.05790  0.90675  Biso   1.000  N
  N22      1.0000 0.44210  0.42340  0.90675  Biso   1.000  N
  N23      1.0000 0.07660  0.44210  0.90675  Biso   1.000  N
  N24      1.0000 0.05790  0.07660  0.90675  Biso   1.000  N
  N25      1.0000 0.57660  0.55790  0.40675  Biso   1.000  N
  N26      1.0000 0.94210  0.57660  0.40675  Biso   1.000  N
  N27      1.0000 0.92340  0.94210  0.40675  Biso   1.000  N
  N28      1.0000 0.55790  0.92340  0.40675  Biso   1.000  N
  N29      1.0000 0.57660  0.94210  0.09325  Biso   1.000  N
  N30      1.0000 0.55790  0.57660  0.09325  Biso   1.000  N
  N31      1.0000 0.92340  0.55790  0.09325  Biso   1.000  N
  N32      1.0000 0.94210  0.92340  0.09325  Biso   1.000  N
  C1       1.0000 0.38590  0.36490  0.59080  Biso   1.000  C
  C2       1.0000 0.13510  0.38590  0.59080  Biso   1.000  C
  C3       1.0000 0.11410  0.13510  0.59080  Biso   1.000  C
  C4       1.0000 0.36490  0.11410  0.59080  Biso   1.000  C
  C5       1.0000 0.38590  0.13510  0.90920  Biso   1.000  C
  C6       1.0000 0.36490  0.38590  0.90920  Biso   1.000  C
  C7       1.0000 0.11410  0.36490  0.90920  Biso   1.000  C
  C8       1.0000 0.13510  0.11410  0.90920  Biso   1.000  C
  C9       1.0000 0.61410  0.63510  0.40920  Biso   1.000  C
  C10      1.0000 0.86490  0.61410  0.40920  Biso   1.000  C
  C11      1.0000 0.88590  0.86490  0.40920  Biso   1.000  C
  C12      1.0000 0.63510  0.88590  0.40920  Biso   1.000  C
  C13      1.0000 0.61410  0.86490  0.09080  Biso   1.000  C
  C14      1.0000 0.63510  0.61410  0.09080  Biso   1.000  C
  C15      1.0000 0.88590  0.63510  0.09080  Biso   1.000  C
  C16      1.0000 0.86490  0.88590  0.09080  Biso   1.000  C
  H1       1.0000 0.40020  0.32050  0.61880  Biso   1.000  H
  H2       1.0000 0.17950  0.40020  0.61880  Biso   1.000  H
  H3       1.0000 0.09980  0.17950  0.61880  Biso   1.000  H
  H4       1.0000 0.32050  0.09980  0.61880  Biso   1.000  H
  H5       1.0000 0.40020  0.17950  0.88120  Biso   1.000  H
  H6       1.0000 0.32050  0.40020  0.88120  Biso   1.000  H
  H7       1.0000 0.09980  0.32050  0.88120  Biso   1.000  H
  H8       1.0000 0.17950  0.09980  0.88120  Biso   1.000  H
  H9       1.0000 0.59980  0.67950  0.38120  Biso   1.000  H
  H10      1.0000 0.82050  0.59980  0.38120  Biso   1.000  H
  H11      1.0000 0.90020  0.82050  0.38120  Biso   1.000  H
  H12      1.0000 0.67950  0.90020  0.38120  Biso   1.000  H
  H13      1.0000 0.59980  0.82050  0.11880  Biso   1.000  H
  H14      1.0000 0.67950  0.59980  0.11880  Biso   1.000  H
  H15      1.0000 0.90020  0.67950  0.11880  Biso   1.000  H
  H16      1.0000 0.82050  0.90020  0.11880  Biso   1.000  H
  C17      1.0000 0.32660  0.43740  0.51460  Biso   1.000  C
  C18      1.0000 0.06260  0.32660  0.51460  Biso   1.000  C
  C19      1.0000 0.17340  0.06260  0.51460  Biso   1.000  C
  C20      1.0000 0.43740  0.17340  0.51460  Biso   1.000  C
  C21      1.0000 0.32660  0.06260  0.98540  Biso   1.000  C
  C22      1.0000 0.43740  0.32660  0.98540  Biso   1.000  C
  C23      1.0000 0.17340  0.43740  0.98540  Biso   1.000  C
  C24      1.0000 0.06260  0.17340  0.98540  Biso   1.000  C
  C25      1.0000 0.67340  0.56260  0.48540  Biso   1.000  C
  C26      1.0000 0.93740  0.67340  0.48540  Biso   1.000  C
  C27      1.0000 0.82660  0.93740  0.48540  Biso   1.000  C
  C28      1.0000 0.56260  0.82660  0.48540  Biso   1.000  C
  C29      1.0000 0.67340  0.93740  0.01460  Biso   1.000  C
  C30      1.0000 0.56260  0.67340  0.01460  Biso   1.000  C
  C31      1.0000 0.82660  0.56260  0.01460  Biso   1.000  C
  C32      1.0000 0.93740  0.82660  0.01460  Biso   1.000  C
  C33      1.0000 0.27660  0.46770  0.46360  Biso   1.000  C
  C34      1.0000 0.03230  0.27660  0.46360  Biso   1.000  C
  C35      1.0000 0.22340  0.03230  0.46360  Biso   1.000  C
  C36      1.0000 0.46770  0.22340  0.46360  Biso   1.000  C
  C37      1.0000 0.27660  0.03230  0.03640  Biso   1.000  C
  C38      1.0000 0.46770  0.27660  0.03640  Biso   1.000  C
  C39      1.0000 0.22340  0.46770  0.03640  Biso   1.000  C
  C40      1.0000 0.03230  0.22340  0.03640  Biso   1.000  C
  C41      1.0000 0.72340  0.53230  0.53640  Biso   1.000  C
  C42      1.0000 0.96770  0.72340  0.53640  Biso   1.000  C
  C43      1.0000 0.77660  0.96770  0.53640  Biso   1.000  C
  C44      1.0000 0.53230  0.77660  0.53640  Biso   1.000  C
  C45      1.0000 0.72340  0.96770  0.96360  Biso   1.000  C
  C46      1.0000 0.53230  0.72340  0.96360  Biso   1.000  C
  C47      1.0000 0.77660  0.53230  0.96360  Biso   1.000  C
  C48      1.0000 0.96770  0.77660  0.96360  Biso   1.000  C
  H17      1.0000 0.23630  0.43330  0.44340  Biso   1.000  H
  H18      1.0000 0.06670  0.23630  0.44340  Biso   1.000  H
  H19      1.0000 0.26370  0.06670  0.44340  Biso   1.000  H
  H20      1.0000 0.43330  0.26370  0.44340  Biso   1.000  H
  H21      1.0000 0.23630  0.06670  0.05660  Biso   1.000  H
  H22      1.0000 0.43330  0.23630  0.05660  Biso   1.000  H
  H23      1.0000 0.26370  0.43330  0.05660  Biso   1.000  H
  H24      1.0000 0.06670  0.26370  0.05660  Biso   1.000  H
  H25      1.0000 0.76370  0.56670  0.55660  Biso   1.000  H
  H26      1.0000 0.93330  0.76370  0.55660  Biso   1.000  H
  H27      1.0000 0.73630  0.93330  0.55660  Biso   1.000  H
  H28      1.0000 0.56670  0.73630  0.55660  Biso   1.000  H
  H29      1.0000 0.76370  0.93330  0.94340  Biso   1.000  H
  H30      1.0000 0.56670  0.76370  0.94340  Biso   1.000  H
  H31      1.0000 0.73630  0.56670  0.94340  Biso   1.000  H
  H32      1.0000 0.93330  0.73630  0.94340  Biso   1.000  H
  C49      1.0000 0.28930  0.55060  0.44420  Biso   1.000  C
  C50      1.0000 0.94940  0.28930  0.44420  Biso   1.000  C
  C51      1.0000 0.21070  0.94940  0.44420  Biso   1.000  C
  C52      1.0000 0.55060  0.21070  0.44420  Biso   1.000  C
  C53      1.0000 0.28930  0.94940  0.05580  Biso   1.000  C
  C54      1.0000 0.55060  0.28930  0.05580  Biso   1.000  C
  C55      1.0000 0.21070  0.55060  0.05580  Biso   1.000  C
  C56      1.0000 0.94940  0.21070  0.05580  Biso   1.000  C
  C57      1.0000 0.71070  0.44940  0.55580  Biso   1.000  C
  C58      1.0000 0.05060  0.71070  0.55580  Biso   1.000  C
  C59      1.0000 0.78930  0.05060  0.55580  Biso   1.000  C
  C60      1.0000 0.44940  0.78930  0.55580  Biso   1.000  C
  C61      1.0000 0.71070  0.05060  0.94420  Biso   1.000  C
  C62      1.0000 0.44940  0.71070  0.94420  Biso   1.000  C
  C63      1.0000 0.78930  0.44940  0.94420  Biso   1.000  C
  C64      1.0000 0.05060  0.78930  0.94420  Biso   1.000  C
  H33      1.0000 0.25680  0.57220  0.41000  Biso   1.000  H
  H34      1.0000 0.92780  0.25680  0.41000  Biso   1.000  H
  H35      1.0000 0.24320  0.92780  0.41000  Biso   1.000  H
  H36      1.0000 0.57220  0.24320  0.41000  Biso   1.000  H
  H37      1.0000 0.25680  0.92780  0.09000  Biso   1.000  H
  H38      1.0000 0.57220  0.25680  0.09000  Biso   1.000  H
  H39      1.0000 0.24320  0.57220  0.09000  Biso   1.000  H
  H40      1.0000 0.92780  0.24320  0.09000  Biso   1.000  H
  H41      1.0000 0.74320  0.42780  0.59000  Biso   1.000  H
  H42      1.0000 0.07220  0.74320  0.59000  Biso   1.000  H
  H43      1.0000 0.75680  0.07220  0.59000  Biso   1.000  H
  H44      1.0000 0.42780  0.75680  0.59000  Biso   1.000  H
  H45      1.0000 0.74320  0.07220  0.91000  Biso   1.000  H
  H46      1.0000 0.42780  0.74320  0.91000  Biso   1.000  H
  H47      1.0000 0.75680  0.42780  0.91000  Biso   1.000  H
  H48      1.0000 0.07220  0.75680  0.91000  Biso   1.000  H
  C65      1.0000 0.34870  0.60310  0.47400  Biso   1.000  C
  C66      1.0000 0.89690  0.34870  0.47400  Biso   1.000  C
  C67      1.0000 0.15130  0.89690  0.47400  Biso   1.000  C
  C68      1.0000 0.60310  0.15130  0.47400  Biso   1.000  C
  C69      1.0000 0.34870  0.89690  0.02600  Biso   1.000  C
  C70      1.0000 0.60310  0.34870  0.02600  Biso   1.000  C
  C71      1.0000 0.15130  0.60310  0.02600  Biso   1.000  C
  C72      1.0000 0.89690  0.15130  0.02600  Biso   1.000  C
  C73      1.0000 0.65130  0.39690  0.52600  Biso   1.000  C
  C74      1.0000 0.10310  0.65130  0.52600  Biso   1.000  C
  C75      1.0000 0.84870  0.10310  0.52600  Biso   1.000  C
  C76      1.0000 0.39690  0.84870  0.52600  Biso   1.000  C
  C77      1.0000 0.65130  0.10310  0.97400  Biso   1.000  C
  C78      1.0000 0.39690  0.65130  0.97400  Biso   1.000  C
  C79      1.0000 0.84870  0.39690  0.97400  Biso   1.000  C
  C80      1.0000 0.10310  0.84870  0.97400  Biso   1.000  C
  H49      1.0000 0.35470  0.65900  0.45960  Biso   1.000  H
  H50      1.0000 0.84100  0.35470  0.45960  Biso   1.000  H
  H51      1.0000 0.14530  0.84100  0.45960  Biso   1.000  H
  H52      1.0000 0.65900  0.14530  0.45960  Biso   1.000  H
  H53      1.0000 0.35470  0.84100  0.04040  Biso   1.000  H
  H54      1.0000 0.65900  0.35470  0.04040  Biso   1.000  H
  H55      1.0000 0.14530  0.65900  0.04040  Biso   1.000  H
  H56      1.0000 0.84100  0.14530  0.04040  Biso   1.000  H
  H57      1.0000 0.64530  0.34100  0.54040  Biso   1.000  H
  H58      1.0000 0.15900  0.64530  0.54040  Biso   1.000  H
  H59      1.0000 0.85470  0.15900  0.54040  Biso   1.000  H
  H60      1.0000 0.34100  0.85470  0.54040  Biso   1.000  H
  H61      1.0000 0.64530  0.15900  0.95960  Biso   1.000  H
  H62      1.0000 0.34100  0.64530  0.95960  Biso   1.000  H
  H63      1.0000 0.85470  0.34100  0.95960  Biso   1.000  H
  H64      1.0000 0.15900  0.85470  0.95960  Biso   1.000  H
  C81      1.0000 0.39920  0.57400  0.52460  Biso   1.000  C
  C82      1.0000 0.92600  0.39920  0.52460  Biso   1.000  C
  C83      1.0000 0.10080  0.92600  0.52460  Biso   1.000  C
  C84      1.0000 0.57400  0.10080  0.52460  Biso   1.000  C
  C85      1.0000 0.39920  0.92600  0.97540  Biso   1.000  C
  C86      1.0000 0.57400  0.39920  0.97540  Biso   1.000  C
  C87      1.0000 0.10080  0.57400  0.97540  Biso   1.000  C
  C88      1.0000 0.92600  0.10080  0.97540  Biso   1.000  C
  C89      1.0000 0.60080  0.42600  0.47540  Biso   1.000  C
  C90      1.0000 0.07400  0.60080  0.47540  Biso   1.000  C
  C91      1.0000 0.89920  0.07400  0.47540  Biso   1.000  C
  C92      1.0000 0.42600  0.89920  0.47540  Biso   1.000  C
  C93      1.0000 0.60080  0.07400  0.02460  Biso   1.000  C
  C94      1.0000 0.42600  0.60080  0.02460  Biso   1.000  C
  C95      1.0000 0.89920  0.42600  0.02460  Biso   1.000  C
  C96      1.0000 0.07400  0.89920  0.02460  Biso   1.000  C
  H65      1.0000 0.43980  0.60870  0.54410  Biso   1.000  H
  H66      1.0000 0.89130  0.43980  0.54410  Biso   1.000  H
  H67      1.0000 0.06020  0.89130  0.54410  Biso   1.000  H
  H68      1.0000 0.60870  0.06020  0.54410  Biso   1.000  H
  H69      1.0000 0.43980  0.89130  0.95590  Biso   1.000  H
  H70      1.0000 0.60870  0.43980  0.95590  Biso   1.000  H
  H71      1.0000 0.06020  0.60870  0.95590  Biso   1.000  H
  H72      1.0000 0.89130  0.06020  0.95590  Biso   1.000  H
  H73      1.0000 0.56020  0.39130  0.45590  Biso   1.000  H
  H74      1.0000 0.10870  0.56020  0.45590  Biso   1.000  H
  H75      1.0000 0.93980  0.10870  0.45590  Biso   1.000  H
  H76      1.0000 0.39130  0.93980  0.45590  Biso   1.000  H
  H77      1.0000 0.56020  0.10870  0.04410  Biso   1.000  H
  H78      1.0000 0.39130  0.56020  0.04410  Biso   1.000  H
  H79      1.0000 0.93980  0.39130  0.04410  Biso   1.000  H
  H80      1.0000 0.10870  0.93980  0.04410  Biso   1.000  H
  C97      1.0000 0.38650  0.49110  0.54470  Biso   1.000  C
  C98      1.0000 0.00890  0.38650  0.54470  Biso   1.000  C
  C99      1.0000 0.11350  0.00890  0.54470  Biso   1.000  C
  C100     1.0000 0.49110  0.11350  0.54470  Biso   1.000  C
  C101     1.0000 0.38650  0.00890  0.95530  Biso   1.000  C
  C102     1.0000 0.49110  0.38650  0.95530  Biso   1.000  C
  C103     1.0000 0.11350  0.49110  0.95530  Biso   1.000  C
  C104     1.0000 0.00890  0.11350  0.95530  Biso   1.000  C
  C105     1.0000 0.61350  0.50890  0.45530  Biso   1.000  C
  C106     1.0000 0.99110  0.61350  0.45530  Biso   1.000  C
  C107     1.0000 0.88650  0.99110  0.45530  Biso   1.000  C
  C108     1.0000 0.50890  0.88650  0.45530  Biso   1.000  C
  C109     1.0000 0.61350  0.99110  0.04470  Biso   1.000  C
  C110     1.0000 0.50890  0.61350  0.04470  Biso   1.000  C
  C111     1.0000 0.88650  0.50890  0.04470  Biso   1.000  C
  C112     1.0000 0.99110  0.88650  0.04470  Biso   1.000  C
  C113     1.0000 0.49510  0.46460  0.63590  Biso   1.000  C
  C114     1.0000 0.03540  0.49510  0.63590  Biso   1.000  C
  C115     1.0000 0.00490  0.03540  0.63590  Biso   1.000  C
  C116     1.0000 0.46460  0.00490  0.63590  Biso   1.000  C
  C117     1.0000 0.49510  0.03540  0.86410  Biso   1.000  C
  C118     1.0000 0.46460  0.49510  0.86410  Biso   1.000  C
  C119     1.0000 0.00490  0.46460  0.86410  Biso   1.000  C
  C120     1.0000 0.03540  0.00490  0.86410  Biso   1.000  C
  C121     1.0000 0.50490  0.53540  0.36410  Biso   1.000  C
  C122     1.0000 0.96460  0.50490  0.36410  Biso   1.000  C
  C123     1.0000 0.99510  0.96460  0.36410  Biso   1.000  C
  C124     1.0000 0.53540  0.99510  0.36410  Biso   1.000  C
  C125     1.0000 0.50490  0.96460  0.13590  Biso   1.000  C
  C126     1.0000 0.53540  0.50490  0.13590  Biso   1.000  C
  C127     1.0000 0.99510  0.53540  0.13590  Biso   1.000  C
  C128     1.0000 0.96460  0.99510  0.13590  Biso   1.000  C
  H81      1.0000 0.54710  0.46410  0.61030  Biso   1.000  H
  H82      1.0000 0.03590  0.54710  0.61030  Biso   1.000  H
  H83      1.0000 0.95290  0.03590  0.61030  Biso   1.000  H
  H84      1.0000 0.46410  0.95290  0.61030  Biso   1.000  H
  H85      1.0000 0.54710  0.03590  0.88970  Biso   1.000  H
  H86      1.0000 0.46410  0.54710  0.88970  Biso   1.000  H
  H87      1.0000 0.95290  0.46410  0.88970  Biso   1.000  H
  H88      1.0000 0.03590  0.95290  0.88970  Biso   1.000  H
  H89      1.0000 0.45290  0.53590  0.38970  Biso   1.000  H
  H90      1.0000 0.96410  0.45290  0.38970  Biso   1.000  H
  H91      1.0000 0.04710  0.96410  0.38970  Biso   1.000  H
  H92      1.0000 0.53590  0.04710  0.38970  Biso   1.000  H
  H93      1.0000 0.45290  0.96410  0.11030  Biso   1.000  H
  H94      1.0000 0.53590  0.45290  0.11030  Biso   1.000  H
  H95      1.0000 0.04710  0.53590  0.11030  Biso   1.000  H
  H96      1.0000 0.96410  0.04710  0.11030  Biso   1.000  H
  H97      1.0000 0.50060  0.42150  0.66960  Biso   1.000  H
  H98      1.0000 0.07850  0.50060  0.66960  Biso   1.000  H
  H99      1.0000 0.99940  0.07850  0.66960  Biso   1.000  H
  H100     1.0000 0.42150  0.99940  0.66960  Biso   1.000  H
  H101     1.0000 0.50060  0.07850  0.83040  Biso   1.000  H
  H102     1.0000 0.42150  0.50060  0.83040  Biso   1.000  H
  H103     1.0000 0.99940  0.42150  0.83040  Biso   1.000  H
  H104     1.0000 0.07850  0.99940  0.83040  Biso   1.000  H
  H105     1.0000 0.49940  0.57850  0.33040  Biso   1.000  H
  H106     1.0000 0.92150  0.49940  0.33040  Biso   1.000  H
  H107     1.0000 0.00060  0.92150  0.33040  Biso   1.000  H
  H108     1.0000 0.57850  0.00060  0.33040  Biso   1.000  H
  H109     1.0000 0.49940  0.92150  0.16960  Biso   1.000  H
  H110     1.0000 0.57850  0.49940  0.16960  Biso   1.000  H
  H111     1.0000 0.00060  0.57850  0.16960  Biso   1.000  H
  H112     1.0000 0.92150  0.00060  0.16960  Biso   1.000  H
  C129     1.0000 0.48620  0.55120  0.66840  Biso   1.000  C
  C130     1.0000 0.94880  0.48620  0.66840  Biso   1.000  C
  C131     1.0000 0.01380  0.94880  0.66840  Biso   1.000  C
  C132     1.0000 0.55120  0.01380  0.66840  Biso   1.000  C
  C133     1.0000 0.48620  0.94880  0.83160  Biso   1.000  C
  C134     1.0000 0.55120  0.48620  0.83160  Biso   1.000  C
  C135     1.0000 0.01380  0.55120  0.83160  Biso   1.000  C
  C136     1.0000 0.94880  0.01380  0.83160  Biso   1.000  C
  C137     1.0000 0.51380  0.44880  0.33160  Biso   1.000  C
  C138     1.0000 0.05120  0.51380  0.33160  Biso   1.000  C
  C139     1.0000 0.98620  0.05120  0.33160  Biso   1.000  C
  C140     1.0000 0.44880  0.98620  0.33160  Biso   1.000  C
  C141     1.0000 0.51380  0.05120  0.16840  Biso   1.000  C
  C142     1.0000 0.44880  0.51380  0.16840  Biso   1.000  C
  C143     1.0000 0.98620  0.44880  0.16840  Biso   1.000  C
  C144     1.0000 0.05120  0.98620  0.16840  Biso   1.000  C
  C145     1.0000 0.55460  0.60540  0.66630  Biso   1.000  C
  C146     1.0000 0.89460  0.55460  0.66630  Biso   1.000  C
  C147     1.0000 0.94540  0.89460  0.66630  Biso   1.000  C
  C148     1.0000 0.60540  0.94540  0.66630  Biso   1.000  C
  C149     1.0000 0.55460  0.89460  0.83370  Biso   1.000  C
  C150     1.0000 0.60540  0.55460  0.83370  Biso   1.000  C
  C151     1.0000 0.94540  0.60540  0.83370  Biso   1.000  C
  C152     1.0000 0.89460  0.94540  0.83370  Biso   1.000  C
  C153     1.0000 0.44540  0.39460  0.33370  Biso   1.000  C
  C154     1.0000 0.10540  0.44540  0.33370  Biso   1.000  C
  C155     1.0000 0.05460  0.10540  0.33370  Biso   1.000  C
  C156     1.0000 0.39460  0.05460  0.33370  Biso   1.000  C
  C157     1.0000 0.44540  0.10540  0.16630  Biso   1.000  C
  C158     1.0000 0.39460  0.44540  0.16630  Biso   1.000  C
  C159     1.0000 0.05460  0.39460  0.16630  Biso   1.000  C
  C160     1.0000 0.10540  0.05460  0.16630  Biso   1.000  C
  H113     1.0000 0.60310  0.58950  0.64330  Biso   1.000  H
  H114     1.0000 0.91050  0.60310  0.64330  Biso   1.000  H
  H115     1.0000 0.89690  0.91050  0.64330  Biso   1.000  H
  H116     1.0000 0.58950  0.89690  0.64330  Biso   1.000  H
  H117     1.0000 0.60310  0.91050  0.85670  Biso   1.000  H
  H118     1.0000 0.58950  0.60310  0.85670  Biso   1.000  H
  H119     1.0000 0.89690  0.58950  0.85670  Biso   1.000  H
  H120     1.0000 0.91050  0.89690  0.85670  Biso   1.000  H
  H121     1.0000 0.39690  0.41050  0.35670  Biso   1.000  H
  H122     1.0000 0.08950  0.39690  0.35670  Biso   1.000  H
  H123     1.0000 0.10310  0.08950  0.35670  Biso   1.000  H
  H124     1.0000 0.41050  0.10310  0.35670  Biso   1.000  H
  H125     1.0000 0.39690  0.08950  0.14330  Biso   1.000  H
  H126     1.0000 0.41050  0.39690  0.14330  Biso   1.000  H
  H127     1.0000 0.10310  0.41050  0.14330  Biso   1.000  H
  H128     1.0000 0.08950  0.10310  0.14330  Biso   1.000  H
  C161     1.0000 0.55250  0.68350  0.69780  Biso   1.000  C
  C162     1.0000 0.81650  0.55250  0.69780  Biso   1.000  C
  C163     1.0000 0.94750  0.81650  0.69780  Biso   1.000  C
  C164     1.0000 0.68350  0.94750  0.69780  Biso   1.000  C
  C165     1.0000 0.55250  0.81650  0.80220  Biso   1.000  C
  C166     1.0000 0.68350  0.55250  0.80220  Biso   1.000  C
  C167     1.0000 0.94750  0.68350  0.80220  Biso   1.000  C
  C168     1.0000 0.81650  0.94750  0.80220  Biso   1.000  C
  C169     1.0000 0.44750  0.31650  0.30220  Biso   1.000  C
  C170     1.0000 0.18350  0.44750  0.30220  Biso   1.000  C
  C171     1.0000 0.05250  0.18350  0.30220  Biso   1.000  C
  C172     1.0000 0.31650  0.05250  0.30220  Biso   1.000  C
  C173     1.0000 0.44750  0.18350  0.19780  Biso   1.000  C
  C174     1.0000 0.31650  0.44750  0.19780  Biso   1.000  C
  C175     1.0000 0.05250  0.31650  0.19780  Biso   1.000  C
  C176     1.0000 0.18350  0.05250  0.19780  Biso   1.000  C
  H129     1.0000 0.59940  0.71950  0.69570  Biso   1.000  H
  H130     1.0000 0.78050  0.59940  0.69570  Biso   1.000  H
  H131     1.0000 0.90060  0.78050  0.69570  Biso   1.000  H
  H132     1.0000 0.71950  0.90060  0.69570  Biso   1.000  H
  H133     1.0000 0.59940  0.78050  0.80430  Biso   1.000  H
  H134     1.0000 0.71950  0.59940  0.80430  Biso   1.000  H
  H135     1.0000 0.90060  0.71950  0.80430  Biso   1.000  H
  H136     1.0000 0.78050  0.90060  0.80430  Biso   1.000  H
  H137     1.0000 0.40060  0.28050  0.30430  Biso   1.000  H
  H138     1.0000 0.21950  0.40060  0.30430  Biso   1.000  H
  H139     1.0000 0.09940  0.21950  0.30430  Biso   1.000  H
  H140     1.0000 0.28050  0.09940  0.30430  Biso   1.000  H
  H141     1.0000 0.40060  0.21950  0.19570  Biso   1.000  H
  H142     1.0000 0.28050  0.40060  0.19570  Biso   1.000  H
  H143     1.0000 0.09940  0.28050  0.19570  Biso   1.000  H
  H144     1.0000 0.21950  0.09940  0.19570  Biso   1.000  H
  C177     1.0000 0.48040  0.70830  0.73250  Biso   1.000  C
  C178     1.0000 0.79170  0.48040  0.73250  Biso   1.000  C
  C179     1.0000 0.01960  0.79170  0.73250  Biso   1.000  C
  C180     1.0000 0.70830  0.01960  0.73250  Biso   1.000  C
  C181     1.0000 0.48040  0.79170  0.76750  Biso   1.000  C
  C182     1.0000 0.70830  0.48040  0.76750  Biso   1.000  C
  C183     1.0000 0.01960  0.70830  0.76750  Biso   1.000  C
  C184     1.0000 0.79170  0.01960  0.76750  Biso   1.000  C
  C185     1.0000 0.51960  0.29170  0.26750  Biso   1.000  C
  C186     1.0000 0.20830  0.51960  0.26750  Biso   1.000  C
  C187     1.0000 0.98040  0.20830  0.26750  Biso   1.000  C
  C188     1.0000 0.29170  0.98040  0.26750  Biso   1.000  C
  C189     1.0000 0.51960  0.20830  0.23250  Biso   1.000  C
  C190     1.0000 0.29170  0.51960  0.23250  Biso   1.000  C
  C191     1.0000 0.98040  0.29170  0.23250  Biso   1.000  C
  C192     1.0000 0.20830  0.98040  0.23250  Biso   1.000  C
  C193     1.0000 0.41170  0.65420  0.73250  Biso   1.000  C
  C194     1.0000 0.84580  0.41170  0.73250  Biso   1.000  C
  C195     1.0000 0.08830  0.84580  0.73250  Biso   1.000  C
  C196     1.0000 0.65420  0.08830  0.73250  Biso   1.000  C
  C197     1.0000 0.41170  0.84580  0.76750  Biso   1.000  C
  C198     1.0000 0.65420  0.41170  0.76750  Biso   1.000  C
  C199     1.0000 0.08830  0.65420  0.76750  Biso   1.000  C
  C200     1.0000 0.84580  0.08830  0.76750  Biso   1.000  C
  C201     1.0000 0.58830  0.34580  0.26750  Biso   1.000  C
  C202     1.0000 0.15420  0.58830  0.26750  Biso   1.000  C
  C203     1.0000 0.91170  0.15420  0.26750  Biso   1.000  C
  C204     1.0000 0.34580  0.91170  0.26750  Biso   1.000  C
  C205     1.0000 0.58830  0.15420  0.23250  Biso   1.000  C
  C206     1.0000 0.34580  0.58830  0.23250  Biso   1.000  C
  C207     1.0000 0.91170  0.34580  0.23250  Biso   1.000  C
  C208     1.0000 0.15420  0.91170  0.23250  Biso   1.000  C
  H145     1.0000 0.36220  0.67050  0.75410  Biso   1.000  H
  H146     1.0000 0.82950  0.36220  0.75410  Biso   1.000  H
  H147     1.0000 0.13780  0.82950  0.75410  Biso   1.000  H
  H148     1.0000 0.67050  0.13780  0.75410  Biso   1.000  H
  H149     1.0000 0.36220  0.82950  0.74590  Biso   1.000  H
  H150     1.0000 0.67050  0.36220  0.74590  Biso   1.000  H
  H151     1.0000 0.13780  0.67050  0.74590  Biso   1.000  H
  H152     1.0000 0.82950  0.13780  0.74590  Biso   1.000  H
  H153     1.0000 0.63780  0.32950  0.24590  Biso   1.000  H
  H154     1.0000 0.17050  0.63780  0.24590  Biso   1.000  H
  H155     1.0000 0.86220  0.17050  0.24590  Biso   1.000  H
  H156     1.0000 0.32950  0.86220  0.24590  Biso   1.000  H
  H157     1.0000 0.63780  0.17050  0.25410  Biso   1.000  H
  H158     1.0000 0.32950  0.63780  0.25410  Biso   1.000  H
  H159     1.0000 0.86220  0.32950  0.25410  Biso   1.000  H
  H160     1.0000 0.17050  0.86220  0.25410  Biso   1.000  H
  C209     1.0000 0.41410  0.57600  0.70140  Biso   1.000  C
  C210     1.0000 0.92400  0.41410  0.70140  Biso   1.000  C
  C211     1.0000 0.08590  0.92400  0.70140  Biso   1.000  C
  C212     1.0000 0.57600  0.08590  0.70140  Biso   1.000  C
  C213     1.0000 0.41410  0.92400  0.79860  Biso   1.000  C
  C214     1.0000 0.57600  0.41410  0.79860  Biso   1.000  C
  C215     1.0000 0.08590  0.57600  0.79860  Biso   1.000  C
  C216     1.0000 0.92400  0.08590  0.79860  Biso   1.000  C
  C217     1.0000 0.58590  0.42400  0.29860  Biso   1.000  C
  C218     1.0000 0.07600  0.58590  0.29860  Biso   1.000  C
  C219     1.0000 0.91410  0.07600  0.29860  Biso   1.000  C
  C220     1.0000 0.42400  0.91410  0.29860  Biso   1.000  C
  C221     1.0000 0.58590  0.07600  0.20140  Biso   1.000  C
  C222     1.0000 0.42400  0.58590  0.20140  Biso   1.000  C
  C223     1.0000 0.91410  0.42400  0.20140  Biso   1.000  C
  C224     1.0000 0.07600  0.91410  0.20140  Biso   1.000  C
  H161     1.0000 0.36690  0.54020  0.70290  Biso   1.000  H
  H162     1.0000 0.95980  0.36690  0.70290  Biso   1.000  H
  H163     1.0000 0.13310  0.95980  0.70290  Biso   1.000  H
  H164     1.0000 0.54020  0.13310  0.70290  Biso   1.000  H
  H165     1.0000 0.36690  0.95980  0.79710  Biso   1.000  H
  H166     1.0000 0.54020  0.36690  0.79710  Biso   1.000  H
  H167     1.0000 0.13310  0.54020  0.79710  Biso   1.000  H
  H168     1.0000 0.95980  0.13310  0.79710  Biso   1.000  H
  H169     1.0000 0.63310  0.45980  0.29710  Biso   1.000  H
  H170     1.0000 0.04020  0.63310  0.29710  Biso   1.000  H
  H171     1.0000 0.86690  0.04020  0.29710  Biso   1.000  H
  H172     1.0000 0.45980  0.86690  0.29710  Biso   1.000  H
  H173     1.0000 0.63310  0.04020  0.20290  Biso   1.000  H
  H174     1.0000 0.45980  0.63310  0.20290  Biso   1.000  H
  H175     1.0000 0.86690  0.45980  0.20290  Biso   1.000  H
  H176     1.0000 0.04020  0.86690  0.20290  Biso   1.000  H
  O5       1.0000 0.59950  0.75000  0.25000  Biso   1.000  O
  O6       1.0000 0.75000  0.59950  0.25000  Biso   1.000  O
  O7       1.0000 0.90050  0.75000  0.25000  Biso   1.000  O
  O8       1.0000 0.75000  0.90050  0.25000  Biso   1.000  O
  O9       1.0000 0.40050  0.25000  0.75000  Biso   1.000  O
  O10      1.0000 0.25000  0.40050  0.75000  Biso   1.000  O
  O11      1.0000 0.09950  0.25000  0.75000  Biso   1.000  O
  O12      1.0000 0.25000  0.09950  0.75000  Biso   1.000  O
  H177     1.0000 0.57360  0.71380  0.27090  Biso   1.000  H
  H178     1.0000 0.78620  0.57360  0.27090  Biso   1.000  H
  H179     1.0000 0.92640  0.78620  0.27090  Biso   1.000  H
  H180     1.0000 0.71380  0.92640  0.27090  Biso   1.000  H
  H181     1.0000 0.57360  0.78620  0.22910  Biso   1.000  H
  H182     1.0000 0.71380  0.57360  0.22910  Biso   1.000  H
  H183     1.0000 0.92640  0.71380  0.22910  Biso   1.000  H
  H184     1.0000 0.78620  0.92640  0.22910  Biso   1.000  H
  H185     1.0000 0.42640  0.28620  0.72910  Biso   1.000  H
  H186     1.0000 0.21380  0.42640  0.72910  Biso   1.000  H
  H187     1.0000 0.07360  0.21380  0.72910  Biso   1.000  H
  H188     1.0000 0.28620  0.07360  0.72910  Biso   1.000  H
  H189     1.0000 0.42640  0.21380  0.77090  Biso   1.000  H
  H190     1.0000 0.28620  0.42640  0.77090  Biso   1.000  H
  H191     1.0000 0.07360  0.28620  0.77090  Biso   1.000  H
  H192     1.0000 0.21380  0.07360  0.77090  Biso   1.000  H
  H193     1.0000 0.60770  0.79920  0.25980  Biso   1.000  H
  H194     1.0000 0.70080  0.60770  0.25980  Biso   1.000  H
  H195     1.0000 0.89230  0.70080  0.25980  Biso   1.000  H
  H196     1.0000 0.79920  0.89230  0.25980  Biso   1.000  H
  H197     1.0000 0.60770  0.70080  0.24020  Biso   1.000  H
  H198     1.0000 0.79920  0.60770  0.24020  Biso   1.000  H
  H199     1.0000 0.89230  0.79920  0.24020  Biso   1.000  H
  H200     1.0000 0.70080  0.89230  0.24020  Biso   1.000  H
  H201     1.0000 0.39230  0.20080  0.74020  Biso   1.000  H
  H202     1.0000 0.29920  0.39230  0.74020  Biso   1.000  H
  H203     1.0000 0.10770  0.29920  0.74020  Biso   1.000  H
  H204     1.0000 0.20080  0.10770  0.74020  Biso   1.000  H
  H205     1.0000 0.39230  0.29920  0.75980  Biso   1.000  H
  H206     1.0000 0.20080  0.39230  0.75980  Biso   1.000  H
  H207     1.0000 0.10770  0.20080  0.75980  Biso   1.000  H
  H208     1.0000 0.29920  0.10770  0.75980  Biso   1.000  H
