data_image0
_cell_length_a       8.823
_cell_length_b       9.396
_cell_length_c       14.546
_cell_angle_alpha    81.85
_cell_angle_beta     72.798
_cell_angle_gamma    65.368

_symmetry_space_group_name_H-M    "P 1"
_symmetry_int_tables_number       1

loop_
  _symmetry_equiv_pos_as_xyz
  'x, y, z'

loop_
  _atom_site_label
  _atom_site_occupancy
  _atom_site_fract_x
  _atom_site_fract_y
  _atom_site_fract_z
  _atom_site_thermal_displace_type
  _atom_site_B_iso_or_equiv
  _atom_site_type_symbol
  Nd1      1.0000 0.92353  0.81205  0.36563  Biso   1.000  Nd
  Nd2      1.0000 0.07647  0.18795  0.63437  Biso   1.000  Nd
  Cu1      1.0000 0.57297  0.61726  0.06554  Biso   1.000  Cu
  Cu2      1.0000 0.42703  0.38274  0.93446  Biso   1.000  Cu
  O1       1.0000 0.03880  0.66600  0.50420  Biso   1.000  O
  O2       1.0000 0.96120  0.33400  0.49580  Biso   1.000  O
  O3       1.0000 0.35020  0.79850  0.08880  Biso   1.000  O
  O4       1.0000 0.64980  0.20150  0.91120  Biso   1.000  O
  O5       1.0000 0.45640  0.51850  0.17420  Biso   1.000  O
  O6       1.0000 0.54360  0.48150  0.82580  Biso   1.000  O
  O7       1.0000 0.21190  0.59290  0.29270  Biso   1.000  O
  O8       1.0000 0.78810  0.40710  0.70730  Biso   1.000  O
  O9       1.0000 0.61440  0.85670  0.45000  Biso   1.000  O
  O10      1.0000 0.38560  0.14330  0.55000  Biso   1.000  O
  H1       1.0000 0.64610  0.78260  0.49000  Biso   1.000  H
  H2       1.0000 0.35390  0.21740  0.51000  Biso   1.000  H
  H3       1.0000 0.53860  0.84820  0.42860  Biso   1.000  H
  H4       1.0000 0.46140  0.15180  0.57140  Biso   1.000  H
  O11      1.0000 0.75380  0.08580  0.30880  Biso   1.000  O
  O12      1.0000 0.24620  0.91420  0.69120  Biso   1.000  O
  O13      1.0000 0.82130  0.75900  0.24240  Biso   1.000  O
  O14      1.0000 0.17870  0.24100  0.75760  Biso   1.000  O
  O15      1.0000 0.10120  0.87620  0.20500  Biso   1.000  O
  O16      1.0000 0.89880  0.12380  0.79500  Biso   1.000  O
  O17      1.0000 0.67040  0.70980  0.16340  Biso   1.000  O
  O18      1.0000 0.32960  0.29020  0.83660  Biso   1.000  O
  O19      1.0000 0.10130  0.44370  0.59290  Biso   1.000  O
  O20      1.0000 0.89870  0.55630  0.40710  Biso   1.000  O
  O21      1.0000 0.12680  0.91160  0.38950  Biso   1.000  O
  O22      1.0000 0.87320  0.08840  0.61050  Biso   1.000  O
  O23      1.0000 0.19360  0.01340  0.49470  Biso   1.000  O
  O24      1.0000 0.80640  0.98660  0.50530  Biso   1.000  O
  N1       1.0000 0.22130  0.57790  0.96780  Biso   1.000  N
  N2       1.0000 0.77870  0.42210  0.03220  Biso   1.000  N
  N3       1.0000 0.31370  0.31630  0.06220  Biso   1.000  N
  N4       1.0000 0.68630  0.68370  0.93780  Biso   1.000  N
  C1       1.0000 0.04020  0.53150  0.52830  Biso   1.000  C
  C2       1.0000 0.95980  0.46850  0.47170  Biso   1.000  C
  C3       1.0000 0.10180  0.57530  0.05100  Biso   1.000  C
  C4       1.0000 0.89820  0.42470  0.94900  Biso   1.000  C
  C5       1.0000 0.15940  0.42330  0.10660  Biso   1.000  C
  C6       1.0000 0.84060  0.57670  0.89340  Biso   1.000  C
  C7       1.0000 0.30840  0.61630  0.21610  Biso   1.000  C
  C8       1.0000 0.69160  0.38370  0.78390  Biso   1.000  C
  C9       1.0000 0.24600  0.77960  0.16670  Biso   1.000  C
  C10      1.0000 0.75400  0.22040  0.83330  Biso   1.000  C
  C11      1.0000 0.19210  0.70380  0.90920  Biso   1.000  C
  C12      1.0000 0.80790  0.29620  0.09080  Biso   1.000  C
  H5       1.0000 0.27620  0.70290  0.85260  Biso   1.000  H
  H6       1.0000 0.72380  0.29710  0.14740  Biso   1.000  H
  C13      1.0000 0.04040  0.83570  0.93040  Biso   1.000  C
  C14      1.0000 0.95960  0.16430  0.06960  Biso   1.000  C
  H7       1.0000 0.02120  0.92230  0.88870  Biso   1.000  H
  H8       1.0000 0.97880  0.07770  0.11130  Biso   1.000  H
  C15      1.0000 0.38060  0.17520  0.10340  Biso   1.000  C
  C16      1.0000 0.61940  0.82480  0.89660  Biso   1.000  C
  H9       1.0000 0.48820  0.10310  0.07180  Biso   1.000  H
  H10      1.0000 0.51180  0.89690  0.92820  Biso   1.000  H
  C17      1.0000 0.06610  0.38820  0.19530  Biso   1.000  C
  C18      1.0000 0.93390  0.61180  0.80470  Biso   1.000  C
  H11      1.0000 0.95810  0.46090  0.22580  Biso   1.000  H
  H12      1.0000 0.04190  0.53910  0.77420  Biso   1.000  H
  C19      1.0000 0.29500  0.13450  0.19060  Biso   1.000  C
  C20      1.0000 0.70500  0.86550  0.80940  Biso   1.000  C
  H13      1.0000 0.34230  0.03550  0.21780  Biso   1.000  H
  H14      1.0000 0.65770  0.96450  0.78220  Biso   1.000  H
  C21      1.0000 0.13800  0.24210  0.23730  Biso   1.000  C
  C22      1.0000 0.86200  0.75790  0.76270  Biso   1.000  C
  H15      1.0000 0.07900  0.21740  0.29750  Biso   1.000  H
  H16      1.0000 0.92100  0.78260  0.70250  Biso   1.000  H
  C23      1.0000 0.94660  0.70600  0.07720  Biso   1.000  C
  C24      1.0000 0.05340  0.29400  0.92280  Biso   1.000  C
  C25      1.0000 0.80130  0.72370  0.16890  Biso   1.000  C
  C26      1.0000 0.19870  0.27630  0.83110  Biso   1.000  C
  C27      1.0000 0.91880  0.83480  0.01450  Biso   1.000  C
  C28      1.0000 0.08120  0.16520  0.98550  Biso   1.000  C
  H17      1.0000 0.81560  0.92250  0.03010  Biso   1.000  H
  H18      1.0000 0.18440  0.07750  0.96990  Biso   1.000  H
  C29      1.0000 0.09200  0.97880  0.46670  Biso   1.000  C
  C30      1.0000 0.90800  0.02120  0.53330  Biso   1.000  C
  O25      1.0000 0.39270  0.26290  0.35580  Biso   1.000  O
  O26      1.0000 0.60730  0.73710  0.64420  Biso   1.000  O
  H19      1.0000 0.41670  0.32350  0.38390  Biso   1.000  H
  H20      1.0000 0.58330  0.67650  0.61610  Biso   1.000  H
  H21      1.0000 0.49360  0.17450  0.33920  Biso   1.000  H
  H22      1.0000 0.50640  0.82550  0.66080  Biso   1.000  H
  O27      1.0000 0.70830  0.36470  0.38010  Biso   1.000  O
  O28      1.0000 0.29170  0.63530  0.61990  Biso   1.000  O
  H23      1.0000 0.61610  0.44680  0.38290  Biso   1.000  H
  H24      1.0000 0.38390  0.55320  0.61710  Biso   1.000  H
  H25      1.0000 0.74720  0.36090  0.42770  Biso   1.000  H
  H26      1.0000 0.25280  0.63910  0.57230  Biso   1.000  H
  O29      1.0000 0.48800  0.70700  0.36020  Biso   1.000  O
  O30      1.0000 0.51200  0.29300  0.63980  Biso   1.000  O
  H27      1.0000 0.39120  0.77670  0.35480  Biso   1.000  H
  H28      1.0000 0.60880  0.22330  0.64520  Biso   1.000  H
  H29      1.0000 0.47380  0.65940  0.41430  Biso   1.000  H
  H30      1.0000 0.52620  0.34060  0.58570  Biso   1.000  H
  H31      1.0000 0.65100  0.09900  0.31300  Biso   1.000  H
  H32      1.0000 0.34900  0.90100  0.68700  Biso   1.000  H
  H33      1.0000 0.75300  0.15800  0.33800  Biso   1.000  H
  H34      1.0000 0.24700  0.84200  0.66200  Biso   1.000  H
