data_image0
_cell_length_a       7.0547
_cell_length_b       15.0393
_cell_length_c       15.5866
_cell_angle_alpha    90
_cell_angle_beta     101.908
_cell_angle_gamma    90

_symmetry_space_group_name_H-M    "P 1"
_symmetry_int_tables_number       1

loop_
  _symmetry_equiv_pos_as_xyz
  'x, y, z'

loop_
  _atom_site_label
  _atom_site_occupancy
  _atom_site_fract_x
  _atom_site_fract_y
  _atom_site_fract_z
  _atom_site_thermal_displace_type
  _atom_site_B_iso_or_equiv
  _atom_site_type_symbol
  Cu1      1.0000 0.23431  0.22169  0.98406  Biso   1.000  Cu
  Cu2      1.0000 0.26569  0.72169  0.51594  Biso   1.000  Cu
  Cu3      1.0000 0.76569  0.77831  0.01594  Biso   1.000  Cu
  Cu4      1.0000 0.73431  0.27831  0.48406  Biso   1.000  Cu
  S1       1.0000 0.74565  0.27548  0.94775  Biso   1.000  S
  S2       1.0000 0.75435  0.77548  0.55225  Biso   1.000  S
  S3       1.0000 0.25435  0.72452  0.05225  Biso   1.000  S
  S4       1.0000 0.24565  0.22452  0.44775  Biso   1.000  S
  S5       1.0000 0.79513  0.43233  0.07260  Biso   1.000  S
  S6       1.0000 0.70487  0.93233  0.42740  Biso   1.000  S
  S7       1.0000 0.20487  0.56767  0.92740  Biso   1.000  S
  S8       1.0000 0.29513  0.06767  0.57260  Biso   1.000  S
  O1       1.0000 0.92640  0.24432  0.00138  Biso   1.000  O
  O2       1.0000 0.57360  0.74432  0.49862  Biso   1.000  O
  O3       1.0000 0.07360  0.75568  0.99862  Biso   1.000  O
  O4       1.0000 0.42640  0.25568  0.50138  Biso   1.000  O
  C1       1.0000 0.73970  0.39315  0.96231  Biso   1.000  C
  C2       1.0000 0.76030  0.89315  0.53769  Biso   1.000  C
  C3       1.0000 0.26030  0.60685  0.03769  Biso   1.000  C
  C4       1.0000 0.23970  0.10685  0.46231  Biso   1.000  C
  H1       1.0000 0.83050  0.41990  0.93100  Biso   1.000  H
  H2       1.0000 0.66950  0.91990  0.56900  Biso   1.000  H
  H3       1.0000 0.16950  0.58010  0.06900  Biso   1.000  H
  H4       1.0000 0.33050  0.08010  0.43100  Biso   1.000  H
  H5       1.0000 0.61140  0.41420  0.93510  Biso   1.000  H
  H6       1.0000 0.88860  0.91420  0.56490  Biso   1.000  H
  H7       1.0000 0.38860  0.58580  0.06490  Biso   1.000  H
  H8       1.0000 0.11140  0.08580  0.43510  Biso   1.000  H
  O5       1.0000 0.72950  0.52344  0.06643  Biso   1.000  O
  O6       1.0000 0.77050  0.02344  0.43357  Biso   1.000  O
  O7       1.0000 0.27050  0.47656  0.93357  Biso   1.000  O
  O8       1.0000 0.22950  0.97656  0.56643  Biso   1.000  O
  O9       1.0000 0.19570  0.30585  0.88446  Biso   1.000  O
  O10      1.0000 0.30430  0.80585  0.61554  Biso   1.000  O
  O11      1.0000 0.80430  0.69415  0.11554  Biso   1.000  O
  O12      1.0000 0.69570  0.19415  0.38446  Biso   1.000  O
  O13      1.0000 0.68500  0.37666  0.12094  Biso   1.000  O
  O14      1.0000 0.81500  0.87666  0.37906  Biso   1.000  O
  O15      1.0000 0.31500  0.62334  0.87906  Biso   1.000  O
  O16      1.0000 0.18500  0.12334  0.62094  Biso   1.000  O
  N1       1.0000 0.16180  0.11507  0.90804  Biso   1.000  N
  N2       1.0000 0.33820  0.61507  0.59196  Biso   1.000  N
  N3       1.0000 0.83820  0.88493  0.09196  Biso   1.000  N
  N4       1.0000 0.66180  0.38493  0.40804  Biso   1.000  N
  C5       1.0000 0.02640  0.03842  0.77688  Biso   1.000  C
  C6       1.0000 0.47360  0.53842  0.72312  Biso   1.000  C
  C7       1.0000 0.97360  0.96158  0.22312  Biso   1.000  C
  C8       1.0000 0.52640  0.46158  0.27688  Biso   1.000  C
  H9       1.0000 0.96420  0.04050  0.71820  Biso   1.000  H
  H10      1.0000 0.53580  0.54050  0.78180  Biso   1.000  H
  H11      1.0000 0.03580  0.95950  0.28180  Biso   1.000  H
  H12      1.0000 0.46420  0.45950  0.21820  Biso   1.000  H
  O17      1.0000 0.00160  0.42480  0.10354  Biso   1.000  O
  O18      1.0000 0.49840  0.92480  0.39646  Biso   1.000  O
  O19      1.0000 0.99840  0.57520  0.89646  Biso   1.000  O
  O20      1.0000 0.50160  0.07520  0.60354  Biso   1.000  O
  O21      1.0000 0.30020  0.31810  0.07218  Biso   1.000  O
  O22      1.0000 0.19980  0.81810  0.42782  Biso   1.000  O
  O23      1.0000 0.69980  0.68190  0.92782  Biso   1.000  O
  O24      1.0000 0.80020  0.18190  0.57218  Biso   1.000  O
  O25      1.0000 0.58020  0.23848  0.97689  Biso   1.000  O
  O26      1.0000 0.91980  0.73848  0.52311  Biso   1.000  O
  O27      1.0000 0.41980  0.76152  0.02311  Biso   1.000  O
  O28      1.0000 0.08020  0.26152  0.47689  Biso   1.000  O
  O29      1.0000 0.73520  0.26462  0.85441  Biso   1.000  O
  O30      1.0000 0.76480  0.76462  0.64559  Biso   1.000  O
  O31      1.0000 0.26480  0.73538  0.14559  Biso   1.000  O
  O32      1.0000 0.23520  0.23538  0.35441  Biso   1.000  O
  C9       1.0000 0.43400  0.06976  0.21670  Biso   1.000  C
  C10      1.0000 0.06600  0.56976  0.28330  Biso   1.000  C
  C11      1.0000 0.56600  0.93024  0.78330  Biso   1.000  C
  C12      1.0000 0.93400  0.43024  0.71670  Biso   1.000  C
  H13      1.0000 0.47970  0.08000  0.27620  Biso   1.000  H
  H14      1.0000 0.02030  0.58000  0.22380  Biso   1.000  H
  H15      1.0000 0.52030  0.92000  0.72380  Biso   1.000  H
  H16      1.0000 0.97970  0.42000  0.77620  Biso   1.000  H
  C13      1.0000 0.29210  0.04377  0.04292  Biso   1.000  C
  C14      1.0000 0.20790  0.54377  0.45708  Biso   1.000  C
  C15      1.0000 0.70790  0.95623  0.95708  Biso   1.000  C
  C16      1.0000 0.79210  0.45623  0.54292  Biso   1.000  C
  C17      1.0000 0.07150  0.11553  0.82350  Biso   1.000  C
  C18      1.0000 0.42850  0.61553  0.67650  Biso   1.000  C
  C19      1.0000 0.92850  0.88447  0.17650  Biso   1.000  C
  C20      1.0000 0.57150  0.38447  0.32350  Biso   1.000  C
  H17      1.0000 0.03850  0.16970  0.79570  Biso   1.000  H
  H18      1.0000 0.46150  0.66970  0.70430  Biso   1.000  H
  H19      1.0000 0.96150  0.83030  0.20430  Biso   1.000  H
  H20      1.0000 0.53850  0.33030  0.29570  Biso   1.000  H
  C21      1.0000 0.20450  0.03663  0.94860  Biso   1.000  C
  C22      1.0000 0.29550  0.53663  0.55140  Biso   1.000  C
  C23      1.0000 0.79550  0.96337  0.05140  Biso   1.000  C
  C24      1.0000 0.70450  0.46337  0.44860  Biso   1.000  C
  C25      1.0000 0.42160  0.98491  0.18444  Biso   1.000  C
  C26      1.0000 0.07840  0.48491  0.31556  Biso   1.000  C
  C27      1.0000 0.57840  0.01509  0.81556  Biso   1.000  C
  C28      1.0000 0.92160  0.51509  0.68444  Biso   1.000  C
  H21      1.0000 0.46120  0.93690  0.22140  Biso   1.000  H
  H22      1.0000 0.03880  0.43690  0.27860  Biso   1.000  H
  H23      1.0000 0.53880  0.06310  0.77860  Biso   1.000  H
  H24      1.0000 0.96120  0.56310  0.72140  Biso   1.000  H
  C29      1.0000 0.37870  0.13931  0.16065  Biso   1.000  C
  C30      1.0000 0.12130  0.63931  0.33935  Biso   1.000  C
  C31      1.0000 0.62130  0.86069  0.83935  Biso   1.000  C
  C32      1.0000 0.87870  0.36069  0.66065  Biso   1.000  C
  H25      1.0000 0.38990  0.19690  0.18290  Biso   1.000  H
  H26      1.0000 0.11010  0.69690  0.31710  Biso   1.000  H
  H27      1.0000 0.61010  0.80310  0.81710  Biso   1.000  H
  H28      1.0000 0.88990  0.30310  0.68290  Biso   1.000  H
  C33      1.0000 0.35000  0.97177  0.09697  Biso   1.000  C
  C34      1.0000 0.15000  0.47177  0.40303  Biso   1.000  C
  C35      1.0000 0.65000  0.02823  0.90303  Biso   1.000  C
  C36      1.0000 0.85000  0.52823  0.59697  Biso   1.000  C
  H29      1.0000 0.34040  0.91450  0.07390  Biso   1.000  H
  H30      1.0000 0.15960  0.41450  0.42610  Biso   1.000  H
  H31      1.0000 0.65960  0.08550  0.92610  Biso   1.000  H
  H32      1.0000 0.84040  0.58550  0.57390  Biso   1.000  H
  N5       1.0000 0.30870  0.12745  0.07443  Biso   1.000  N
  N6       1.0000 0.19130  0.62745  0.42557  Biso   1.000  N
  N7       1.0000 0.69130  0.87255  0.92557  Biso   1.000  N
  N8       1.0000 0.80870  0.37255  0.57443  Biso   1.000  N
  C37      1.0000 0.16280  0.95698  0.90480  Biso   1.000  C
  C38      1.0000 0.33720  0.45698  0.59520  Biso   1.000  C
  C39      1.0000 0.83720  0.04302  0.09520  Biso   1.000  C
  C40      1.0000 0.66280  0.54302  0.40480  Biso   1.000  C
  H33      1.0000 0.19430  0.90320  0.93370  Biso   1.000  H
  H34      1.0000 0.30570  0.40320  0.56630  Biso   1.000  H
  H35      1.0000 0.80570  0.09680  0.06630  Biso   1.000  H
  H36      1.0000 0.69430  0.59680  0.43370  Biso   1.000  H
  C41      1.0000 0.07330  0.95857  0.81724  Biso   1.000  C
  C42      1.0000 0.42670  0.45857  0.68276  Biso   1.000  C
  C43      1.0000 0.92670  0.04143  0.18276  Biso   1.000  C
  C44      1.0000 0.57330  0.54143  0.31724  Biso   1.000  C
  H37      1.0000 0.04530  0.90580  0.78610  Biso   1.000  H
  H38      1.0000 0.45470  0.40580  0.71390  Biso   1.000  H
  H39      1.0000 0.95470  0.09420  0.21390  Biso   1.000  H
  H40      1.0000 0.54530  0.59420  0.28610  Biso   1.000  H
  H41      1.0000 0.21100  0.34900  0.07800  Biso   1.000  H
  H42      1.0000 0.28900  0.84900  0.42200  Biso   1.000  H
  H43      1.0000 0.78900  0.65100  0.92200  Biso   1.000  H
  H44      1.0000 0.71100  0.15100  0.57800  Biso   1.000  H
  H45      1.0000 0.40400  0.33500  0.07600  Biso   1.000  H
  H46      1.0000 0.09600  0.83500  0.42400  Biso   1.000  H
  H47      1.0000 0.59600  0.66500  0.92400  Biso   1.000  H
  H48      1.0000 0.90400  0.16500  0.57600  Biso   1.000  H
  H49      1.0000 0.22500  0.36400  0.90220  Biso   1.000  H
  H50      1.0000 0.27500  0.86400  0.59780  Biso   1.000  H
  H51      1.0000 0.77500  0.63600  0.09780  Biso   1.000  H
  H52      1.0000 0.72500  0.13600  0.40220  Biso   1.000  H
  H53      1.0000 0.23900  0.29700  0.84500  Biso   1.000  H
  H54      1.0000 0.26100  0.79700  0.65500  Biso   1.000  H
  H55      1.0000 0.76100  0.70300  0.15500  Biso   1.000  H
  H56      1.0000 0.73900  0.20300  0.34500  Biso   1.000  H
  O33      1.0000 0.36410  0.25425  0.75207  Biso   1.000  O
  O34      1.0000 0.13590  0.75425  0.74793  Biso   1.000  O
  O35      1.0000 0.63590  0.74575  0.24793  Biso   1.000  O
  O36      1.0000 0.86410  0.24575  0.25207  Biso   1.000  O
  H57      1.0000 0.47100  0.25100  0.76600  Biso   1.000  H
  H58      1.0000 0.02900  0.75100  0.73400  Biso   1.000  H
  H59      1.0000 0.52900  0.74900  0.23400  Biso   1.000  H
  H60      1.0000 0.97100  0.24900  0.26600  Biso   1.000  H
  H61      1.0000 0.34000  0.22500  0.71600  Biso   1.000  H
  H62      1.0000 0.16000  0.72500  0.78400  Biso   1.000  H
  H63      1.0000 0.66000  0.77500  0.28400  Biso   1.000  H
  H64      1.0000 0.84000  0.27500  0.21600  Biso   1.000  H
