data_image0
_cell_length_a       15.8776
_cell_length_b       7.0127
_cell_length_c       16.4853
_cell_angle_alpha    90
_cell_angle_beta     92.569
_cell_angle_gamma    90

_symmetry_space_group_name_H-M    "P 1"
_symmetry_int_tables_number       1

loop_
  _symmetry_equiv_pos_as_xyz
  'x, y, z'

loop_
  _atom_site_label
  _atom_site_occupancy
  _atom_site_fract_x
  _atom_site_fract_y
  _atom_site_fract_z
  _atom_site_thermal_displace_type
  _atom_site_B_iso_or_equiv
  _atom_site_type_symbol
  Cu1      1.0000 0.72952  0.12719  0.50296  Biso   1.000  Cu
  Cu2      1.0000 0.77048  0.62719  0.99704  Biso   1.000  Cu
  Cu3      1.0000 0.27048  0.87281  0.49704  Biso   1.000  Cu
  Cu4      1.0000 0.22952  0.37281  0.00296  Biso   1.000  Cu
  S1       1.0000 0.70185  0.63310  0.54413  Biso   1.000  S
  S2       1.0000 0.79815  0.13310  0.95587  Biso   1.000  S
  S3       1.0000 0.29815  0.36690  0.45587  Biso   1.000  S
  S4       1.0000 0.20185  0.86690  0.04413  Biso   1.000  S
  S5       1.0000 0.82583  0.60965  0.68983  Biso   1.000  S
  S6       1.0000 0.67417  0.10965  0.81017  Biso   1.000  S
  S7       1.0000 0.17417  0.39035  0.31017  Biso   1.000  S
  S8       1.0000 0.32583  0.89035  0.18983  Biso   1.000  S
  C1       1.0000 0.83670  0.11550  0.27611  Biso   1.000  C
  C2       1.0000 0.66330  0.61550  0.22389  Biso   1.000  C
  C3       1.0000 0.16330  0.88450  0.72389  Biso   1.000  C
  C4       1.0000 0.33670  0.38450  0.77611  Biso   1.000  C
  O1       1.0000 0.74898  0.79840  0.52017  Biso   1.000  O
  O2       1.0000 0.75102  0.29840  0.97983  Biso   1.000  O
  O3       1.0000 0.25102  0.20160  0.47983  Biso   1.000  O
  O4       1.0000 0.24898  0.70160  0.02017  Biso   1.000  O
  O5       1.0000 0.72969  0.46270  0.50609  Biso   1.000  O
  O6       1.0000 0.77031  0.96270  0.99391  Biso   1.000  O
  O7       1.0000 0.27031  0.53730  0.49391  Biso   1.000  O
  O8       1.0000 0.22969  0.03730  0.00609  Biso   1.000  O
  O9       1.0000 0.81512  0.13250  0.59492  Biso   1.000  O
  O10      1.0000 0.68488  0.63250  0.90508  Biso   1.000  O
  O11      1.0000 0.18488  0.86750  0.40508  Biso   1.000  O
  O12      1.0000 0.31512  0.36750  0.09492  Biso   1.000  O
  O13      1.0000 0.63558  0.12200  0.57735  Biso   1.000  O
  O14      1.0000 0.86442  0.62200  0.92265  Biso   1.000  O
  O15      1.0000 0.36442  0.87800  0.42265  Biso   1.000  O
  O16      1.0000 0.13558  0.37800  0.07735  Biso   1.000  O
  O17      1.0000 0.82048  0.53590  0.77123  Biso   1.000  O
  O18      1.0000 0.67952  0.03590  0.72877  Biso   1.000  O
  O19      1.0000 0.17952  0.46410  0.22877  Biso   1.000  O
  O20      1.0000 0.32048  0.96410  0.27123  Biso   1.000  O
  O21      1.0000 0.85440  0.80290  0.68688  Biso   1.000  O
  O22      1.0000 0.64560  0.30290  0.81312  Biso   1.000  O
  O23      1.0000 0.14560  0.19710  0.31312  Biso   1.000  O
  O24      1.0000 0.35440  0.69710  0.18688  Biso   1.000  O
  O25      1.0000 0.61093  0.66190  0.53515  Biso   1.000  O
  O26      1.0000 0.88907  0.16190  0.96485  Biso   1.000  O
  O27      1.0000 0.38907  0.33810  0.46485  Biso   1.000  O
  O28      1.0000 0.11093  0.83810  0.03515  Biso   1.000  O
  N1       1.0000 0.65305  0.11840  0.40190  Biso   1.000  N
  N2       1.0000 0.84695  0.61840  0.09810  Biso   1.000  N
  N3       1.0000 0.34695  0.88160  0.59810  Biso   1.000  N
  N4       1.0000 0.15305  0.38160  0.90190  Biso   1.000  N
  N5       1.0000 0.81851  0.12540  0.42154  Biso   1.000  N
  N6       1.0000 0.68149  0.62540  0.07846  Biso   1.000  N
  N7       1.0000 0.18149  0.87460  0.57846  Biso   1.000  N
  N8       1.0000 0.31851  0.37460  0.92154  Biso   1.000  N
  O29      1.0000 0.87358  0.48280  0.63995  Biso   1.000  O
  O30      1.0000 0.62642  0.98280  0.86005  Biso   1.000  O
  O31      1.0000 0.12642  0.51720  0.36005  Biso   1.000  O
  O32      1.0000 0.37358  0.01720  0.13995  Biso   1.000  O
  C5       1.0000 0.78655  0.11910  0.34401  Biso   1.000  C
  C6       1.0000 0.71345  0.61910  0.15599  Biso   1.000  C
  C7       1.0000 0.21345  0.88090  0.65599  Biso   1.000  C
  C8       1.0000 0.28655  0.38090  0.84401  Biso   1.000  C
  C9       1.0000 0.69714  0.11700  0.33292  Biso   1.000  C
  C10      1.0000 0.80286  0.61700  0.16708  Biso   1.000  C
  C11      1.0000 0.30286  0.88300  0.66708  Biso   1.000  C
  C12      1.0000 0.19714  0.38300  0.83292  Biso   1.000  C
  C13      1.0000 0.71922  0.60540  0.65081  Biso   1.000  C
  C14      1.0000 0.78078  0.10540  0.84919  Biso   1.000  C
  C15      1.0000 0.28078  0.39460  0.34919  Biso   1.000  C
  C16      1.0000 0.21922  0.89460  0.15081  Biso   1.000  C
  H1       1.0000 0.69450  0.48510  0.66630  Biso   1.000  H
  H2       1.0000 0.80550  0.98510  0.83370  Biso   1.000  H
  H3       1.0000 0.30550  0.51490  0.33370  Biso   1.000  H
  H4       1.0000 0.19450  0.01490  0.16630  Biso   1.000  H
  H5       1.0000 0.68880  0.70590  0.67740  Biso   1.000  H
  H6       1.0000 0.81120  0.20590  0.82260  Biso   1.000  H
  H7       1.0000 0.31120  0.29410  0.32260  Biso   1.000  H
  H8       1.0000 0.18880  0.79410  0.17740  Biso   1.000  H
  C17      1.0000 0.71160  0.10820  0.18713  Biso   1.000  C
  C18      1.0000 0.78840  0.60820  0.31287  Biso   1.000  C
  C19      1.0000 0.28840  0.89180  0.81287  Biso   1.000  C
  C20      1.0000 0.21160  0.39180  0.68713  Biso   1.000  C
  H9       1.0000 0.68720  0.10370  0.13480  Biso   1.000  H
  H10      1.0000 0.81280  0.60370  0.36520  Biso   1.000  H
  H11      1.0000 0.31280  0.89630  0.86520  Biso   1.000  H
  H12      1.0000 0.18720  0.39630  0.63480  Biso   1.000  H
  C21      1.0000 0.95620  0.12580  0.36920  Biso   1.000  C
  C22      1.0000 0.54380  0.62580  0.13080  Biso   1.000  C
  C23      1.0000 0.04380  0.87420  0.63080  Biso   1.000  C
  C24      1.0000 0.45620  0.37420  0.86920  Biso   1.000  C
  H13      1.0000 0.01420  0.12750  0.38000  Biso   1.000  H
  H14      1.0000 0.48580  0.62750  0.12000  Biso   1.000  H
  H15      1.0000 0.98580  0.87250  0.62000  Biso   1.000  H
  H16      1.0000 0.51420  0.37250  0.88000  Biso   1.000  H
  C25      1.0000 0.92410  0.12000  0.29150  Biso   1.000  C
  C26      1.0000 0.57590  0.62000  0.20850  Biso   1.000  C
  C27      1.0000 0.07590  0.88000  0.70850  Biso   1.000  C
  C28      1.0000 0.42410  0.38000  0.79150  Biso   1.000  C
  H17      1.0000 0.96010  0.11900  0.24860  Biso   1.000  H
  H18      1.0000 0.53990  0.61900  0.25140  Biso   1.000  H
  H19      1.0000 0.03990  0.88100  0.75140  Biso   1.000  H
  H20      1.0000 0.46010  0.38100  0.74860  Biso   1.000  H
  C29      1.0000 0.79630  0.11040  0.19750  Biso   1.000  C
  C30      1.0000 0.70370  0.61040  0.30250  Biso   1.000  C
  C31      1.0000 0.20370  0.88960  0.80250  Biso   1.000  C
  C32      1.0000 0.29630  0.38960  0.69750  Biso   1.000  C
  H21      1.0000 0.82900  0.10840  0.15210  Biso   1.000  H
  H22      1.0000 0.67100  0.60840  0.34790  Biso   1.000  H
  H23      1.0000 0.17100  0.89160  0.84790  Biso   1.000  H
  H24      1.0000 0.32900  0.39160  0.65210  Biso   1.000  H
  C33      1.0000 0.65850  0.11270  0.25534  Biso   1.000  C
  C34      1.0000 0.84150  0.61270  0.24466  Biso   1.000  C
  C35      1.0000 0.34150  0.88730  0.74466  Biso   1.000  C
  C36      1.0000 0.15850  0.38730  0.75534  Biso   1.000  C
  C37      1.0000 0.52660  0.11440  0.31870  Biso   1.000  C
  C38      1.0000 0.97340  0.61440  0.18130  Biso   1.000  C
  C39      1.0000 0.47340  0.88560  0.68130  Biso   1.000  C
  C40      1.0000 0.02660  0.38560  0.81870  Biso   1.000  C
  H25      1.0000 0.46790  0.11390  0.31570  Biso   1.000  H
  H26      1.0000 0.03210  0.61390  0.18430  Biso   1.000  H
  H27      1.0000 0.53210  0.88610  0.68430  Biso   1.000  H
  H28      1.0000 0.96790  0.38610  0.81570  Biso   1.000  H
  C41      1.0000 0.57060  0.11280  0.24930  Biso   1.000  C
  C42      1.0000 0.92940  0.61280  0.25070  Biso   1.000  C
  C43      1.0000 0.42940  0.88720  0.75070  Biso   1.000  C
  C44      1.0000 0.07060  0.38720  0.74930  Biso   1.000  C
  H29      1.0000 0.54230  0.11190  0.19870  Biso   1.000  H
  H30      1.0000 0.95770  0.61190  0.30130  Biso   1.000  H
  H31      1.0000 0.45770  0.88810  0.80130  Biso   1.000  H
  H32      1.0000 0.04230  0.38810  0.69870  Biso   1.000  H
  C45      1.0000 0.56970  0.11670  0.39361  Biso   1.000  C
  C46      1.0000 0.93030  0.61670  0.10639  Biso   1.000  C
  C47      1.0000 0.43030  0.88330  0.60639  Biso   1.000  C
  C48      1.0000 0.06970  0.38330  0.89361  Biso   1.000  C
  H33      1.0000 0.53880  0.11710  0.44020  Biso   1.000  H
  H34      1.0000 0.96120  0.61710  0.05980  Biso   1.000  H
  H35      1.0000 0.46120  0.88290  0.55980  Biso   1.000  H
  H36      1.0000 0.03880  0.38290  0.94020  Biso   1.000  H
  C49      1.0000 0.90100  0.12920  0.43285  Biso   1.000  C
  C50      1.0000 0.59900  0.62920  0.06715  Biso   1.000  C
  C51      1.0000 0.09900  0.87080  0.56715  Biso   1.000  C
  C52      1.0000 0.40100  0.37080  0.93285  Biso   1.000  C
  H37      1.0000 0.92370  0.13430  0.48580  Biso   1.000  H
  H38      1.0000 0.57630  0.63430  0.01420  Biso   1.000  H
  H39      1.0000 0.07630  0.86570  0.51420  Biso   1.000  H
  H40      1.0000 0.42370  0.36570  0.98580  Biso   1.000  H
  H41      1.0000 0.83200  0.23600  0.61600  Biso   1.000  H
  H42      1.0000 0.66800  0.73600  0.88400  Biso   1.000  H
  H43      1.0000 0.16800  0.76400  0.38400  Biso   1.000  H
  H44      1.0000 0.33200  0.26400  0.11600  Biso   1.000  H
  H45      1.0000 0.82400  0.03300  0.62400  Biso   1.000  H
  H46      1.0000 0.67600  0.53300  0.87600  Biso   1.000  H
  H47      1.0000 0.17600  0.96700  0.37600  Biso   1.000  H
  H48      1.0000 0.32400  0.46700  0.12400  Biso   1.000  H
  H49      1.0000 0.65600  0.08500  0.62310  Biso   1.000  H
  H50      1.0000 0.84400  0.58500  0.87690  Biso   1.000  H
  H51      1.0000 0.34400  0.91500  0.37690  Biso   1.000  H
  H52      1.0000 0.15600  0.41500  0.12310  Biso   1.000  H
  H53      1.0000 0.59400  0.19800  0.57800  Biso   1.000  H
  H54      1.0000 0.90600  0.69800  0.92200  Biso   1.000  H
  H55      1.0000 0.40600  0.80200  0.42200  Biso   1.000  H
  H56      1.0000 0.09400  0.30200  0.07800  Biso   1.000  H
  O33      1.0000 0.50829  0.36920  0.59201  Biso   1.000  O
  O34      1.0000 0.99171  0.86920  0.90799  Biso   1.000  O
  O35      1.0000 0.49171  0.63080  0.40799  Biso   1.000  O
  O36      1.0000 0.00829  0.13080  0.09201  Biso   1.000  O
  H57      1.0000 0.46700  0.36600  0.55600  Biso   1.000  H
  H58      1.0000 0.03300  0.86600  0.94400  Biso   1.000  H
  H59      1.0000 0.53300  0.63400  0.44400  Biso   1.000  H
  H60      1.0000 0.96700  0.13400  0.05600  Biso   1.000  H
  H61      1.0000 0.53500  0.47700  0.59100  Biso   1.000  H
  H62      1.0000 0.96500  0.97700  0.90900  Biso   1.000  H
  H63      1.0000 0.46500  0.52300  0.40900  Biso   1.000  H
  H64      1.0000 0.03500  0.02300  0.09100  Biso   1.000  H
  O37      1.0000 0.93050  0.64490  0.48029  Biso   1.000  O
  O38      1.0000 0.56950  0.14490  0.01971  Biso   1.000  O
  O39      1.0000 0.06950  0.35510  0.51971  Biso   1.000  O
  O40      1.0000 0.43050  0.85510  0.98029  Biso   1.000  O
