data_image0
_cell_length_a       8.811
_cell_length_b       8.822
_cell_length_c       10.366
_cell_angle_alpha    82.822
_cell_angle_beta     65.822
_cell_angle_gamma    60.286

_symmetry_space_group_name_H-M    "P 1"
_symmetry_int_tables_number       1

loop_
  _symmetry_equiv_pos_as_xyz
  'x, y, z'

loop_
  _atom_site_label
  _atom_site_occupancy
  _atom_site_fract_x
  _atom_site_fract_y
  _atom_site_fract_z
  _atom_site_thermal_displace_type
  _atom_site_B_iso_or_equiv
  _atom_site_type_symbol
  Cu1      1.0000 0.00000  0.50000  0.50000  Biso   1.000  Cu
  C1       1.0000 0.72220  0.88250  0.59640  Biso   1.000  C
  C2       1.0000 0.27780  0.11750  0.40360  Biso   1.000  C
  H1       1.0000 0.81860  0.91150  0.56780  Biso   1.000  H
  H2       1.0000 0.18140  0.08850  0.43220  Biso   1.000  H
  C3       1.0000 0.57250  0.73570  0.64280  Biso   1.000  C
  C4       1.0000 0.42750  0.26430  0.35720  Biso   1.000  C
  H3       1.0000 0.54800  0.64290  0.65160  Biso   1.000  H
  H4       1.0000 0.45200  0.35710  0.34840  Biso   1.000  H
  C5       1.0000 0.43910  0.90640  0.67990  Biso   1.000  C
  C6       1.0000 0.56090  0.09360  0.32010  Biso   1.000  C
  H5       1.0000 0.30740  0.95260  0.71830  Biso   1.000  H
  H6       1.0000 0.69260  0.04740  0.28170  Biso   1.000  H
  C7       1.0000 0.45040  0.18920  0.67700  Biso   1.000  C
  C8       1.0000 0.54960  0.81080  0.32300  Biso   1.000  C
  H7       1.0000 0.33110  0.24870  0.66480  Biso   1.000  H
  H8       1.0000 0.66890  0.75130  0.33520  Biso   1.000  H
  H9       1.0000 0.53620  0.22700  0.60820  Biso   1.000  H
  H10      1.0000 0.46380  0.77300  0.39180  Biso   1.000  H
  C9       1.0000 0.41340  0.23980  0.82470  Biso   1.000  C
  C10      1.0000 0.58660  0.76020  0.17530  Biso   1.000  C
  H11      1.0000 0.35120  0.36630  0.84220  Biso   1.000  H
  H12      1.0000 0.64880  0.63370  0.15780  Biso   1.000  H
  H13      1.0000 0.33180  0.19880  0.89480  Biso   1.000  H
  H14      1.0000 0.66820  0.80120  0.10520  Biso   1.000  H
  C11      1.0000 0.58850  0.19050  0.96490  Biso   1.000  C
  C12      1.0000 0.41150  0.80950  0.03510  Biso   1.000  C
  H15      1.0000 0.53620  0.12660  0.03530  Biso   1.000  H
  H16      1.0000 0.46380  0.87340  0.96470  Biso   1.000  H
  H17      1.0000 0.50950  0.31450  0.99760  Biso   1.000  H
  H18      1.0000 0.49050  0.68550  0.00240  Biso   1.000  H
  C13      1.0000 0.79080  0.12790  0.94270  Biso   1.000  C
  C14      1.0000 0.20920  0.87210  0.05730  Biso   1.000  C
  H19      1.0000 0.79780  0.12140  0.03440  Biso   1.000  H
  H20      1.0000 0.20220  0.87860  0.96560  Biso   1.000  H
  H21      1.0000 0.87220  0.01100  0.89310  Biso   1.000  H
  H22      1.0000 0.12780  0.98900  0.10690  Biso   1.000  H
  C15      1.0000 0.89080  0.27470  0.72340  Biso   1.000  C
  C16      1.0000 0.10920  0.72530  0.27660  Biso   1.000  C
  H23      1.0000 0.87800  0.21640  0.66290  Biso   1.000  H
  H24      1.0000 0.12200  0.78360  0.33710  Biso   1.000  H
  C17      1.0000 0.94250  0.44840  0.80720  Biso   1.000  C
  C18      1.0000 0.05750  0.55160  0.19280  Biso   1.000  C
  H25      1.0000 0.97210  0.53390  0.81390  Biso   1.000  H
  H26      1.0000 0.02790  0.46610  0.18610  Biso   1.000  H
  C19      1.0000 0.89480  0.35410  0.91290  Biso   1.000  C
  C20      1.0000 0.10520  0.64590  0.08710  Biso   1.000  C
  H27      1.0000 0.88640  0.36170  0.00450  Biso   1.000  H
  H28      1.0000 0.11360  0.63830  0.99550  Biso   1.000  H
  N1       1.0000 0.75120  0.72100  0.58970  Biso   1.000  N
  N2       1.0000 0.24880  0.27900  0.41030  Biso   1.000  N
  N3       1.0000 0.53490  0.99870  0.65020  Biso   1.000  N
  N4       1.0000 0.46510  0.00130  0.34980  Biso   1.000  N
  N5       1.0000 0.86120  0.24530  0.86020  Biso   1.000  N
  N6       1.0000 0.13880  0.75470  0.13980  Biso   1.000  N
  N7       1.0000 0.94040  0.39800  0.68720  Biso   1.000  N
  N8       1.0000 0.05960  0.60200  0.31280  Biso   1.000  N
  N9       1.0000 0.15360  0.72430  0.64100  Biso   1.000  N
  N10      1.0000 0.84640  0.27570  0.35900  Biso   1.000  N
  O1       1.0000 0.18660  0.60150  0.56890  Biso   1.000  O
  O2       1.0000 0.81340  0.39850  0.43110  Biso   1.000  O
  O3       1.0000 0.11400  0.86820  0.59460  Biso   1.000  O
  O4       1.0000 0.88600  0.13180  0.40540  Biso   1.000  O
  O5       1.0000 0.15960  0.70460  0.75840  Biso   1.000  O
  O6       1.0000 0.84040  0.29540  0.24160  Biso   1.000  O
  O7       1.0000 0.59350  0.15990  0.83270  Biso   1.000  O
  O8       1.0000 0.40650  0.84010  0.16730  Biso   1.000  O
