data_image0
_cell_length_a       8.544
_cell_length_b       15.517
_cell_length_c       12.16
_cell_angle_alpha    90
_cell_angle_beta     90.84
_cell_angle_gamma    90

_symmetry_space_group_name_H-M    "P 1"
_symmetry_int_tables_number       1

loop_
  _symmetry_equiv_pos_as_xyz
  'x, y, z'

loop_
  _atom_site_label
  _atom_site_occupancy
  _atom_site_fract_x
  _atom_site_fract_y
  _atom_site_fract_z
  _atom_site_thermal_displace_type
  _atom_site_B_iso_or_equiv
  _atom_site_type_symbol
  Cu1      1.0000 0.06377  0.61095  0.69993  Biso   1.000  Cu
  Cu2      1.0000 0.56377  0.88905  0.19993  Biso   1.000  Cu
  Cu3      1.0000 0.93623  0.38905  0.30007  Biso   1.000  Cu
  Cu4      1.0000 0.43623  0.11095  0.80007  Biso   1.000  Cu
  N1       1.0000 0.17720  0.60092  0.84570  Biso   1.000  N
  N2       1.0000 0.67720  0.89908  0.34570  Biso   1.000  N
  N3       1.0000 0.82280  0.39908  0.15430  Biso   1.000  N
  N4       1.0000 0.32280  0.10092  0.65430  Biso   1.000  N
  N5       1.0000 0.02830  0.48502  0.72500  Biso   1.000  N
  N6       1.0000 0.52830  0.01498  0.22500  Biso   1.000  N
  N7       1.0000 0.97170  0.51498  0.27500  Biso   1.000  N
  N8       1.0000 0.47170  0.98502  0.77500  Biso   1.000  N
  N9       1.0000 0.02540  0.78420  0.74050  Biso   1.000  N
  N10      1.0000 0.52540  0.71580  0.24050  Biso   1.000  N
  N11      1.0000 0.97460  0.21580  0.25950  Biso   1.000  N
  N12      1.0000 0.47460  0.28420  0.75950  Biso   1.000  N
  C1       1.0000 0.25780  0.66000  0.90190  Biso   1.000  C
  C2       1.0000 0.75780  0.84000  0.40190  Biso   1.000  C
  C3       1.0000 0.74220  0.34000  0.09810  Biso   1.000  C
  C4       1.0000 0.24220  0.16000  0.59810  Biso   1.000  C
  C5       1.0000 0.33050  0.64120  0.00250  Biso   1.000  C
  C6       1.0000 0.83050  0.85880  0.50250  Biso   1.000  C
  C7       1.0000 0.66950  0.35880  0.99750  Biso   1.000  C
  C8       1.0000 0.16950  0.14120  0.49750  Biso   1.000  C
  C9       1.0000 0.31850  0.56150  0.04680  Biso   1.000  C
  C10      1.0000 0.81850  0.93850  0.54680  Biso   1.000  C
  C11      1.0000 0.68150  0.43850  0.95320  Biso   1.000  C
  C12      1.0000 0.18150  0.06150  0.45320  Biso   1.000  C
  C13      1.0000 0.23730  0.49690  0.99070  Biso   1.000  C
  C14      1.0000 0.73730  0.00310  0.49070  Biso   1.000  C
  C15      1.0000 0.76270  0.50310  0.00930  Biso   1.000  C
  C16      1.0000 0.26270  0.99690  0.50930  Biso   1.000  C
  C17      1.0000 0.21690  0.41030  0.02750  Biso   1.000  C
  C18      1.0000 0.71690  0.08970  0.52750  Biso   1.000  C
  C19      1.0000 0.78310  0.58970  0.97250  Biso   1.000  C
  C20      1.0000 0.28310  0.91030  0.47250  Biso   1.000  C
  C21      1.0000 0.14180  0.35210  0.96650  Biso   1.000  C
  C22      1.0000 0.64180  0.14790  0.46650  Biso   1.000  C
  C23      1.0000 0.85820  0.64790  0.03350  Biso   1.000  C
  C24      1.0000 0.35820  0.85210  0.53350  Biso   1.000  C
  C25      1.0000 0.07410  0.37270  0.86090  Biso   1.000  C
  C26      1.0000 0.57410  0.12730  0.36090  Biso   1.000  C
  C27      1.0000 0.92590  0.62730  0.13910  Biso   1.000  C
  C28      1.0000 0.42590  0.87270  0.63910  Biso   1.000  C
  C29      1.0000 0.99650  0.31500  0.79040  Biso   1.000  C
  C30      1.0000 0.49650  0.18500  0.29040  Biso   1.000  C
  C31      1.0000 0.00350  0.68500  0.20960  Biso   1.000  C
  C32      1.0000 0.50350  0.81500  0.70960  Biso   1.000  C
  C33      1.0000 0.93910  0.34160  0.69110  Biso   1.000  C
  C34      1.0000 0.43910  0.15840  0.19110  Biso   1.000  C
  C35      1.0000 0.06090  0.65840  0.30890  Biso   1.000  C
  C36      1.0000 0.56090  0.84160  0.80890  Biso   1.000  C
  C37      1.0000 0.95700  0.42790  0.66070  Biso   1.000  C
  C38      1.0000 0.45700  0.07210  0.16070  Biso   1.000  C
  C39      1.0000 0.04300  0.57210  0.33930  Biso   1.000  C
  C40      1.0000 0.54300  0.92790  0.83930  Biso   1.000  C
  C41      1.0000 0.08770  0.45780  0.82380  Biso   1.000  C
  C42      1.0000 0.58770  0.04220  0.32380  Biso   1.000  C
  C43      1.0000 0.91230  0.54220  0.17620  Biso   1.000  C
  C44      1.0000 0.41230  0.95780  0.67620  Biso   1.000  C
  C45      1.0000 0.16850  0.52030  0.88840  Biso   1.000  C
  C46      1.0000 0.66850  0.97970  0.38840  Biso   1.000  C
  C47      1.0000 0.83150  0.47970  0.11160  Biso   1.000  C
  C48      1.0000 0.33150  0.02030  0.61160  Biso   1.000  C
  C49      1.0000 0.76590  0.60680  0.60090  Biso   1.000  C
  C50      1.0000 0.26590  0.89320  0.10090  Biso   1.000  C
  C51      1.0000 0.23410  0.39320  0.39910  Biso   1.000  C
  C52      1.0000 0.73410  0.10680  0.89910  Biso   1.000  C
  C53      1.0000 0.65500  0.61290  0.50570  Biso   1.000  C
  C54      1.0000 0.15500  0.88710  0.00570  Biso   1.000  C
  C55      1.0000 0.34500  0.38710  0.49430  Biso   1.000  C
  C56      1.0000 0.84500  0.11290  0.99430  Biso   1.000  C
  C57      1.0000 0.49910  0.60560  0.50180  Biso   1.000  C
  C58      1.0000 0.99910  0.89440  0.00180  Biso   1.000  C
  C59      1.0000 0.50090  0.39440  0.49820  Biso   1.000  C
  C60      1.0000 0.00090  0.10560  0.99820  Biso   1.000  C
  C61      1.0000 0.38510  0.59100  0.59110  Biso   1.000  C
  C62      1.0000 0.88510  0.90900  0.09110  Biso   1.000  C
  C63      1.0000 0.61490  0.40900  0.40890  Biso   1.000  C
  C64      1.0000 0.11490  0.09100  0.90890  Biso   1.000  C
  O1       1.0000 0.90740  0.62002  0.57977  Biso   1.000  O
  O2       1.0000 0.40740  0.87998  0.07977  Biso   1.000  O
  O3       1.0000 0.09260  0.37998  0.42023  Biso   1.000  O
  O4       1.0000 0.59260  0.12002  0.92023  Biso   1.000  O
  O5       1.0000 0.71870  0.58820  0.69485  Biso   1.000  O
  O6       1.0000 0.21870  0.91180  0.19485  Biso   1.000  O
  O7       1.0000 0.28130  0.41180  0.30515  Biso   1.000  O
  O8       1.0000 0.78130  0.08820  0.80515  Biso   1.000  O
  O9       1.0000 0.24630  0.59308  0.56880  Biso   1.000  O
  O10      1.0000 0.74630  0.90692  0.06880  Biso   1.000  O
  O11      1.0000 0.75370  0.40692  0.43120  Biso   1.000  O
  O12      1.0000 0.25370  0.09308  0.93120  Biso   1.000  O
  O13      1.0000 0.43610  0.57584  0.69080  Biso   1.000  O
  O14      1.0000 0.93610  0.92416  0.19080  Biso   1.000  O
  O15      1.0000 0.56390  0.42416  0.30920  Biso   1.000  O
  O16      1.0000 0.06390  0.07584  0.80920  Biso   1.000  O
  O17      1.0000 0.11600  0.73392  0.68510  Biso   1.000  O
  O18      1.0000 0.61600  0.76608  0.18510  Biso   1.000  O
  O19      1.0000 0.88400  0.26608  0.31490  Biso   1.000  O
  O20      1.0000 0.38400  0.23392  0.81490  Biso   1.000  O
  O21      1.0000 0.91820  0.75060  0.79180  Biso   1.000  O
  O22      1.0000 0.41820  0.74940  0.29180  Biso   1.000  O
  O23      1.0000 0.08180  0.24940  0.20820  Biso   1.000  O
  O24      1.0000 0.58180  0.25060  0.70820  Biso   1.000  O
  O25      1.0000 0.05200  0.86169  0.73920  Biso   1.000  O
  O26      1.0000 0.55200  0.63831  0.23920  Biso   1.000  O
  O27      1.0000 0.94800  0.13831  0.26080  Biso   1.000  O
  O28      1.0000 0.44800  0.36169  0.76080  Biso   1.000  O
  H1       1.0000 0.57600  0.58600  0.69600  Biso   1.000  H
  H2       1.0000 0.07600  0.91400  0.19600  Biso   1.000  H
  H3       1.0000 0.42400  0.41400  0.30400  Biso   1.000  H
  H4       1.0000 0.92400  0.08600  0.80400  Biso   1.000  H
  H5       1.0000 0.26200  0.71700  0.86900  Biso   1.000  H
  H6       1.0000 0.76200  0.78300  0.36900  Biso   1.000  H
  H7       1.0000 0.73800  0.28300  0.13100  Biso   1.000  H
  H8       1.0000 0.23800  0.21700  0.63100  Biso   1.000  H
  H9       1.0000 0.37500  0.68200  0.03700  Biso   1.000  H
  H10      1.0000 0.87500  0.81800  0.53700  Biso   1.000  H
  H11      1.0000 0.62500  0.31800  0.96300  Biso   1.000  H
  H12      1.0000 0.12500  0.18200  0.46300  Biso   1.000  H
  H13      1.0000 0.37000  0.54900  0.11300  Biso   1.000  H
  H14      1.0000 0.87000  0.95100  0.61300  Biso   1.000  H
  H15      1.0000 0.63000  0.45100  0.88700  Biso   1.000  H
  H16      1.0000 0.13000  0.04900  0.38700  Biso   1.000  H
  H17      1.0000 0.26400  0.39500  0.09600  Biso   1.000  H
  H18      1.0000 0.76400  0.10500  0.59600  Biso   1.000  H
  H19      1.0000 0.73600  0.60500  0.90400  Biso   1.000  H
  H20      1.0000 0.23600  0.89500  0.40400  Biso   1.000  H
  H21      1.0000 0.13800  0.29400  0.98700  Biso   1.000  H
  H22      1.0000 0.63800  0.20600  0.48700  Biso   1.000  H
  H23      1.0000 0.86200  0.70600  0.01300  Biso   1.000  H
  H24      1.0000 0.36200  0.79400  0.51300  Biso   1.000  H
  H25      1.0000 0.99000  0.26300  0.80800  Biso   1.000  H
  H26      1.0000 0.49000  0.23700  0.30800  Biso   1.000  H
  H27      1.0000 0.01000  0.73700  0.19200  Biso   1.000  H
  H28      1.0000 0.51000  0.76300  0.69200  Biso   1.000  H
  H29      1.0000 0.88100  0.30500  0.63800  Biso   1.000  H
  H30      1.0000 0.38100  0.19500  0.13800  Biso   1.000  H
  H31      1.0000 0.11900  0.69500  0.36200  Biso   1.000  H
  H32      1.0000 0.61900  0.80500  0.86200  Biso   1.000  H
  H33      1.0000 0.91800  0.44800  0.59300  Biso   1.000  H
  H34      1.0000 0.41800  0.05200  0.09300  Biso   1.000  H
  H35      1.0000 0.08200  0.55200  0.40700  Biso   1.000  H
  H36      1.0000 0.58200  0.94800  0.90700  Biso   1.000  H
  H37      1.0000 0.70100  0.61700  0.44000  Biso   1.000  H
  H38      1.0000 0.20100  0.88300  0.94000  Biso   1.000  H
  H39      1.0000 0.29900  0.38300  0.56000  Biso   1.000  H
  H40      1.0000 0.79900  0.11700  0.06000  Biso   1.000  H
  H41      1.0000 0.44800  0.61000  0.43200  Biso   1.000  H
  H42      1.0000 0.94800  0.89000  0.93200  Biso   1.000  H
  H43      1.0000 0.55200  0.39000  0.56800  Biso   1.000  H
  H44      1.0000 0.05200  0.11000  0.06800  Biso   1.000  H
