data_image0
_cell_length_a       8.639
_cell_length_b       15.614
_cell_length_c       11.326
_cell_angle_alpha    90
_cell_angle_beta     94.67
_cell_angle_gamma    90

_symmetry_space_group_name_H-M    "P 1"
_symmetry_int_tables_number       1

loop_
  _symmetry_equiv_pos_as_xyz
  'x, y, z'

loop_
  _atom_site_label
  _atom_site_occupancy
  _atom_site_fract_x
  _atom_site_fract_y
  _atom_site_fract_z
  _atom_site_thermal_displace_type
  _atom_site_B_iso_or_equiv
  _atom_site_type_symbol
  Cu1      1.0000 0.99712  0.89580  0.77466  Biso   1.000  Cu
  Cu2      1.0000 0.49712  0.60420  0.27466  Biso   1.000  Cu
  Cu3      1.0000 0.00288  0.10420  0.22534  Biso   1.000  Cu
  Cu4      1.0000 0.50288  0.39580  0.72534  Biso   1.000  Cu
  Cl1      1.0000 0.95075  0.75556  0.75006  Biso   1.000  Cl
  Cl2      1.0000 0.45075  0.74444  0.25006  Biso   1.000  Cl
  Cl3      1.0000 0.04925  0.24444  0.24994  Biso   1.000  Cl
  Cl4      1.0000 0.54925  0.25556  0.74994  Biso   1.000  Cl
  N1       1.0000 0.11540  0.90513  0.62950  Biso   1.000  N
  N2       1.0000 0.61540  0.59487  0.12950  Biso   1.000  N
  N3       1.0000 0.88460  0.09487  0.37050  Biso   1.000  N
  N4       1.0000 0.38460  0.40513  0.87050  Biso   1.000  N
  N5       1.0000 0.01310  0.02522  0.76654  Biso   1.000  N
  N6       1.0000 0.51310  0.47478  0.26654  Biso   1.000  N
  N7       1.0000 0.98690  0.97478  0.23346  Biso   1.000  N
  N8       1.0000 0.48690  0.52522  0.73346  Biso   1.000  N
  C1       1.0000 0.16830  0.84350  0.56390  Biso   1.000  C
  C2       1.0000 0.66830  0.65650  0.06390  Biso   1.000  C
  C3       1.0000 0.83170  0.15650  0.43610  Biso   1.000  C
  C4       1.0000 0.33170  0.34350  0.93610  Biso   1.000  C
  H1       1.0000 0.14170  0.78720  0.57980  Biso   1.000  H
  H2       1.0000 0.64170  0.71280  0.07980  Biso   1.000  H
  H3       1.0000 0.85830  0.21280  0.42020  Biso   1.000  H
  H4       1.0000 0.35830  0.28720  0.92020  Biso   1.000  H
  C5       1.0000 0.26270  0.85920  0.47150  Biso   1.000  C
  C6       1.0000 0.76270  0.64080  0.97150  Biso   1.000  C
  C7       1.0000 0.73730  0.14080  0.52850  Biso   1.000  C
  C8       1.0000 0.23730  0.35920  0.02850  Biso   1.000  C
  H5       1.0000 0.29840  0.81390  0.42780  Biso   1.000  H
  H6       1.0000 0.79840  0.68610  0.92780  Biso   1.000  H
  H7       1.0000 0.70160  0.18610  0.57220  Biso   1.000  H
  H8       1.0000 0.20160  0.31390  0.07220  Biso   1.000  H
  C9       1.0000 0.30130  0.94050  0.44630  Biso   1.000  C
  C10      1.0000 0.80130  0.55950  0.94630  Biso   1.000  C
  C11      1.0000 0.69870  0.05950  0.55370  Biso   1.000  C
  C12      1.0000 0.19870  0.44050  0.05370  Biso   1.000  C
  H9       1.0000 0.36310  0.95150  0.38450  Biso   1.000  H
  H10      1.0000 0.86310  0.54850  0.88450  Biso   1.000  H
  H11      1.0000 0.63690  0.04850  0.61550  Biso   1.000  H
  H12      1.0000 0.13690  0.45150  0.11550  Biso   1.000  H
  C13      1.0000 0.24820  0.00881  0.51350  Biso   1.000  C
  C14      1.0000 0.74820  0.49119  0.01350  Biso   1.000  C
  C15      1.0000 0.75180  0.99119  0.48650  Biso   1.000  C
  C16      1.0000 0.25180  0.50881  0.98650  Biso   1.000  C
  C17      1.0000 0.28290  0.09690  0.49560  Biso   1.000  C
  C18      1.0000 0.78290  0.40310  0.99560  Biso   1.000  C
  C19      1.0000 0.71710  0.90310  0.50440  Biso   1.000  C
  C20      1.0000 0.21710  0.59690  0.00440  Biso   1.000  C
  H13      1.0000 0.34250  0.11250  0.43430  Biso   1.000  H
  H14      1.0000 0.84250  0.38750  0.93430  Biso   1.000  H
  H15      1.0000 0.65750  0.88750  0.56570  Biso   1.000  H
  H16      1.0000 0.15750  0.61250  0.06570  Biso   1.000  H
  C21      1.0000 0.23020  0.15830  0.56660  Biso   1.000  C
  C22      1.0000 0.73020  0.34170  0.06660  Biso   1.000  C
  C23      1.0000 0.76980  0.84170  0.43340  Biso   1.000  C
  C24      1.0000 0.26980  0.65830  0.93340  Biso   1.000  C
  H17      1.0000 0.25590  0.21520  0.55360  Biso   1.000  H
  H18      1.0000 0.75590  0.28480  0.05360  Biso   1.000  H
  H19      1.0000 0.74410  0.78480  0.44640  Biso   1.000  H
  H20      1.0000 0.24410  0.71520  0.94640  Biso   1.000  H
  C25      1.0000 0.13600  0.13811  0.66100  Biso   1.000  C
  C26      1.0000 0.63600  0.36189  0.16100  Biso   1.000  C
  C27      1.0000 0.86400  0.86189  0.33900  Biso   1.000  C
  C28      1.0000 0.36400  0.63811  0.83900  Biso   1.000  C
  C29      1.0000 0.07560  0.19780  0.73740  Biso   1.000  C
  C30      1.0000 0.57560  0.30220  0.23740  Biso   1.000  C
  C31      1.0000 0.92440  0.80220  0.26260  Biso   1.000  C
  C32      1.0000 0.42440  0.69780  0.76260  Biso   1.000  C
  H21      1.0000 0.09640  0.25580  0.72880  Biso   1.000  H
  H22      1.0000 0.59640  0.24420  0.22880  Biso   1.000  H
  H23      1.0000 0.90360  0.74420  0.27120  Biso   1.000  H
  H24      1.0000 0.40360  0.75580  0.77120  Biso   1.000  H
  C33      1.0000 0.98590  0.17090  0.82480  Biso   1.000  C
  C34      1.0000 0.48590  0.32910  0.32480  Biso   1.000  C
  C35      1.0000 0.01410  0.82910  0.17520  Biso   1.000  C
  C36      1.0000 0.51410  0.67090  0.67520  Biso   1.000  C
  H25      1.0000 0.94420  0.21040  0.87490  Biso   1.000  H
  H26      1.0000 0.44420  0.28960  0.37490  Biso   1.000  H
  H27      1.0000 0.05580  0.78960  0.12510  Biso   1.000  H
  H28      1.0000 0.55580  0.71040  0.62510  Biso   1.000  H
  C37      1.0000 0.95810  0.08390  0.83730  Biso   1.000  C
  C38      1.0000 0.45810  0.41610  0.33730  Biso   1.000  C
  C39      1.0000 0.04190  0.91610  0.16270  Biso   1.000  C
  C40      1.0000 0.54190  0.58390  0.66270  Biso   1.000  C
  H29      1.0000 0.89870  0.06600  0.89750  Biso   1.000  H
  H30      1.0000 0.39870  0.43400  0.39750  Biso   1.000  H
  H31      1.0000 0.10130  0.93400  0.10250  Biso   1.000  H
  H32      1.0000 0.60130  0.56600  0.60250  Biso   1.000  H
  C41      1.0000 0.09980  0.05196  0.67930  Biso   1.000  C
  C42      1.0000 0.59980  0.44804  0.17930  Biso   1.000  C
  C43      1.0000 0.90020  0.94804  0.32070  Biso   1.000  C
  C44      1.0000 0.40020  0.55196  0.82070  Biso   1.000  C
  C45      1.0000 0.15490  0.98694  0.60530  Biso   1.000  C
  C46      1.0000 0.65490  0.51306  0.10530  Biso   1.000  C
  C47      1.0000 0.84510  0.01306  0.39470  Biso   1.000  C
  C48      1.0000 0.34510  0.48694  0.89470  Biso   1.000  C
  O1       1.0000 0.87360  0.89764  0.91310  Biso   1.000  O
  O2       1.0000 0.37360  0.60236  0.41310  Biso   1.000  O
  O3       1.0000 0.12640  0.10236  0.08690  Biso   1.000  O
  O4       1.0000 0.62640  0.39764  0.58690  Biso   1.000  O
  O5       1.0000 0.67020  0.93365  0.79339  Biso   1.000  O
  O6       1.0000 0.17020  0.56635  0.29339  Biso   1.000  O
  O7       1.0000 0.32980  0.06635  0.20661  Biso   1.000  O
  O8       1.0000 0.82980  0.43365  0.70661  Biso   1.000  O
  C49      1.0000 0.73000  0.90893  0.89250  Biso   1.000  C
  C50      1.0000 0.23000  0.59107  0.39250  Biso   1.000  C
  C51      1.0000 0.27000  0.09107  0.10750  Biso   1.000  C
  C52      1.0000 0.77000  0.40893  0.60750  Biso   1.000  C
  C53      1.0000 0.63360  0.89052  0.99260  Biso   1.000  C
  C54      1.0000 0.13360  0.60948  0.49260  Biso   1.000  C
  C55      1.0000 0.36640  0.10948  0.00740  Biso   1.000  C
  C56      1.0000 0.86640  0.39052  0.50740  Biso   1.000  C
  H33      1.0000 0.68910  0.87810  0.06440  Biso   1.000  H
  H34      1.0000 0.18910  0.62190  0.56440  Biso   1.000  H
  H35      1.0000 0.31090  0.12190  0.93560  Biso   1.000  H
  H36      1.0000 0.81090  0.37810  0.43560  Biso   1.000  H
  C57      1.0000 0.47920  0.88917  0.99470  Biso   1.000  C
  C58      1.0000 0.97920  0.61083  0.49470  Biso   1.000  C
  C59      1.0000 0.52080  0.11083  0.00530  Biso   1.000  C
  C60      1.0000 0.02080  0.38917  0.50530  Biso   1.000  C
  H37      1.0000 0.44420  0.87530  0.06780  Biso   1.000  H
  H38      1.0000 0.94420  0.62470  0.56780  Biso   1.000  H
  H39      1.0000 0.55580  0.12470  0.93220  Biso   1.000  H
  H40      1.0000 0.05580  0.37530  0.43220  Biso   1.000  H
  C61      1.0000 0.35430  0.90617  0.89940  Biso   1.000  C
  C62      1.0000 0.85430  0.59383  0.39940  Biso   1.000  C
  C63      1.0000 0.64570  0.09383  0.10060  Biso   1.000  C
  C64      1.0000 0.14570  0.40617  0.60060  Biso   1.000  C
  O9       1.0000 0.21980  0.89342  0.91890  Biso   1.000  O
  O10      1.0000 0.71980  0.60658  0.41890  Biso   1.000  O
  O11      1.0000 0.78020  0.10658  0.08110  Biso   1.000  O
  O12      1.0000 0.28020  0.39342  0.58110  Biso   1.000  O
  O13      1.0000 0.39090  0.93458  0.79768  Biso   1.000  O
  O14      1.0000 0.89090  0.56542  0.29768  Biso   1.000  O
  O15      1.0000 0.60910  0.06542  0.20232  Biso   1.000  O
  O16      1.0000 0.10910  0.43458  0.70232  Biso   1.000  O
  H41      1.0000 0.53300  0.94000  0.78900  Biso   1.000  H
  H42      1.0000 0.03300  0.56000  0.28900  Biso   1.000  H
  H43      1.0000 0.46700  0.06000  0.21100  Biso   1.000  H
  H44      1.0000 0.96700  0.44000  0.71100  Biso   1.000  H
