data_image0
_cell_length_a       11.529
_cell_length_b       13.575
_cell_length_c       15.908
_cell_angle_alpha    90
_cell_angle_beta     106.411
_cell_angle_gamma    90

_symmetry_space_group_name_H-M    "P 1"
_symmetry_int_tables_number       1

loop_
  _symmetry_equiv_pos_as_xyz
  'x, y, z'

loop_
  _atom_site_label
  _atom_site_occupancy
  _atom_site_fract_x
  _atom_site_fract_y
  _atom_site_fract_z
  _atom_site_thermal_displace_type
  _atom_site_B_iso_or_equiv
  _atom_site_type_symbol
  Cu1      1.0000 0.00194  0.13839  0.87418  Biso   1.000  Cu
  Cu2      1.0000 0.99806  0.63839  0.62582  Biso   1.000  Cu
  Cu3      1.0000 0.99806  0.86161  0.12582  Biso   1.000  Cu
  Cu4      1.0000 0.00194  0.36161  0.37418  Biso   1.000  Cu
  O1       1.0000 0.85838  0.14882  0.77795  Biso   1.000  O
  O2       1.0000 0.14162  0.64882  0.72205  Biso   1.000  O
  O3       1.0000 0.14162  0.85118  0.22205  Biso   1.000  O
  O4       1.0000 0.85838  0.35118  0.27795  Biso   1.000  O
  O5       1.0000 0.76700  0.14235  0.88306  Biso   1.000  O
  O6       1.0000 0.23300  0.64235  0.61694  Biso   1.000  O
  O7       1.0000 0.23300  0.85765  0.11694  Biso   1.000  O
  O8       1.0000 0.76700  0.35765  0.38306  Biso   1.000  O
  O9       1.0000 0.41990  0.11870  0.43489  Biso   1.000  O
  O10      1.0000 0.58010  0.61870  0.06511  Biso   1.000  O
  O11      1.0000 0.58010  0.88130  0.56511  Biso   1.000  O
  O12      1.0000 0.41990  0.38130  0.93489  Biso   1.000  O
  O13      1.0000 0.62160  0.12016  0.46777  Biso   1.000  O
  O14      1.0000 0.37840  0.62016  0.03223  Biso   1.000  O
  O15      1.0000 0.37840  0.87984  0.53223  Biso   1.000  O
  O16      1.0000 0.62160  0.37984  0.96777  Biso   1.000  O
  O17      1.0000 0.15063  0.12869  0.96709  Biso   1.000  O
  O18      1.0000 0.84937  0.62869  0.53291  Biso   1.000  O
  O19      1.0000 0.84937  0.87131  0.03291  Biso   1.000  O
  O20      1.0000 0.15063  0.37131  0.46709  Biso   1.000  O
  O21      1.0000 0.22980  0.12708  0.85576  Biso   1.000  O
  O22      1.0000 0.77020  0.62708  0.64424  Biso   1.000  O
  O23      1.0000 0.77020  0.87292  0.14424  Biso   1.000  O
  O24      1.0000 0.22980  0.37292  0.35576  Biso   1.000  O
  O25      1.0000 0.61010  0.11244  0.29802  Biso   1.000  O
  O26      1.0000 0.38990  0.61244  0.20198  Biso   1.000  O
  O27      1.0000 0.38990  0.88756  0.70198  Biso   1.000  O
  O28      1.0000 0.61010  0.38756  0.79802  Biso   1.000  O
  O29      1.0000 0.40920  0.11017  0.26951  Biso   1.000  O
  O30      1.0000 0.59080  0.61017  0.23049  Biso   1.000  O
  O31      1.0000 0.59080  0.88983  0.73049  Biso   1.000  O
  O32      1.0000 0.40920  0.38983  0.76951  Biso   1.000  O
  N1       1.0000 0.98810  0.98548  0.86750  Biso   1.000  N
  N2       1.0000 0.01190  0.48548  0.63250  Biso   1.000  N
  N3       1.0000 0.01190  0.01452  0.13250  Biso   1.000  N
  N4       1.0000 0.98810  0.51452  0.36750  Biso   1.000  N
  N5       1.0000 0.00960  0.29205  0.88339  Biso   1.000  N
  N6       1.0000 0.99040  0.79205  0.61661  Biso   1.000  N
  N7       1.0000 0.99040  0.70795  0.11661  Biso   1.000  N
  N8       1.0000 0.00960  0.20795  0.38339  Biso   1.000  N
  C1       1.0000 0.64520  0.14020  0.73512  Biso   1.000  C
  C2       1.0000 0.35480  0.64020  0.76488  Biso   1.000  C
  C3       1.0000 0.35480  0.85980  0.26488  Biso   1.000  C
  C4       1.0000 0.64520  0.35980  0.23512  Biso   1.000  C
  C5       1.0000 0.64060  0.13360  0.64738  Biso   1.000  C
  C6       1.0000 0.35940  0.63360  0.85262  Biso   1.000  C
  C7       1.0000 0.35940  0.86640  0.35262  Biso   1.000  C
  C8       1.0000 0.64060  0.36640  0.14738  Biso   1.000  C
  C9       1.0000 0.52960  0.12890  0.58388  Biso   1.000  C
  C10      1.0000 0.47040  0.62890  0.91612  Biso   1.000  C
  C11      1.0000 0.47040  0.87110  0.41612  Biso   1.000  C
  C12      1.0000 0.52960  0.37110  0.08388  Biso   1.000  C
  C13      1.0000 0.42370  0.13110  0.60940  Biso   1.000  C
  C14      1.0000 0.57630  0.63110  0.89060  Biso   1.000  C
  C15      1.0000 0.57630  0.86890  0.39060  Biso   1.000  C
  C16      1.0000 0.42370  0.36890  0.10940  Biso   1.000  C
  C17      1.0000 0.42830  0.13790  0.69670  Biso   1.000  C
  C18      1.0000 0.57170  0.63790  0.80330  Biso   1.000  C
  C19      1.0000 0.57170  0.86210  0.30330  Biso   1.000  C
  C20      1.0000 0.42830  0.36210  0.19670  Biso   1.000  C
  C21      1.0000 0.53940  0.14230  0.75860  Biso   1.000  C
  C22      1.0000 0.46060  0.64230  0.74140  Biso   1.000  C
  C23      1.0000 0.46060  0.85770  0.24140  Biso   1.000  C
  C24      1.0000 0.53940  0.35770  0.25860  Biso   1.000  C
  C25      1.0000 0.76430  0.14420  0.80548  Biso   1.000  C
  C26      1.0000 0.23570  0.64420  0.69452  Biso   1.000  C
  C27      1.0000 0.23570  0.85580  0.19452  Biso   1.000  C
  C28      1.0000 0.76430  0.35580  0.30548  Biso   1.000  C
  C29      1.0000 0.52490  0.12270  0.49010  Biso   1.000  C
  C30      1.0000 0.47510  0.62270  0.00990  Biso   1.000  C
  C31      1.0000 0.47510  0.87730  0.50990  Biso   1.000  C
  C32      1.0000 0.52490  0.37730  0.99010  Biso   1.000  C
  C33      1.0000 0.36330  0.12100  0.00057  Biso   1.000  C
  C34      1.0000 0.63670  0.62100  0.49943  Biso   1.000  C
  C35      1.0000 0.63670  0.87900  0.99943  Biso   1.000  C
  C36      1.0000 0.36330  0.37900  0.50057  Biso   1.000  C
  C37      1.0000 0.46510  0.12550  0.97170  Biso   1.000  C
  C38      1.0000 0.53490  0.62550  0.52830  Biso   1.000  C
  C39      1.0000 0.53490  0.87450  0.02830  Biso   1.000  C
  C40      1.0000 0.46510  0.37450  0.47170  Biso   1.000  C
  C41      1.0000 0.57980  0.12280  0.02990  Biso   1.000  C
  C42      1.0000 0.42020  0.62280  0.47010  Biso   1.000  C
  C43      1.0000 0.42020  0.87720  0.97010  Biso   1.000  C
  C44      1.0000 0.57980  0.37720  0.52990  Biso   1.000  C
  C45      1.0000 0.59300  0.11620  0.11830  Biso   1.000  C
  C46      1.0000 0.40700  0.61620  0.38170  Biso   1.000  C
  C47      1.0000 0.40700  0.88380  0.88170  Biso   1.000  C
  C48      1.0000 0.59300  0.38380  0.61830  Biso   1.000  C
  C49      1.0000 0.49190  0.11280  0.14939  Biso   1.000  C
  C50      1.0000 0.50810  0.61280  0.35061  Biso   1.000  C
  C51      1.0000 0.50810  0.88720  0.85061  Biso   1.000  C
  C52      1.0000 0.49190  0.38720  0.64939  Biso   1.000  C
  C53      1.0000 0.37600  0.11470  0.08931  Biso   1.000  C
  C54      1.0000 0.62400  0.61470  0.41069  Biso   1.000  C
  C55      1.0000 0.62400  0.88530  0.91069  Biso   1.000  C
  C56      1.0000 0.37600  0.38530  0.58931  Biso   1.000  C
  C57      1.0000 0.24020  0.12510  0.93482  Biso   1.000  C
  C58      1.0000 0.75980  0.62510  0.56518  Biso   1.000  C
  C59      1.0000 0.75980  0.87490  0.06518  Biso   1.000  C
  C60      1.0000 0.24020  0.37490  0.43482  Biso   1.000  C
  C61      1.0000 0.50290  0.11120  0.24420  Biso   1.000  C
  C62      1.0000 0.49710  0.61120  0.25580  Biso   1.000  C
  C63      1.0000 0.49710  0.88880  0.75580  Biso   1.000  C
  C64      1.0000 0.50290  0.38880  0.74420  Biso   1.000  C
  C65      1.0000 0.90260  0.93930  0.80470  Biso   1.000  C
  C66      1.0000 0.09740  0.43930  0.69530  Biso   1.000  C
  C67      1.0000 0.09740  0.06070  0.19530  Biso   1.000  C
  C68      1.0000 0.90260  0.56070  0.30470  Biso   1.000  C
  C69      1.0000 0.89200  0.83850  0.79910  Biso   1.000  C
  C70      1.0000 0.10800  0.33850  0.70090  Biso   1.000  C
  C71      1.0000 0.10800  0.16150  0.20090  Biso   1.000  C
  C72      1.0000 0.89200  0.66150  0.29910  Biso   1.000  C
  C73      1.0000 0.97130  0.77850  0.85853  Biso   1.000  C
  C74      1.0000 0.02870  0.27850  0.64147  Biso   1.000  C
  C75      1.0000 0.02870  0.22150  0.14147  Biso   1.000  C
  C76      1.0000 0.97130  0.72150  0.35853  Biso   1.000  C
  C77      1.0000 0.06050  0.82640  0.92400  Biso   1.000  C
  C78      1.0000 0.93950  0.32640  0.57600  Biso   1.000  C
  C79      1.0000 0.93950  0.17360  0.07600  Biso   1.000  C
  C80      1.0000 0.06050  0.67360  0.42400  Biso   1.000  C
  C81      1.0000 0.06430  0.92710  0.92610  Biso   1.000  C
  C82      1.0000 0.93570  0.42710  0.57390  Biso   1.000  C
  C83      1.0000 0.93570  0.07290  0.07390  Biso   1.000  C
  C84      1.0000 0.06430  0.57290  0.42610  Biso   1.000  C
  C85      1.0000 0.96040  0.67130  0.85150  Biso   1.000  C
  C86      1.0000 0.03960  0.17130  0.64850  Biso   1.000  C
  C87      1.0000 0.03960  0.32870  0.14850  Biso   1.000  C
  C88      1.0000 0.96040  0.82870  0.35150  Biso   1.000  C
  C89      1.0000 0.03390  0.60640  0.90030  Biso   1.000  C
  C90      1.0000 0.96610  0.10640  0.59970  Biso   1.000  C
  C91      1.0000 0.96610  0.39360  0.09970  Biso   1.000  C
  C92      1.0000 0.03390  0.89360  0.40030  Biso   1.000  C
  C93      1.0000 0.02320  0.49950  0.89311  Biso   1.000  C
  C94      1.0000 0.97680  0.99950  0.60689  Biso   1.000  C
  C95      1.0000 0.97680  0.50050  0.10689  Biso   1.000  C
  C96      1.0000 0.02320  0.00050  0.39311  Biso   1.000  C
  C97      1.0000 0.91910  0.45060  0.84380  Biso   1.000  C
  C98      1.0000 0.08090  0.95060  0.65620  Biso   1.000  C
  C99      1.0000 0.08090  0.54940  0.15620  Biso   1.000  C
  C100     1.0000 0.91910  0.04940  0.34380  Biso   1.000  C
  C101     1.0000 0.91740  0.34950  0.84180  Biso   1.000  C
  C102     1.0000 0.08260  0.84950  0.65820  Biso   1.000  C
  C103     1.0000 0.08260  0.65050  0.15820  Biso   1.000  C
  C104     1.0000 0.91740  0.15050  0.34180  Biso   1.000  C
  C105     1.0000 0.10850  0.33920  0.92910  Biso   1.000  C
  C106     1.0000 0.89150  0.83920  0.57090  Biso   1.000  C
  C107     1.0000 0.89150  0.66080  0.07090  Biso   1.000  C
  C108     1.0000 0.10850  0.16080  0.42910  Biso   1.000  C
  C109     1.0000 0.11860  0.43980  0.93490  Biso   1.000  C
  C110     1.0000 0.88140  0.93980  0.56510  Biso   1.000  C
  C111     1.0000 0.88140  0.56020  0.06510  Biso   1.000  C
  C112     1.0000 0.11860  0.06020  0.43490  Biso   1.000  C
  H1       1.0000 0.70500  0.13200  0.63300  Biso   1.000  H
  H2       1.0000 0.29500  0.63200  0.86700  Biso   1.000  H
  H3       1.0000 0.29500  0.86800  0.36700  Biso   1.000  H
  H4       1.0000 0.70500  0.36800  0.13300  Biso   1.000  H
  H5       1.0000 0.36000  0.12800  0.57200  Biso   1.000  H
  H6       1.0000 0.64000  0.62800  0.92800  Biso   1.000  H
  H7       1.0000 0.64000  0.87200  0.42800  Biso   1.000  H
  H8       1.0000 0.36000  0.37200  0.07200  Biso   1.000  H
  H9       1.0000 0.36200  0.14500  0.71000  Biso   1.000  H
  H10      1.0000 0.63800  0.64500  0.79000  Biso   1.000  H
  H11      1.0000 0.63800  0.85500  0.29000  Biso   1.000  H
  H12      1.0000 0.36200  0.35500  0.21000  Biso   1.000  H
  H13      1.0000 0.54000  0.14900  0.81200  Biso   1.000  H
  H14      1.0000 0.46000  0.64900  0.68800  Biso   1.000  H
  H15      1.0000 0.46000  0.85100  0.18800  Biso   1.000  H
  H16      1.0000 0.54000  0.35100  0.31200  Biso   1.000  H
  H17      1.0000 0.45900  0.13100  0.91500  Biso   1.000  H
  H18      1.0000 0.54100  0.63100  0.58500  Biso   1.000  H
  H19      1.0000 0.54100  0.86900  0.08500  Biso   1.000  H
  H20      1.0000 0.45900  0.36900  0.41500  Biso   1.000  H
  H21      1.0000 0.64100  0.12700  0.00600  Biso   1.000  H
  H22      1.0000 0.35900  0.62700  0.49400  Biso   1.000  H
  H23      1.0000 0.35900  0.87300  0.99400  Biso   1.000  H
  H24      1.0000 0.64100  0.37300  0.50600  Biso   1.000  H
  H25      1.0000 0.67000  0.11100  0.15600  Biso   1.000  H
  H26      1.0000 0.33000  0.61100  0.34400  Biso   1.000  H
  H27      1.0000 0.33000  0.88900  0.84400  Biso   1.000  H
  H28      1.0000 0.67000  0.38900  0.65600  Biso   1.000  H
  H29      1.0000 0.31000  0.11000  0.11100  Biso   1.000  H
  H30      1.0000 0.69000  0.61000  0.38900  Biso   1.000  H
  H31      1.0000 0.69000  0.89000  0.88900  Biso   1.000  H
  H32      1.0000 0.31000  0.39000  0.61100  Biso   1.000  H
  H33      1.0000 0.85300  0.97900  0.76600  Biso   1.000  H
  H34      1.0000 0.14700  0.47900  0.73400  Biso   1.000  H
  H35      1.0000 0.14700  0.02100  0.23400  Biso   1.000  H
  H36      1.0000 0.85300  0.52100  0.26600  Biso   1.000  H
  H37      1.0000 0.83900  0.81600  0.75800  Biso   1.000  H
  H38      1.0000 0.16100  0.31600  0.74200  Biso   1.000  H
  H39      1.0000 0.16100  0.18400  0.24200  Biso   1.000  H
  H40      1.0000 0.83900  0.68400  0.25800  Biso   1.000  H
  H41      1.0000 0.11700  0.79000  0.96500  Biso   1.000  H
  H42      1.0000 0.88300  0.29000  0.53500  Biso   1.000  H
  H43      1.0000 0.88300  0.21000  0.03500  Biso   1.000  H
  H44      1.0000 0.11700  0.71000  0.46500  Biso   1.000  H
  H45      1.0000 0.11900  0.96000  0.96790  Biso   1.000  H
  H46      1.0000 0.88100  0.46000  0.53210  Biso   1.000  H
  H47      1.0000 0.88100  0.04000  0.03210  Biso   1.000  H
  H48      1.0000 0.11900  0.54000  0.46790  Biso   1.000  H
  H49      1.0000 0.90300  0.65500  0.80900  Biso   1.000  H
  H50      1.0000 0.09700  0.15500  0.69100  Biso   1.000  H
  H51      1.0000 0.09700  0.34500  0.19100  Biso   1.000  H
  H52      1.0000 0.90300  0.84500  0.30900  Biso   1.000  H
  H53      1.0000 0.09800  0.62800  0.94800  Biso   1.000  H
  H54      1.0000 0.90200  0.12800  0.55200  Biso   1.000  H
  H55      1.0000 0.90200  0.37200  0.05200  Biso   1.000  H
  H56      1.0000 0.09800  0.87200  0.44800  Biso   1.000  H
  H57      1.0000 0.85200  0.48500  0.82200  Biso   1.000  H
  H58      1.0000 0.14800  0.98500  0.67800  Biso   1.000  H
  H59      1.0000 0.14800  0.51500  0.17800  Biso   1.000  H
  H60      1.0000 0.85200  0.01500  0.32200  Biso   1.000  H
  H61      1.0000 0.84900  0.31900  0.80400  Biso   1.000  H
  H62      1.0000 0.15100  0.81900  0.69600  Biso   1.000  H
  H63      1.0000 0.15100  0.68100  0.19600  Biso   1.000  H
  H64      1.0000 0.84900  0.18100  0.30400  Biso   1.000  H
  H65      1.0000 0.17200  0.30000  0.95600  Biso   1.000  H
  H66      1.0000 0.82800  0.80000  0.54400  Biso   1.000  H
  H67      1.0000 0.82800  0.70000  0.04400  Biso   1.000  H
  H68      1.0000 0.17200  0.20000  0.45600  Biso   1.000  H
  H69      1.0000 0.18500  0.46500  0.96700  Biso   1.000  H
  H70      1.0000 0.81500  0.96500  0.53300  Biso   1.000  H
  H71      1.0000 0.81500  0.53500  0.03300  Biso   1.000  H
  H72      1.0000 0.18500  0.03500  0.46700  Biso   1.000  H
  H73      1.0000 0.42000  0.11400  0.36300  Biso   1.000  H
  H74      1.0000 0.58000  0.61400  0.13700  Biso   1.000  H
  H75      1.0000 0.58000  0.88600  0.63700  Biso   1.000  H
  H76      1.0000 0.42000  0.38600  0.86300  Biso   1.000  H
  H77      1.0000 0.61600  0.11600  0.38200  Biso   1.000  H
  H78      1.0000 0.38400  0.61600  0.11800  Biso   1.000  H
  H79      1.0000 0.38400  0.88400  0.61800  Biso   1.000  H
  H80      1.0000 0.61600  0.38400  0.88200  Biso   1.000  H
