data_image0
_cell_length_a       14.8
_cell_length_b       14.54
_cell_length_c       7.325
_cell_angle_alpha    90
_cell_angle_beta     90
_cell_angle_gamma    90

_symmetry_space_group_name_H-M    "P 1"
_symmetry_int_tables_number       1

loop_
  _symmetry_equiv_pos_as_xyz
  'x, y, z'

loop_
  _atom_site_label
  _atom_site_occupancy
  _atom_site_fract_x
  _atom_site_fract_y
  _atom_site_fract_z
  _atom_site_thermal_displace_type
  _atom_site_B_iso_or_equiv
  _atom_site_type_symbol
  Cu1      1.0000 0.75000  0.04983  0.92980  Biso   1.000  Cu
  Cu2      1.0000 0.25000  0.54983  0.07020  Biso   1.000  Cu
  Cu3      1.0000 0.75000  0.45017  0.92980  Biso   1.000  Cu
  Cu4      1.0000 0.25000  0.95017  0.07020  Biso   1.000  Cu
  Cu5      1.0000 0.55084  0.25000  0.56375  Biso   1.000  Cu
  Cu6      1.0000 0.05084  0.75000  0.43625  Biso   1.000  Cu
  Cu7      1.0000 0.94916  0.25000  0.56375  Biso   1.000  Cu
  Cu8      1.0000 0.44916  0.75000  0.43625  Biso   1.000  Cu
  O1       1.0000 0.61790  0.04480  0.90840  Biso   1.000  O
  O2       1.0000 0.11790  0.54480  0.09160  Biso   1.000  O
  O3       1.0000 0.88210  0.04480  0.90840  Biso   1.000  O
  O4       1.0000 0.61790  0.45520  0.90840  Biso   1.000  O
  O5       1.0000 0.38210  0.95520  0.09160  Biso   1.000  O
  O6       1.0000 0.88210  0.45520  0.90840  Biso   1.000  O
  O7       1.0000 0.11790  0.95520  0.09160  Biso   1.000  O
  O8       1.0000 0.38210  0.54480  0.09160  Biso   1.000  O
  C1       1.0000 0.57840  0.09680  0.78970  Biso   1.000  C
  C2       1.0000 0.07840  0.59680  0.21030  Biso   1.000  C
  C3       1.0000 0.92160  0.09680  0.78970  Biso   1.000  C
  C4       1.0000 0.57840  0.40320  0.78970  Biso   1.000  C
  C5       1.0000 0.42160  0.90320  0.21030  Biso   1.000  C
  C6       1.0000 0.92160  0.40320  0.78970  Biso   1.000  C
  C7       1.0000 0.07840  0.90320  0.21030  Biso   1.000  C
  C8       1.0000 0.42160  0.59680  0.21030  Biso   1.000  C
  O9       1.0000 0.61730  0.15740  0.70350  Biso   1.000  O
  O10      1.0000 0.11730  0.65740  0.29650  Biso   1.000  O
  O11      1.0000 0.88270  0.15740  0.70350  Biso   1.000  O
  O12      1.0000 0.61730  0.34260  0.70350  Biso   1.000  O
  O13      1.0000 0.38270  0.84260  0.29650  Biso   1.000  O
  O14      1.0000 0.88270  0.34260  0.70350  Biso   1.000  O
  O15      1.0000 0.11730  0.84260  0.29650  Biso   1.000  O
  O16      1.0000 0.38270  0.65740  0.29650  Biso   1.000  O
  C9       1.0000 0.47670  0.07960  0.76140  Biso   1.000  C
  C10      1.0000 0.97670  0.57960  0.23860  Biso   1.000  C
  C11      1.0000 0.02330  0.07960  0.76140  Biso   1.000  C
  C12      1.0000 0.47670  0.42040  0.76140  Biso   1.000  C
  C13      1.0000 0.52330  0.92040  0.23860  Biso   1.000  C
  C14      1.0000 0.02330  0.42040  0.76140  Biso   1.000  C
  C15      1.0000 0.97670  0.92040  0.23860  Biso   1.000  C
  C16      1.0000 0.52330  0.57960  0.23860  Biso   1.000  C
  H1       1.0000 0.46290  0.01800  0.80420  Biso   1.000  H
  H2       1.0000 0.96290  0.51800  0.19580  Biso   1.000  H
  H3       1.0000 0.03710  0.01800  0.80420  Biso   1.000  H
  H4       1.0000 0.46290  0.48200  0.80420  Biso   1.000  H
  H5       1.0000 0.53710  0.98200  0.19580  Biso   1.000  H
  H6       1.0000 0.03710  0.48200  0.80420  Biso   1.000  H
  H7       1.0000 0.96290  0.98200  0.19580  Biso   1.000  H
  H8       1.0000 0.53710  0.51800  0.19580  Biso   1.000  H
  H9       1.0000 0.44360  0.12240  0.83790  Biso   1.000  H
  H10      1.0000 0.94360  0.62240  0.16210  Biso   1.000  H
  H11      1.0000 0.05640  0.12240  0.83790  Biso   1.000  H
  H12      1.0000 0.44360  0.37760  0.83790  Biso   1.000  H
  H13      1.0000 0.55640  0.87760  0.16210  Biso   1.000  H
  H14      1.0000 0.05640  0.37760  0.83790  Biso   1.000  H
  H15      1.0000 0.94360  0.87760  0.16210  Biso   1.000  H
  H16      1.0000 0.55640  0.62240  0.16210  Biso   1.000  H
  C17      1.0000 0.44190  0.08870  0.56850  Biso   1.000  C
  C18      1.0000 0.94190  0.58870  0.43150  Biso   1.000  C
  C19      1.0000 0.05810  0.08870  0.56850  Biso   1.000  C
  C20      1.0000 0.44190  0.41130  0.56850  Biso   1.000  C
  C21      1.0000 0.55810  0.91130  0.43150  Biso   1.000  C
  C22      1.0000 0.05810  0.41130  0.56850  Biso   1.000  C
  C23      1.0000 0.94190  0.91130  0.43150  Biso   1.000  C
  C24      1.0000 0.55810  0.58870  0.43150  Biso   1.000  C
  O17      1.0000 0.38090  0.03570  0.51780  Biso   1.000  O
  O18      1.0000 0.88090  0.53570  0.48220  Biso   1.000  O
  O19      1.0000 0.11910  0.03570  0.51780  Biso   1.000  O
  O20      1.0000 0.38090  0.46430  0.51780  Biso   1.000  O
  O21      1.0000 0.61910  0.96430  0.48220  Biso   1.000  O
  O22      1.0000 0.11910  0.46430  0.51780  Biso   1.000  O
  O23      1.0000 0.88090  0.96430  0.48220  Biso   1.000  O
  O24      1.0000 0.61910  0.53570  0.48220  Biso   1.000  O
  O25      1.0000 0.46980  0.15680  0.46610  Biso   1.000  O
  O26      1.0000 0.96980  0.65680  0.53390  Biso   1.000  O
  O27      1.0000 0.03020  0.15680  0.46610  Biso   1.000  O
  O28      1.0000 0.46980  0.34320  0.46610  Biso   1.000  O
  O29      1.0000 0.53020  0.84320  0.53390  Biso   1.000  O
  O30      1.0000 0.03020  0.34320  0.46610  Biso   1.000  O
  O31      1.0000 0.96980  0.84320  0.53390  Biso   1.000  O
  O32      1.0000 0.53020  0.65680  0.53390  Biso   1.000  O
  O33      1.0000 0.75000  0.94560  0.15850  Biso   1.000  O
  O34      1.0000 0.25000  0.44560  0.84150  Biso   1.000  O
  O35      1.0000 0.75000  0.55440  0.15850  Biso   1.000  O
  O36      1.0000 0.25000  0.05440  0.84150  Biso   1.000  O
  O37      1.0000 0.75000  0.95290  0.73540  Biso   1.000  O
  O38      1.0000 0.25000  0.45290  0.26460  Biso   1.000  O
  O39      1.0000 0.75000  0.54710  0.73540  Biso   1.000  O
  O40      1.0000 0.25000  0.04710  0.26460  Biso   1.000  O
  N1       1.0000 0.75000  0.16450  0.10610  Biso   1.000  N
  N2       1.0000 0.25000  0.66450  0.89390  Biso   1.000  N
  N3       1.0000 0.75000  0.33550  0.10610  Biso   1.000  N
  N4       1.0000 0.25000  0.83550  0.89390  Biso   1.000  N
  C25      1.0000 0.66850  0.16780  0.22980  Biso   1.000  C
  C26      1.0000 0.16850  0.66780  0.77020  Biso   1.000  C
  C27      1.0000 0.83150  0.16780  0.22980  Biso   1.000  C
  C28      1.0000 0.66850  0.33220  0.22980  Biso   1.000  C
  C29      1.0000 0.33150  0.83220  0.77020  Biso   1.000  C
  C30      1.0000 0.83150  0.33220  0.22980  Biso   1.000  C
  C31      1.0000 0.16850  0.83220  0.77020  Biso   1.000  C
  C32      1.0000 0.33150  0.66780  0.77020  Biso   1.000  C
  H17      1.0000 0.61410  0.16670  0.15590  Biso   1.000  H
  H18      1.0000 0.11410  0.66670  0.84410  Biso   1.000  H
  H19      1.0000 0.88590  0.16670  0.15590  Biso   1.000  H
  H20      1.0000 0.61410  0.33330  0.15590  Biso   1.000  H
  H21      1.0000 0.38590  0.83330  0.84410  Biso   1.000  H
  H22      1.0000 0.88590  0.33330  0.15590  Biso   1.000  H
  H23      1.0000 0.11410  0.83330  0.84410  Biso   1.000  H
  H24      1.0000 0.38590  0.66670  0.84410  Biso   1.000  H
  H25      1.0000 0.66820  0.11350  0.30690  Biso   1.000  H
  H26      1.0000 0.16820  0.61350  0.69310  Biso   1.000  H
  H27      1.0000 0.83180  0.11350  0.30690  Biso   1.000  H
  H28      1.0000 0.66820  0.38650  0.30690  Biso   1.000  H
  H29      1.0000 0.33180  0.88650  0.69310  Biso   1.000  H
  H30      1.0000 0.83180  0.38650  0.30690  Biso   1.000  H
  H31      1.0000 0.16820  0.88650  0.69310  Biso   1.000  H
  H32      1.0000 0.33180  0.61350  0.69310  Biso   1.000  H
  N5       1.0000 0.66750  0.25000  0.34530  Biso   1.000  N
  N6       1.0000 0.16750  0.75000  0.65470  Biso   1.000  N
  N7       1.0000 0.83250  0.25000  0.34530  Biso   1.000  N
  N8       1.0000 0.33250  0.75000  0.65470  Biso   1.000  N
  C33      1.0000 0.75000  0.25000  0.46200  Biso   1.000  C
  C34      1.0000 0.25000  0.75000  0.53800  Biso   1.000  C
  H33      1.0000 0.75000  0.19600  0.54000  Biso   1.000  H
  H34      1.0000 0.25000  0.69600  0.46000  Biso   1.000  H
  H35      1.0000 0.75000  0.30400  0.54000  Biso   1.000  H
  H36      1.0000 0.25000  0.80400  0.46000  Biso   1.000  H
  C35      1.0000 0.75000  0.25000  0.99200  Biso   1.000  C
  C36      1.0000 0.25000  0.75000  0.00800  Biso   1.000  C
  H37      1.0000 0.69700  0.25000  0.91420  Biso   1.000  H
  H38      1.0000 0.19700  0.75000  0.08580  Biso   1.000  H
  H39      1.0000 0.80300  0.25000  0.91420  Biso   1.000  H
  H40      1.0000 0.30300  0.75000  0.08580  Biso   1.000  H
  O41      1.0000 0.42380  0.25000  0.12920  Biso   1.000  O
  O42      1.0000 0.92380  0.75000  0.87080  Biso   1.000  O
  O43      1.0000 0.07620  0.25000  0.12920  Biso   1.000  O
  O44      1.0000 0.57620  0.75000  0.87080  Biso   1.000  O
  O45      1.0000 0.75000  0.75000  0.04500  Biso   1.000  O
  O46      1.0000 0.25000  0.25000  0.95500  Biso   1.000  O
