data_image0
_cell_length_a       6.5329
_cell_length_b       8.1345
_cell_length_c       14.0855
_cell_angle_alpha    90.364
_cell_angle_beta     92.104
_cell_angle_gamma    92.058

_symmetry_space_group_name_H-M    "P 1"
_symmetry_int_tables_number       1

loop_
  _symmetry_equiv_pos_as_xyz
  'x, y, z'

loop_
  _atom_site_label
  _atom_site_occupancy
  _atom_site_fract_x
  _atom_site_fract_y
  _atom_site_fract_z
  _atom_site_thermal_displace_type
  _atom_site_B_iso_or_equiv
  _atom_site_type_symbol
  C1       1.0000 0.65660  0.37110  0.40236  Biso   1.000  C
  C2       1.0000 0.34340  0.62890  0.59764  Biso   1.000  C
  C3       1.0000 0.63140  0.55490  0.40113  Biso   1.000  C
  C4       1.0000 0.36860  0.44510  0.59887  Biso   1.000  C
  C5       1.0000 0.47090  0.63230  0.35598  Biso   1.000  C
  C6       1.0000 0.52910  0.36770  0.64402  Biso   1.000  C
  C7       1.0000 0.46730  0.80350  0.36199  Biso   1.000  C
  C8       1.0000 0.53270  0.19650  0.63801  Biso   1.000  C
  H1       1.0000 0.35750  0.85870  0.33520  Biso   1.000  H
  H2       1.0000 0.64250  0.14130  0.66480  Biso   1.000  H
  C9       1.0000 0.62720  0.89010  0.40784  Biso   1.000  C
  C10      1.0000 0.37280  0.10990  0.59216  Biso   1.000  C
  H3       1.0000 0.62790  0.00430  0.41130  Biso   1.000  H
  H4       1.0000 0.37210  0.99570  0.58870  Biso   1.000  H
  C11      1.0000 0.78460  0.80580  0.44811  Biso   1.000  C
  C12      1.0000 0.21540  0.19420  0.55189  Biso   1.000  C
  H5       1.0000 0.89450  0.86460  0.47730  Biso   1.000  H
  H6       1.0000 0.10550  0.13540  0.52270  Biso   1.000  H
  C13      1.0000 0.30440  0.54200  0.29598  Biso   1.000  C
  C14      1.0000 0.69560  0.45800  0.70402  Biso   1.000  C
  C15      1.0000 0.84820  0.40290  0.11439  Biso   1.000  C
  C16      1.0000 0.15180  0.59710  0.88561  Biso   1.000  C
  C17      1.0000 0.69700  0.35170  0.04512  Biso   1.000  C
  C18      1.0000 0.30300  0.64830  0.95488  Biso   1.000  C
  H7       1.0000 0.56230  0.38370  0.04920  Biso   1.000  H
  H8       1.0000 0.43770  0.61630  0.95080  Biso   1.000  H
  C19      1.0000 0.75250  0.25570  0.97321  Biso   1.000  C
  C20      1.0000 0.24750  0.74430  0.02679  Biso   1.000  C
  H9       1.0000 0.65430  0.22110  0.92720  Biso   1.000  H
  H10      1.0000 0.34570  0.77890  0.07280  Biso   1.000  H
  C21      1.0000 0.09830  0.25100  0.03220  Biso   1.000  C
  C22      1.0000 0.90170  0.74900  0.96780  Biso   1.000  C
  Cu1      1.0000 0.00000  0.50000  0.50000  Biso   1.000  Cu
  H11      1.0000 0.01300  0.18800  0.34500  Biso   1.000  H
  H12      1.0000 0.98700  0.81200  0.65500  Biso   1.000  H
  H13      1.0000 0.44300  0.12400  0.13800  Biso   1.000  H
  H14      1.0000 0.55700  0.87600  0.86200  Biso   1.000  H
  H15      1.0000 0.77300  0.99100  0.18000  Biso   1.000  H
  H16      1.0000 0.22700  0.00900  0.82000  Biso   1.000  H
  H17      1.0000 0.45500  0.14000  0.23700  Biso   1.000  H
  H18      1.0000 0.54500  0.86000  0.76300  Biso   1.000  H
  H19      1.0000 0.97500  0.03400  0.22300  Biso   1.000  H
  H20      1.0000 0.02500  0.96600  0.77700  Biso   1.000  H
  H21      1.0000 0.99000  0.15000  0.92200  Biso   1.000  H
  H22      1.0000 0.01000  0.85000  0.07800  Biso   1.000  H
  H23      1.0000 0.13600  0.38800  0.13700  Biso   1.000  H
  H24      1.0000 0.86400  0.61200  0.86300  Biso   1.000  H
  N1       1.0000 0.78640  0.64150  0.44704  Biso   1.000  N
  N2       1.0000 0.21360  0.35850  0.55296  Biso   1.000  N
  N3       1.0000 0.94730  0.20820  0.96603  Biso   1.000  N
  N4       1.0000 0.05270  0.79180  0.03397  Biso   1.000  N
  N5       1.0000 0.04120  0.35600  0.10285  Biso   1.000  N
  N6       1.0000 0.95880  0.64400  0.89715  Biso   1.000  N
  N7       1.0000 0.80840  0.49350  0.18821  Biso   1.000  N
  N8       1.0000 0.19160  0.50650  0.81179  Biso   1.000  N
  O1       1.0000 0.82110  0.32350  0.44364  Biso   1.000  O
  O2       1.0000 0.17890  0.67650  0.55636  Biso   1.000  O
  O3       1.0000 0.52320  0.27950  0.36444  Biso   1.000  O
  O4       1.0000 0.47680  0.72050  0.63556  Biso   1.000  O
  O5       1.0000 0.13250  0.52190  0.32953  Biso   1.000  O
  O6       1.0000 0.86750  0.47810  0.67047  Biso   1.000  O
  O7       1.0000 0.35220  0.50430  0.21272  Biso   1.000  O
  O8       1.0000 0.64780  0.49570  0.78728  Biso   1.000  O
  O9       1.0000 0.27190  0.20180  0.02821  Biso   1.000  O
  O10      1.0000 0.72810  0.79820  0.97179  Biso   1.000  O
  O11      1.0000 0.09820  0.13380  0.32885  Biso   1.000  O
  O12      1.0000 0.90180  0.86620  0.67115  Biso   1.000  O
  O13      1.0000 0.50080  0.07010  0.18978  Biso   1.000  O
  O14      1.0000 0.49920  0.92990  0.81022  Biso   1.000  O
  O15      1.0000 0.91160  0.97320  0.17595  Biso   1.000  O
  O16      1.0000 0.08840  0.02680  0.82405  Biso   1.000  O
  H25      1.0000 0.91600  0.50900  0.24400  Biso   1.000  H
  H26      1.0000 0.08400  0.49100  0.75600  Biso   1.000  H
  H27      1.0000 0.70000  0.51500  0.19400  Biso   1.000  H
  H28      1.0000 0.30000  0.48500  0.80600  Biso   1.000  H
  H29      1.0000 0.21600  0.20100  0.32500  Biso   1.000  H
  H30      1.0000 0.78400  0.79900  0.67500  Biso   1.000  H
