data_image0
_cell_length_a       8.641
_cell_length_b       8.8913
_cell_length_c       10.1381
_cell_angle_alpha    97.255
_cell_angle_beta     108.827
_cell_angle_gamma    99.449

_symmetry_space_group_name_H-M    "P 1"
_symmetry_int_tables_number       1

loop_
  _symmetry_equiv_pos_as_xyz
  'x, y, z'

loop_
  _atom_site_label
  _atom_site_occupancy
  _atom_site_fract_x
  _atom_site_fract_y
  _atom_site_fract_z
  _atom_site_thermal_displace_type
  _atom_site_B_iso_or_equiv
  _atom_site_type_symbol
  Cu1      1.0000 0.73371  0.77346  0.91602  Biso   1.000  Cu
  Cu2      1.0000 0.26629  0.22654  0.08398  Biso   1.000  Cu
  K1       1.0000 0.63817  0.69139  0.53225  Biso   1.000  K
  K2       1.0000 0.36183  0.30861  0.46775  Biso   1.000  K
  K3       1.0000 0.00000  0.50000  0.50000  Biso   1.000  K
  O1       1.0000 0.57490  0.58850  0.76879  Biso   1.000  O
  O2       1.0000 0.42510  0.41150  0.23121  Biso   1.000  O
  O3       1.0000 0.31790  0.44090  0.70890  Biso   1.000  O
  O4       1.0000 0.68210  0.55910  0.29110  Biso   1.000  O
  O5       1.0000 0.00850  0.52930  0.79710  Biso   1.000  O
  O6       1.0000 0.99150  0.47070  0.20290  Biso   1.000  O
  O7       1.0000 0.12290  0.36040  0.91864  Biso   1.000  O
  O8       1.0000 0.87710  0.63960  0.08136  Biso   1.000  O
  O9       1.0000 0.37480  0.06830  0.26396  Biso   1.000  O
  O10      1.0000 0.62520  0.93170  0.73604  Biso   1.000  O
  O11      1.0000 0.51120  0.91780  0.39697  Biso   1.000  O
  O12      1.0000 0.48880  0.08220  0.60303  Biso   1.000  O
  H1       1.0000 0.51780  0.98280  0.46840  Biso   1.000  H
  H2       1.0000 0.48220  0.01720  0.53160  Biso   1.000  H
  O13      1.0000 0.74320  0.09010  0.24320  Biso   1.000  O
  O14      1.0000 0.25680  0.90990  0.75680  Biso   1.000  O
  O15      1.0000 0.82170  0.96510  0.07789  Biso   1.000  O
  O16      1.0000 0.17830  0.03490  0.92211  Biso   1.000  O
  O17      1.0000 0.91150  0.78990  0.83921  Biso   1.000  O
  O18      1.0000 0.08850  0.21010  0.16079  Biso   1.000  O
  H3       1.0000 0.94590  0.70600  0.83170  Biso   1.000  H
  H4       1.0000 0.05410  0.29400  0.16830  Biso   1.000  H
  H5       1.0000 0.98720  0.87350  0.87040  Biso   1.000  H
  H6       1.0000 0.01280  0.12650  0.12960  Biso   1.000  H
  N1       1.0000 0.54840  0.75640  0.98090  Biso   1.000  N
  N2       1.0000 0.45160  0.24360  0.01910  Biso   1.000  N
  C1       1.0000 0.43440  0.54590  0.78540  Biso   1.000  C
  C2       1.0000 0.56560  0.45410  0.21460  Biso   1.000  C
  C3       1.0000 0.41710  0.64020  0.91470  Biso   1.000  C
  C4       1.0000 0.58290  0.35980  0.08530  Biso   1.000  C
  C5       1.0000 0.28280  0.61850  0.96270  Biso   1.000  C
  C6       1.0000 0.71720  0.38150  0.03730  Biso   1.000  C
  C7       1.0000 0.12580  0.49050  0.88670  Biso   1.000  C
  C8       1.0000 0.87420  0.50950  0.11330  Biso   1.000  C
  C9       1.0000 0.29450  0.72250  0.08250  Biso   1.000  C
  C10      1.0000 0.70550  0.27750  0.91750  Biso   1.000  C
  H7       1.0000 0.20750  0.71010  0.11810  Biso   1.000  H
  H8       1.0000 0.79250  0.28990  0.88190  Biso   1.000  H
  C11      1.0000 0.43290  0.84420  0.15000  Biso   1.000  C
  C12      1.0000 0.56710  0.15580  0.85000  Biso   1.000  C
  C13      1.0000 0.43970  0.95660  0.27860  Biso   1.000  C
  C14      1.0000 0.56030  0.04340  0.72140  Biso   1.000  C
  C15      1.0000 0.56050  0.85880  0.09410  Biso   1.000  C
  C16      1.0000 0.43950  0.14120  0.90590  Biso   1.000  C
  C17      1.0000 0.72120  0.98260  0.14550  Biso   1.000  C
  C18      1.0000 0.27880  0.01740  0.85450  Biso   1.000  C
  O19      1.0000 0.94850  0.80760  0.54580  Biso   1.000  O
  O20      1.0000 0.05150  0.19240  0.45420  Biso   1.000  O
  H9       1.0000 0.03550  0.83680  0.62150  Biso   1.000  H
  H10      1.0000 0.96450  0.16320  0.37850  Biso   1.000  H
  H11      1.0000 0.96550  0.82990  0.47090  Biso   1.000  H
  H12      1.0000 0.03450  0.17010  0.52910  Biso   1.000  H
  O21      1.0000 0.29740  0.67960  0.50840  Biso   1.000  O
  O22      1.0000 0.70260  0.32040  0.49160  Biso   1.000  O
  H13      1.0000 0.26290  0.71560  0.43300  Biso   1.000  H
  H14      1.0000 0.73710  0.28440  0.56700  Biso   1.000  H
  H15      1.0000 0.31100  0.75480  0.57480  Biso   1.000  H
  H16      1.0000 0.68900  0.24520  0.42520  Biso   1.000  H
  O23      1.0000 0.28470  0.61830  0.43320  Biso   1.000  O
  O24      1.0000 0.71530  0.38170  0.56680  Biso   1.000  O
  H17      1.0000 0.26280  0.56100  0.35290  Biso   1.000  H
  H18      1.0000 0.73720  0.43900  0.64710  Biso   1.000  H
  H19      1.0000 0.26420  0.70470  0.41370  Biso   1.000  H
  H20      1.0000 0.73580  0.29530  0.58630  Biso   1.000  H
  O25      1.0000 0.08430  0.84810  0.33120  Biso   1.000  O
  O26      1.0000 0.91570  0.15190  0.66880  Biso   1.000  O
  H21      1.0000 0.02010  0.79110  0.25260  Biso   1.000  H
  H22      1.0000 0.97990  0.20890  0.74740  Biso   1.000  H
  H23      1.0000 0.09920  0.94500  0.33690  Biso   1.000  H
  H24      1.0000 0.90080  0.05500  0.66310  Biso   1.000  H
