data_image0
_cell_length_a       8.7661
_cell_length_b       20.484
_cell_length_c       8.8671
_cell_angle_alpha    90
_cell_angle_beta     101.81
_cell_angle_gamma    90

_symmetry_space_group_name_H-M    "P 1"
_symmetry_int_tables_number       1

loop_
  _symmetry_equiv_pos_as_xyz
  'x, y, z'

loop_
  _atom_site_label
  _atom_site_occupancy
  _atom_site_fract_x
  _atom_site_fract_y
  _atom_site_fract_z
  _atom_site_thermal_displace_type
  _atom_site_B_iso_or_equiv
  _atom_site_type_symbol
  Cu1      1.0000 0.72892  0.54278  0.19738  Biso   1.000  Cu
  Cu2      1.0000 0.27108  0.04278  0.80262  Biso   1.000  Cu
  Cu3      1.0000 0.27108  0.45722  0.80262  Biso   1.000  Cu
  Cu4      1.0000 0.72892  0.95722  0.19738  Biso   1.000  Cu
  Mn1      1.0000 0.24286  0.25000  0.31259  Biso   1.000  Mn
  Mn2      1.0000 0.75714  0.75000  0.68741  Biso   1.000  Mn
  K1       1.0000 0.84577  0.25000  0.06962  Biso   1.000  K
  K2       1.0000 0.15423  0.75000  0.93038  Biso   1.000  K
  K3       1.0000 0.25170  0.25000  0.88160  Biso   1.000  K
  K4       1.0000 0.74830  0.75000  0.11840  Biso   1.000  K
  N1       1.0000 0.94620  0.51029  0.23670  Biso   1.000  N
  N2       1.0000 0.05380  0.01029  0.76330  Biso   1.000  N
  N3       1.0000 0.05380  0.48971  0.76330  Biso   1.000  N
  N4       1.0000 0.94620  0.98971  0.23670  Biso   1.000  N
  C1       1.0000 0.24410  0.46559  0.28800  Biso   1.000  C
  C2       1.0000 0.75590  0.96559  0.71200  Biso   1.000  C
  C3       1.0000 0.75590  0.53441  0.71200  Biso   1.000  C
  C4       1.0000 0.24410  0.03441  0.28800  Biso   1.000  C
  H1       1.0000 0.34660  0.45100  0.30350  Biso   1.000  H
  H2       1.0000 0.65340  0.95100  0.69650  Biso   1.000  H
  H3       1.0000 0.65340  0.54900  0.69650  Biso   1.000  H
  H4       1.0000 0.34660  0.04900  0.30350  Biso   1.000  H
  C5       1.0000 0.05320  0.54045  0.34210  Biso   1.000  C
  C6       1.0000 0.94680  0.04045  0.65790  Biso   1.000  C
  C7       1.0000 0.94680  0.45955  0.65790  Biso   1.000  C
  C8       1.0000 0.05320  0.95955  0.34210  Biso   1.000  C
  C9       1.0000 0.20810  0.51826  0.37420  Biso   1.000  C
  C10      1.0000 0.79190  0.01826  0.62580  Biso   1.000  C
  C11      1.0000 0.79190  0.48174  0.62580  Biso   1.000  C
  C12      1.0000 0.20810  0.98174  0.37420  Biso   1.000  C
  C13      1.0000 0.12960  0.43416  0.17840  Biso   1.000  C
  C14      1.0000 0.87040  0.93416  0.82160  Biso   1.000  C
  C15      1.0000 0.87040  0.56584  0.82160  Biso   1.000  C
  C16      1.0000 0.12960  0.06584  0.17840  Biso   1.000  C
  C17      1.0000 0.97800  0.45892  0.15580  Biso   1.000  C
  C18      1.0000 0.02200  0.95892  0.84420  Biso   1.000  C
  C19      1.0000 0.02200  0.54108  0.84420  Biso   1.000  C
  C20      1.0000 0.97800  0.04108  0.15580  Biso   1.000  C
  C21      1.0000 0.98820  0.59921  0.41200  Biso   1.000  C
  C22      1.0000 0.01180  0.09921  0.58800  Biso   1.000  C
  C23      1.0000 0.01180  0.40079  0.58800  Biso   1.000  C
  C24      1.0000 0.98820  0.90079  0.41200  Biso   1.000  C
  C25      1.0000 0.33370  0.54989  0.49550  Biso   1.000  C
  C26      1.0000 0.66630  0.04989  0.50450  Biso   1.000  C
  C27      1.0000 0.66630  0.45011  0.50450  Biso   1.000  C
  C28      1.0000 0.33370  0.95011  0.49550  Biso   1.000  C
  C29      1.0000 0.17340  0.37503  0.09330  Biso   1.000  C
  C30      1.0000 0.82660  0.87503  0.90670  Biso   1.000  C
  C31      1.0000 0.82660  0.62497  0.90670  Biso   1.000  C
  C32      1.0000 0.17340  0.12497  0.09330  Biso   1.000  C
  C33      1.0000 0.83800  0.43393  0.04110  Biso   1.000  C
  C34      1.0000 0.16200  0.93393  0.95890  Biso   1.000  C
  C35      1.0000 0.16200  0.56607  0.95890  Biso   1.000  C
  C36      1.0000 0.83800  0.06607  0.04110  Biso   1.000  C
  O1       1.0000 0.13950  0.32048  0.14200  Biso   1.000  O
  O2       1.0000 0.86050  0.82048  0.85800  Biso   1.000  O
  O3       1.0000 0.86050  0.67952  0.85800  Biso   1.000  O
  O4       1.0000 0.13950  0.17952  0.14200  Biso   1.000  O
  O5       1.0000 0.45550  0.25000  0.22760  Biso   1.000  O
  O6       1.0000 0.54450  0.75000  0.77240  Biso   1.000  O
  H5       1.0000 0.50600  0.28430  0.21900  Biso   1.000  H
  H6       1.0000 0.49400  0.78430  0.78100  Biso   1.000  H
  H7       1.0000 0.49400  0.71570  0.78100  Biso   1.000  H
  H8       1.0000 0.50600  0.21570  0.21900  Biso   1.000  H
  O7       1.0000 0.02610  0.25000  0.39750  Biso   1.000  O
  O8       1.0000 0.97390  0.75000  0.60250  Biso   1.000  O
  H9       1.0000 0.00300  0.21540  0.44000  Biso   1.000  H
  H10      1.0000 0.99700  0.71540  0.56000  Biso   1.000  H
  H11      1.0000 0.99700  0.78460  0.56000  Biso   1.000  H
  H12      1.0000 0.00300  0.28460  0.44000  Biso   1.000  H
  O9       1.0000 0.24360  0.38346  0.98670  Biso   1.000  O
  O10      1.0000 0.75640  0.88346  0.01330  Biso   1.000  O
  O11      1.0000 0.75640  0.61654  0.01330  Biso   1.000  O
  O12      1.0000 0.24360  0.11654  0.98670  Biso   1.000  O
  O13      1.0000 0.33710  0.32496  0.47540  Biso   1.000  O
  O14      1.0000 0.66290  0.82496  0.52460  Biso   1.000  O
  O15      1.0000 0.66290  0.67504  0.52460  Biso   1.000  O
  O16      1.0000 0.33710  0.17504  0.47540  Biso   1.000  O
  H13      1.0000 0.28300  0.34400  0.52800  Biso   1.000  H
  H14      1.0000 0.71700  0.84400  0.47200  Biso   1.000  H
  H15      1.0000 0.71700  0.65600  0.47200  Biso   1.000  H
  H16      1.0000 0.28300  0.15600  0.52800  Biso   1.000  H
  H17      1.0000 0.41900  0.34800  0.48800  Biso   1.000  H
  H18      1.0000 0.58100  0.84800  0.51200  Biso   1.000  H
  H19      1.0000 0.58100  0.65200  0.51200  Biso   1.000  H
  H20      1.0000 0.41900  0.15200  0.48800  Biso   1.000  H
  O17      1.0000 0.85240  0.38903  0.95400  Biso   1.000  O
  O18      1.0000 0.14760  0.88903  0.04600  Biso   1.000  O
  O19      1.0000 0.14760  0.61097  0.04600  Biso   1.000  O
  O20      1.0000 0.85240  0.11097  0.95400  Biso   1.000  O
  O21      1.0000 0.70870  0.46447  0.04430  Biso   1.000  O
  O22      1.0000 0.29130  0.96447  0.95570  Biso   1.000  O
  O23      1.0000 0.29130  0.53553  0.95570  Biso   1.000  O
  O24      1.0000 0.70870  0.03553  0.04430  Biso   1.000  O
  O25      1.0000 0.32250  0.75000  0.41890  Biso   1.000  O
  O26      1.0000 0.67750  0.25000  0.58110  Biso   1.000  O
  H21      1.0000 0.31400  0.78200  0.35400  Biso   1.000  H
  H22      1.0000 0.68600  0.28200  0.64600  Biso   1.000  H
  H23      1.0000 0.68600  0.21800  0.64600  Biso   1.000  H
  H24      1.0000 0.31400  0.71800  0.35400  Biso   1.000  H
  O27      1.0000 0.84140  0.60840  0.36480  Biso   1.000  O
  O28      1.0000 0.15860  0.10840  0.63520  Biso   1.000  O
  O29      1.0000 0.15860  0.39160  0.63520  Biso   1.000  O
  O30      1.0000 0.84140  0.89160  0.36480  Biso   1.000  O
  O31      1.0000 0.55410  0.22350  0.86000  Biso   1.000  O
  O32      1.0000 0.44590  0.72350  0.14000  Biso   1.000  O
  O33      1.0000 0.44590  0.77650  0.14000  Biso   1.000  O
  O34      1.0000 0.55410  0.27650  0.86000  Biso   1.000  O
  H25      1.0000 0.56900  0.25000  0.79100  Biso   1.000  H
  H26      1.0000 0.43100  0.75000  0.20900  Biso   1.000  H
  H27      1.0000 0.56000  0.18170  0.85500  Biso   1.000  H
  H28      1.0000 0.44000  0.68170  0.14500  Biso   1.000  H
  H29      1.0000 0.44000  0.81830  0.14500  Biso   1.000  H
  H30      1.0000 0.56000  0.31830  0.85500  Biso   1.000  H
  O35      1.0000 0.07560  0.63369  0.50550  Biso   1.000  O
  O36      1.0000 0.92440  0.13369  0.49450  Biso   1.000  O
  O37      1.0000 0.92440  0.36631  0.49450  Biso   1.000  O
  O38      1.0000 0.07560  0.86631  0.50550  Biso   1.000  O
  O39      1.0000 0.94560  0.22280  0.79490  Biso   1.000  O
  O40      1.0000 0.05440  0.72280  0.20510  Biso   1.000  O
  O41      1.0000 0.05440  0.77720  0.20510  Biso   1.000  O
  O42      1.0000 0.94560  0.27720  0.79490  Biso   1.000  O
  H31      1.0000 0.93000  0.18270  0.78700  Biso   1.000  H
  H32      1.0000 0.07000  0.68270  0.21300  Biso   1.000  H
  H33      1.0000 0.07000  0.81730  0.21300  Biso   1.000  H
  H34      1.0000 0.93000  0.31730  0.78700  Biso   1.000  H
  O43      1.0000 0.42090  0.58969  0.44600  Biso   1.000  O
  O44      1.0000 0.57910  0.08969  0.55400  Biso   1.000  O
  O45      1.0000 0.57910  0.41031  0.55400  Biso   1.000  O
  O46      1.0000 0.42090  0.91031  0.44600  Biso   1.000  O
  O47      1.0000 0.66780  0.34190  0.22460  Biso   1.000  O
  O48      1.0000 0.33220  0.84190  0.77540  Biso   1.000  O
  O49      1.0000 0.33220  0.65810  0.77540  Biso   1.000  O
  O50      1.0000 0.66780  0.15810  0.22460  Biso   1.000  O
  H35      1.0000 0.68600  0.37400  0.28600  Biso   1.000  H
  H36      1.0000 0.31400  0.87400  0.71400  Biso   1.000  H
  H37      1.0000 0.31400  0.62600  0.71400  Biso   1.000  H
  H38      1.0000 0.68600  0.12600  0.28600  Biso   1.000  H
  H39      1.0000 0.58000  0.35800  0.16700  Biso   1.000  H
  H40      1.0000 0.42000  0.85800  0.83300  Biso   1.000  H
  H41      1.0000 0.42000  0.64200  0.83300  Biso   1.000  H
  H42      1.0000 0.58000  0.14200  0.16700  Biso   1.000  H
  O51      1.0000 0.51990  0.57931  0.17810  Biso   1.000  O
  O52      1.0000 0.48010  0.07931  0.82190  Biso   1.000  O
  O53      1.0000 0.48010  0.42069  0.82190  Biso   1.000  O
  O54      1.0000 0.51990  0.92069  0.17810  Biso   1.000  O
  H43      1.0000 0.45200  0.56500  0.10600  Biso   1.000  H
  H44      1.0000 0.54800  0.06500  0.89400  Biso   1.000  H
  H45      1.0000 0.54800  0.43500  0.89400  Biso   1.000  H
  H46      1.0000 0.45200  0.93500  0.10600  Biso   1.000  H
  H47      1.0000 0.48100  0.57800  0.25700  Biso   1.000  H
  H48      1.0000 0.51900  0.07800  0.74300  Biso   1.000  H
  H49      1.0000 0.51900  0.42200  0.74300  Biso   1.000  H
  H50      1.0000 0.48100  0.92200  0.25700  Biso   1.000  H
  O55      1.0000 0.34420  0.53348  0.63170  Biso   1.000  O
  O56      1.0000 0.65580  0.03348  0.36830  Biso   1.000  O
  O57      1.0000 0.65580  0.46652  0.36830  Biso   1.000  O
  O58      1.0000 0.34420  0.96652  0.63170  Biso   1.000  O
