data_image0
_cell_length_a       8.334
_cell_length_b       9.593
_cell_length_c       15.733
_cell_angle_alpha    87.237
_cell_angle_beta     85.411
_cell_angle_gamma    79.543

_symmetry_space_group_name_H-M    "P 1"
_symmetry_int_tables_number       1

loop_
  _symmetry_equiv_pos_as_xyz
  'x, y, z'

loop_
  _atom_site_label
  _atom_site_occupancy
  _atom_site_fract_x
  _atom_site_fract_y
  _atom_site_fract_z
  _atom_site_thermal_displace_type
  _atom_site_B_iso_or_equiv
  _atom_site_type_symbol
  Cu1      1.0000 0.69448  0.07724  0.01219  Biso   1.000  Cu
  Cu2      1.0000 0.30552  0.92276  0.98781  Biso   1.000  Cu
  Cl1      1.0000 0.51245  0.09481  0.90444  Biso   1.000  Cl
  Cl2      1.0000 0.48755  0.90519  0.09556  Biso   1.000  Cl
  P1       1.0000 0.97077  0.98692  0.88549  Biso   1.000  P
  P2       1.0000 0.02923  0.01308  0.11451  Biso   1.000  P
  O1       1.0000 0.84375  0.93150  0.94700  Biso   1.000  O
  O2       1.0000 0.15625  0.06850  0.05300  Biso   1.000  O
  O3       1.0000 0.92760  0.15361  0.88870  Biso   1.000  O
  O4       1.0000 0.07240  0.84639  0.11130  Biso   1.000  O
  O5       1.0000 0.14787  0.93278  0.90058  Biso   1.000  O
  O6       1.0000 0.85213  0.06722  0.09942  Biso   1.000  O
  N1       1.0000 0.56030  0.24500  0.06503  Biso   1.000  N
  N2       1.0000 0.43970  0.75500  0.93497  Biso   1.000  N
  N3       1.0000 0.39500  0.25970  0.08106  Biso   1.000  N
  N4       1.0000 0.60500  0.74030  0.91894  Biso   1.000  N
  H1       1.0000 0.33820  0.19260  0.07440  Biso   1.000  H
  H2       1.0000 0.66180  0.80740  0.92560  Biso   1.000  H
  C1       1.0000 0.93680  0.94050  0.77869  Biso   1.000  C
  C2       1.0000 0.06320  0.05950  0.22131  Biso   1.000  C
  H3       1.0000 0.97450  0.83720  0.77310  Biso   1.000  H
  H4       1.0000 0.02550  0.16280  0.22690  Biso   1.000  H
  H5       1.0000 0.81770  0.96050  0.77190  Biso   1.000  H
  H6       1.0000 0.18230  0.03950  0.22810  Biso   1.000  H
  C3       1.0000 0.02150  0.01740  0.70643  Biso   1.000  C
  C4       1.0000 0.97850  0.98260  0.29357  Biso   1.000  C
  C5       1.0000 0.18190  0.96170  0.67505  Biso   1.000  C
  C6       1.0000 0.81810  0.03830  0.32495  Biso   1.000  C
  C7       1.0000 0.25410  0.03280  0.60707  Biso   1.000  C
  C8       1.0000 0.74590  0.96720  0.39293  Biso   1.000  C
  H7       1.0000 0.36120  0.99340  0.58490  Biso   1.000  H
  H8       1.0000 0.63880  0.00660  0.41510  Biso   1.000  H
  C9       1.0000 0.17560  0.15850  0.57058  Biso   1.000  C
  C10      1.0000 0.82440  0.84150  0.42942  Biso   1.000  C
  C11      1.0000 0.01700  0.21180  0.60276  Biso   1.000  C
  C12      1.0000 0.98300  0.78820  0.39724  Biso   1.000  C
  H9       1.0000 0.96060  0.29750  0.57830  Biso   1.000  H
  H10      1.0000 0.03940  0.70250  0.42170  Biso   1.000  H
  C13      1.0000 0.93820  0.14400  0.66936  Biso   1.000  C
  C14      1.0000 0.06180  0.85600  0.33064  Biso   1.000  C
  C15      1.0000 0.27860  0.82370  0.71087  Biso   1.000  C
  C16      1.0000 0.72140  0.17630  0.28913  Biso   1.000  C
  H11      1.0000 0.22620  0.80420  0.76860  Biso   1.000  H
  H12      1.0000 0.77380  0.19580  0.23140  Biso   1.000  H
  C17      1.0000 0.26960  0.69930  0.65520  Biso   1.000  C
  C18      1.0000 0.73040  0.30070  0.34480  Biso   1.000  C
  H13      1.0000 0.15520  0.68840  0.65350  Biso   1.000  H
  H14      1.0000 0.84480  0.31160  0.34650  Biso   1.000  H
  H15      1.0000 0.33270  0.61210  0.67920  Biso   1.000  H
  H16      1.0000 0.66730  0.38790  0.32080  Biso   1.000  H
  H17      1.0000 0.31510  0.71760  0.59720  Biso   1.000  H
  H18      1.0000 0.68490  0.28240  0.40280  Biso   1.000  H
  C19      1.0000 0.45710  0.83240  0.72189  Biso   1.000  C
  C20      1.0000 0.54290  0.16760  0.27811  Biso   1.000  C
  H19      1.0000 0.51320  0.84740  0.66590  Biso   1.000  H
  H20      1.0000 0.48680  0.15260  0.33410  Biso   1.000  H
  H21      1.0000 0.51120  0.74380  0.74860  Biso   1.000  H
  H22      1.0000 0.48880  0.25620  0.25140  Biso   1.000  H
  H23      1.0000 0.46150  0.91170  0.75810  Biso   1.000  H
  H24      1.0000 0.53850  0.08830  0.24190  Biso   1.000  H
  C21      1.0000 0.25980  0.23760  0.49915  Biso   1.000  C
  C22      1.0000 0.74020  0.76240  0.50085  Biso   1.000  C
  H25      1.0000 0.36480  0.17490  0.48020  Biso   1.000  H
  H26      1.0000 0.63520  0.82510  0.51980  Biso   1.000  H
  C23      1.0000 0.15780  0.27070  0.42193  Biso   1.000  C
  C24      1.0000 0.84220  0.72930  0.57807  Biso   1.000  C
  H27      1.0000 0.12840  0.18300  0.40350  Biso   1.000  H
  H28      1.0000 0.87160  0.81700  0.59650  Biso   1.000  H
  H29      1.0000 0.22140  0.31170  0.37530  Biso   1.000  H
  H30      1.0000 0.77860  0.68830  0.62470  Biso   1.000  H
  H31      1.0000 0.05800  0.33840  0.43740  Biso   1.000  H
  H32      1.0000 0.94200  0.66160  0.56260  Biso   1.000  H
  C25      1.0000 0.30210  0.37410  0.53107  Biso   1.000  C
  C26      1.0000 0.69790  0.62590  0.46893  Biso   1.000  C
  H33      1.0000 0.20100  0.44020  0.54670  Biso   1.000  H
  H34      1.0000 0.79900  0.55980  0.45330  Biso   1.000  H
  H35      1.0000 0.36620  0.41790  0.48580  Biso   1.000  H
  H36      1.0000 0.63380  0.58210  0.51420  Biso   1.000  H
  H37      1.0000 0.36620  0.35160  0.58110  Biso   1.000  H
  H38      1.0000 0.63380  0.64840  0.41890  Biso   1.000  H
  C27      1.0000 0.75950  0.20320  0.69569  Biso   1.000  C
  C28      1.0000 0.24050  0.79680  0.30431  Biso   1.000  C
  H39      1.0000 0.73790  0.17530  0.75700  Biso   1.000  H
  H40      1.0000 0.26210  0.82470  0.24300  Biso   1.000  H
  C29      1.0000 0.65050  0.13500  0.64330  Biso   1.000  C
  C30      1.0000 0.34950  0.86500  0.35670  Biso   1.000  C
  H41      1.0000 0.66400  0.16600  0.58330  Biso   1.000  H
  H42      1.0000 0.33600  0.83400  0.41670  Biso   1.000  H
  H43      1.0000 0.53600  0.16350  0.66460  Biso   1.000  H
  H44      1.0000 0.46400  0.83650  0.33540  Biso   1.000  H
  H45      1.0000 0.68140  0.03150  0.64830  Biso   1.000  H
  H46      1.0000 0.31860  0.96850  0.35170  Biso   1.000  H
  C31      1.0000 0.71530  0.36420  0.68673  Biso   1.000  C
  C32      1.0000 0.28470  0.63580  0.31327  Biso   1.000  C
  H47      1.0000 0.79150  0.40720  0.71690  Biso   1.000  H
  H48      1.0000 0.20850  0.59280  0.28310  Biso   1.000  H
  H49      1.0000 0.60350  0.39560  0.71130  Biso   1.000  H
  H50      1.0000 0.39650  0.60440  0.28870  Biso   1.000  H
  H51      1.0000 0.72250  0.39340  0.62620  Biso   1.000  H
  H52      1.0000 0.27750  0.60660  0.37380  Biso   1.000  H
  C33      1.0000 0.76980  0.39490  0.07233  Biso   1.000  C
  C34      1.0000 0.23020  0.60510  0.92767  Biso   1.000  C
  H53      1.0000 0.82130  0.37080  0.12630  Biso   1.000  H
  H54      1.0000 0.17870  0.62920  0.87370  Biso   1.000  H
  H55      1.0000 0.77000  0.49510  0.05680  Biso   1.000  H
  H56      1.0000 0.23000  0.50490  0.94320  Biso   1.000  H
  H57      1.0000 0.83120  0.33570  0.02740  Biso   1.000  H
  H58      1.0000 0.16880  0.66430  0.97260  Biso   1.000  H
  C35      1.0000 0.59850  0.36940  0.08222  Biso   1.000  C
  C36      1.0000 0.40150  0.63060  0.91778  Biso   1.000  C
  C37      1.0000 0.45670  0.46350  0.10962  Biso   1.000  C
  C38      1.0000 0.54330  0.53650  0.89038  Biso   1.000  C
  H59      1.0000 0.44970  0.55870  0.12580  Biso   1.000  H
  H60      1.0000 0.55030  0.44130  0.87420  Biso   1.000  H
  C39      1.0000 0.32970  0.39010  0.10840  Biso   1.000  C
  C40      1.0000 0.67030  0.60990  0.89160  Biso   1.000  C
  C41      1.0000 0.15110  0.43050  0.13114  Biso   1.000  C
  C42      1.0000 0.84890  0.56950  0.86886  Biso   1.000  C
  H61      1.0000 0.09040  0.38980  0.09070  Biso   1.000  H
  H62      1.0000 0.90960  0.61020  0.90930  Biso   1.000  H
  H63      1.0000 0.11990  0.53410  0.12870  Biso   1.000  H
  H64      1.0000 0.88010  0.46590  0.87130  Biso   1.000  H
  H65      1.0000 0.12530  0.39430  0.18900  Biso   1.000  H
  H66      1.0000 0.87470  0.60570  0.81100  Biso   1.000  H
  H67      1.0000 0.00500  0.18700  0.88290  Biso   1.000  H
  H68      1.0000 0.99500  0.81300  0.11710  Biso   1.000  H
  O7       1.0000 0.17560  0.28287  0.86897  Biso   1.000  O
  O8       1.0000 0.82440  0.71713  0.13103  Biso   1.000  O
  H69      1.0000 0.25420  0.22950  0.89070  Biso   1.000  H
  H70      1.0000 0.74580  0.77050  0.10930  Biso   1.000  H
  C43      1.0000 0.22120  0.31530  0.78171  Biso   1.000  C
  C44      1.0000 0.77880  0.68470  0.21829  Biso   1.000  C
  H71      1.0000 0.12840  0.37510  0.75580  Biso   1.000  H
  H72      1.0000 0.87160  0.62490  0.24420  Biso   1.000  H
  H73      1.0000 0.25280  0.22710  0.75080  Biso   1.000  H
  H74      1.0000 0.74720  0.77290  0.24920  Biso   1.000  H
  H75      1.0000 0.31380  0.36580  0.77870  Biso   1.000  H
  H76      1.0000 0.68620  0.63420  0.22130  Biso   1.000  H
