data_image0
_cell_length_a       19.693
_cell_length_b       8.996
_cell_length_c       20.591
_cell_angle_alpha    90
_cell_angle_beta     97.57
_cell_angle_gamma    90

_symmetry_space_group_name_H-M    "P 1"
_symmetry_int_tables_number       1

loop_
  _symmetry_equiv_pos_as_xyz
  'x, y, z'

loop_
  _atom_site_label
  _atom_site_occupancy
  _atom_site_fract_x
  _atom_site_fract_y
  _atom_site_fract_z
  _atom_site_thermal_displace_type
  _atom_site_B_iso_or_equiv
  _atom_site_type_symbol
  Cu1      1.0000 0.73308  0.38822  0.40755  Biso   1.000  Cu
  Cu2      1.0000 0.73308  0.11178  0.90755  Biso   1.000  Cu
  Cu3      1.0000 0.26692  0.61178  0.59245  Biso   1.000  Cu
  Cu4      1.0000 0.26692  0.88822  0.09245  Biso   1.000  Cu
  Cl1      1.0000 0.58848  0.16300  0.61014  Biso   1.000  Cl
  Cl2      1.0000 0.58848  0.33700  0.11014  Biso   1.000  Cl
  Cl3      1.0000 0.41152  0.83700  0.38986  Biso   1.000  Cl
  Cl4      1.0000 0.41152  0.66300  0.88986  Biso   1.000  Cl
  Cl5      1.0000 0.80033  0.49060  0.82217  Biso   1.000  Cl
  Cl6      1.0000 0.80033  0.00940  0.32217  Biso   1.000  Cl
  Cl7      1.0000 0.19967  0.50940  0.17783  Biso   1.000  Cl
  Cl8      1.0000 0.19967  0.99060  0.67783  Biso   1.000  Cl
  O1       1.0000 0.57570  0.04590  0.56200  Biso   1.000  O
  O2       1.0000 0.57570  0.45410  0.06200  Biso   1.000  O
  O3       1.0000 0.42430  0.95410  0.43800  Biso   1.000  O
  O4       1.0000 0.42430  0.54590  0.93800  Biso   1.000  O
  O5       1.0000 0.64090  0.07610  0.58650  Biso   1.000  O
  O6       1.0000 0.64090  0.42390  0.08650  Biso   1.000  O
  O7       1.0000 0.35910  0.92390  0.41350  Biso   1.000  O
  O8       1.0000 0.35910  0.57610  0.91350  Biso   1.000  O
  O9       1.0000 0.61670  0.28550  0.58630  Biso   1.000  O
  O10      1.0000 0.61670  0.21450  0.08630  Biso   1.000  O
  O11      1.0000 0.38330  0.71450  0.41370  Biso   1.000  O
  O12      1.0000 0.38330  0.78550  0.91370  Biso   1.000  O
  O13      1.0000 0.64510  0.26100  0.63630  Biso   1.000  O
  O14      1.0000 0.64510  0.23900  0.13630  Biso   1.000  O
  O15      1.0000 0.35490  0.73900  0.36370  Biso   1.000  O
  O16      1.0000 0.35490  0.76100  0.86370  Biso   1.000  O
  O17      1.0000 0.51870  0.20480  0.61980  Biso   1.000  O
  O18      1.0000 0.51870  0.29520  0.11980  Biso   1.000  O
  O19      1.0000 0.48130  0.79520  0.38020  Biso   1.000  O
  O20      1.0000 0.48130  0.70480  0.88020  Biso   1.000  O
  O21      1.0000 0.54880  0.26600  0.57610  Biso   1.000  O
  O22      1.0000 0.54880  0.23400  0.07610  Biso   1.000  O
  O23      1.0000 0.45120  0.73400  0.42390  Biso   1.000  O
  O24      1.0000 0.45120  0.76600  0.92390  Biso   1.000  O
  O25      1.0000 0.61660  0.11040  0.66860  Biso   1.000  O
  O26      1.0000 0.61660  0.38960  0.16860  Biso   1.000  O
  O27      1.0000 0.38340  0.88960  0.33140  Biso   1.000  O
  O28      1.0000 0.38340  0.61040  0.83140  Biso   1.000  O
  O29      1.0000 0.56640  0.12100  0.66620  Biso   1.000  O
  O30      1.0000 0.56640  0.37900  0.16620  Biso   1.000  O
  O31      1.0000 0.43360  0.87900  0.33380  Biso   1.000  O
  O32      1.0000 0.43360  0.62100  0.83380  Biso   1.000  O
  O33      1.0000 0.75060  0.56780  0.85100  Biso   1.000  O
  O34      1.0000 0.75060  0.93220  0.35100  Biso   1.000  O
  O35      1.0000 0.24940  0.43220  0.14900  Biso   1.000  O
  O36      1.0000 0.24940  0.06780  0.64900  Biso   1.000  O
  O37      1.0000 0.75030  0.57300  0.84890  Biso   1.000  O
  O38      1.0000 0.75030  0.92700  0.34890  Biso   1.000  O
  O39      1.0000 0.24970  0.42700  0.15110  Biso   1.000  O
  O40      1.0000 0.24970  0.07300  0.65110  Biso   1.000  O
  O41      1.0000 0.86280  0.50350  0.86660  Biso   1.000  O
  O42      1.0000 0.86280  0.99650  0.36660  Biso   1.000  O
  O43      1.0000 0.13720  0.49650  0.13340  Biso   1.000  O
  O44      1.0000 0.13720  0.00350  0.63340  Biso   1.000  O
  O45      1.0000 0.86260  0.56000  0.81900  Biso   1.000  O
  O46      1.0000 0.86260  0.94000  0.31900  Biso   1.000  O
  O47      1.0000 0.13740  0.44000  0.18100  Biso   1.000  O
  O48      1.0000 0.13740  0.06000  0.68100  Biso   1.000  O
  O49      1.0000 0.81020  0.54650  0.76100  Biso   1.000  O
  O50      1.0000 0.81020  0.95350  0.26100  Biso   1.000  O
  O51      1.0000 0.18980  0.45350  0.23900  Biso   1.000  O
  O52      1.0000 0.18980  0.04650  0.73900  Biso   1.000  O
  O53      1.0000 0.76170  0.49700  0.75690  Biso   1.000  O
  O54      1.0000 0.76170  0.00300  0.25690  Biso   1.000  O
  O55      1.0000 0.23830  0.50300  0.24310  Biso   1.000  O
  O56      1.0000 0.23830  0.99700  0.74310  Biso   1.000  O
  O57      1.0000 0.78530  0.33780  0.81700  Biso   1.000  O
  O58      1.0000 0.78530  0.16220  0.31700  Biso   1.000  O
  O59      1.0000 0.21470  0.66220  0.18300  Biso   1.000  O
  O60      1.0000 0.21470  0.83780  0.68300  Biso   1.000  O
  O61      1.0000 0.80100  0.33910  0.83750  Biso   1.000  O
  O62      1.0000 0.80100  0.16090  0.33750  Biso   1.000  O
  O63      1.0000 0.19900  0.66090  0.16250  Biso   1.000  O
  O64      1.0000 0.19900  0.83910  0.66250  Biso   1.000  O
  O65      1.0000 0.93800  0.04270  0.48810  Biso   1.000  O
  O66      1.0000 0.93800  0.45730  0.98810  Biso   1.000  O
  O67      1.0000 0.06200  0.95730  0.51190  Biso   1.000  O
  O68      1.0000 0.06200  0.54270  0.01190  Biso   1.000  O
  O69      1.0000 0.23840  0.31600  0.40410  Biso   1.000  O
  O70      1.0000 0.23840  0.18400  0.90410  Biso   1.000  O
  O71      1.0000 0.76160  0.68400  0.59590  Biso   1.000  O
  O72      1.0000 0.76160  0.81600  0.09590  Biso   1.000  O
  N1       1.0000 0.68125  0.66370  0.25119  Biso   1.000  N
  N2       1.0000 0.68125  0.83630  0.75119  Biso   1.000  N
  N3       1.0000 0.31875  0.33630  0.74881  Biso   1.000  N
  N4       1.0000 0.31875  0.16370  0.24881  Biso   1.000  N
  N5       1.0000 0.72274  0.50280  0.32454  Biso   1.000  N
  N6       1.0000 0.72274  0.99720  0.82454  Biso   1.000  N
  N7       1.0000 0.27726  0.49720  0.67546  Biso   1.000  N
  N8       1.0000 0.27726  0.00280  0.17546  Biso   1.000  N
  N9       1.0000 0.57145  0.14320  0.31469  Biso   1.000  N
  N10      1.0000 0.57145  0.35680  0.81469  Biso   1.000  N
  N11      1.0000 0.42855  0.85680  0.68531  Biso   1.000  N
  N12      1.0000 0.42855  0.64320  0.18531  Biso   1.000  N
  N13      1.0000 0.65150  0.26490  0.37714  Biso   1.000  N
  N14      1.0000 0.65150  0.23510  0.87714  Biso   1.000  N
  N15      1.0000 0.34850  0.73510  0.62286  Biso   1.000  N
  N16      1.0000 0.34850  0.76490  0.12286  Biso   1.000  N
  N17      1.0000 0.60110  0.83510  0.00984  Biso   1.000  N
  N18      1.0000 0.60110  0.66490  0.50984  Biso   1.000  N
  N19      1.0000 0.39890  0.16490  0.99016  Biso   1.000  N
  N20      1.0000 0.39890  0.33510  0.49016  Biso   1.000  N
  N21      1.0000 0.67970  0.93190  0.95766  Biso   1.000  N
  N22      1.0000 0.67970  0.56810  0.45766  Biso   1.000  N
  N23      1.0000 0.32030  0.06810  0.04234  Biso   1.000  N
  N24      1.0000 0.32030  0.43190  0.54234  Biso   1.000  N
  N25      1.0000 0.02790  0.26750  0.80986  Biso   1.000  N
  N26      1.0000 0.02790  0.23250  0.30986  Biso   1.000  N
  N27      1.0000 0.97210  0.73250  0.19014  Biso   1.000  N
  N28      1.0000 0.97210  0.76750  0.69014  Biso   1.000  N
  N29      1.0000 0.05820  0.33250  0.91100  Biso   1.000  N
  N30      1.0000 0.05820  0.16750  0.41100  Biso   1.000  N
  N31      1.0000 0.94180  0.66750  0.08900  Biso   1.000  N
  N32      1.0000 0.94180  0.83250  0.58900  Biso   1.000  N
  N33      1.0000 0.78712  0.22350  0.59117  Biso   1.000  N
  N34      1.0000 0.78712  0.27650  0.09117  Biso   1.000  N
  N35      1.0000 0.21288  0.77650  0.40883  Biso   1.000  N
  N36      1.0000 0.21288  0.72350  0.90883  Biso   1.000  N
  N37      1.0000 0.75340  0.26870  0.48867  Biso   1.000  N
  N38      1.0000 0.75340  0.23130  0.98867  Biso   1.000  N
  N39      1.0000 0.24660  0.73130  0.51133  Biso   1.000  N
  N40      1.0000 0.24660  0.76870  0.01133  Biso   1.000  N
  N41      1.0000 0.08050  0.39760  0.57432  Biso   1.000  N
  N42      1.0000 0.08050  0.10240  0.07432  Biso   1.000  N
  N43      1.0000 0.91950  0.60240  0.42568  Biso   1.000  N
  N44      1.0000 0.91950  0.89760  0.92568  Biso   1.000  N
  N45      1.0000 0.17030  0.53920  0.57729  Biso   1.000  N
  N46      1.0000 0.17030  0.96080  0.07729  Biso   1.000  N
  N47      1.0000 0.82970  0.46080  0.42271  Biso   1.000  N
  N48      1.0000 0.82970  0.03920  0.92271  Biso   1.000  N
  C1       1.0000 0.63430  0.76590  0.21788  Biso   1.000  C
  C2       1.0000 0.63430  0.73410  0.71788  Biso   1.000  C
  C3       1.0000 0.36570  0.23410  0.78212  Biso   1.000  C
  C4       1.0000 0.36570  0.26590  0.28212  Biso   1.000  C
  C5       1.0000 0.60700  0.87460  0.25270  Biso   1.000  C
  C6       1.0000 0.60700  0.62540  0.75270  Biso   1.000  C
  C7       1.0000 0.39300  0.12540  0.74730  Biso   1.000  C
  C8       1.0000 0.39300  0.37460  0.24730  Biso   1.000  C
  H1       1.0000 0.62100  0.88420  0.29840  Biso   1.000  H
  H2       1.0000 0.62100  0.61580  0.79840  Biso   1.000  H
  H3       1.0000 0.37900  0.11580  0.70160  Biso   1.000  H
  H4       1.0000 0.37900  0.38420  0.20160  Biso   1.000  H
  C9       1.0000 0.55910  0.97040  0.22110  Biso   1.000  C
  C10      1.0000 0.55910  0.52960  0.72110  Biso   1.000  C
  C11      1.0000 0.44090  0.02960  0.77890  Biso   1.000  C
  C12      1.0000 0.44090  0.47040  0.27890  Biso   1.000  C
  C13      1.0000 0.53900  0.95130  0.15490  Biso   1.000  C
  C14      1.0000 0.53900  0.54870  0.65490  Biso   1.000  C
  C15      1.0000 0.46100  0.04870  0.84510  Biso   1.000  C
  C16      1.0000 0.46100  0.45130  0.34510  Biso   1.000  C
  H5       1.0000 0.50470  0.01450  0.13300  Biso   1.000  H
  H6       1.0000 0.50470  0.48550  0.63300  Biso   1.000  H
  H7       1.0000 0.49530  0.98550  0.86700  Biso   1.000  H
  H8       1.0000 0.49530  0.51450  0.36700  Biso   1.000  H
  C17      1.0000 0.56720  0.84350  0.12024  Biso   1.000  C
  C18      1.0000 0.56720  0.65650  0.62024  Biso   1.000  C
  C19      1.0000 0.43280  0.15650  0.87976  Biso   1.000  C
  C20      1.0000 0.43280  0.34350  0.37976  Biso   1.000  C
  C21      1.0000 0.61530  0.74900  0.15157  Biso   1.000  C
  C22      1.0000 0.61530  0.75100  0.65157  Biso   1.000  C
  C23      1.0000 0.38470  0.25100  0.84843  Biso   1.000  C
  C24      1.0000 0.38470  0.24900  0.34843  Biso   1.000  C
  H9       1.0000 0.63510  0.67320  0.12800  Biso   1.000  H
  H10      1.0000 0.63510  0.82680  0.62800  Biso   1.000  H
  H11      1.0000 0.36490  0.32680  0.87200  Biso   1.000  H
  H12      1.0000 0.36490  0.17320  0.37200  Biso   1.000  H
  C25      1.0000 0.67140  0.59000  0.30507  Biso   1.000  C
  C26      1.0000 0.67140  0.91000  0.80507  Biso   1.000  C
  C27      1.0000 0.32860  0.41000  0.69493  Biso   1.000  C
  C28      1.0000 0.32860  0.09000  0.19493  Biso   1.000  C
  H13      1.0000 0.63180  0.59980  0.32660  Biso   1.000  H
  H14      1.0000 0.63180  0.90020  0.82660  Biso   1.000  H
  H15      1.0000 0.36820  0.40020  0.67340  Biso   1.000  H
  H16      1.0000 0.36820  0.09980  0.17340  Biso   1.000  H
  C29      1.0000 0.76840  0.52240  0.28080  Biso   1.000  C
  C30      1.0000 0.76840  0.97760  0.78080  Biso   1.000  C
  C31      1.0000 0.23160  0.47760  0.71920  Biso   1.000  C
  C32      1.0000 0.23160  0.02240  0.21920  Biso   1.000  C
  H17      1.0000 0.81120  0.47330  0.28220  Biso   1.000  H
  H18      1.0000 0.81120  0.02670  0.78220  Biso   1.000  H
  H19      1.0000 0.18880  0.52670  0.71780  Biso   1.000  H
  H20      1.0000 0.18880  0.97330  0.21780  Biso   1.000  H
  C33      1.0000 0.74310  0.62160  0.23590  Biso   1.000  C
  C34      1.0000 0.74310  0.87840  0.73590  Biso   1.000  C
  C35      1.0000 0.25690  0.37840  0.76410  Biso   1.000  C
  C36      1.0000 0.25690  0.12160  0.26410  Biso   1.000  C
  H21      1.0000 0.76450  0.65610  0.20000  Biso   1.000  H
  H22      1.0000 0.76450  0.84390  0.70000  Biso   1.000  H
  H23      1.0000 0.23550  0.34390  0.80000  Biso   1.000  H
  H24      1.0000 0.23550  0.15610  0.30000  Biso   1.000  H
  C37      1.0000 0.52760  0.09140  0.25664  Biso   1.000  C
  C38      1.0000 0.52760  0.40860  0.75664  Biso   1.000  C
  C39      1.0000 0.47240  0.90860  0.74336  Biso   1.000  C
  C40      1.0000 0.47240  0.59140  0.24336  Biso   1.000  C
  H25      1.0000 0.51680  0.17630  0.22640  Biso   1.000  H
  H26      1.0000 0.51680  0.32370  0.72640  Biso   1.000  H
  H27      1.0000 0.48320  0.82370  0.77360  Biso   1.000  H
  H28      1.0000 0.48320  0.67630  0.27360  Biso   1.000  H
  H29      1.0000 0.48400  0.05490  0.26980  Biso   1.000  H
  H30      1.0000 0.48400  0.44510  0.76980  Biso   1.000  H
  H31      1.0000 0.51600  0.94510  0.73020  Biso   1.000  H
  H32      1.0000 0.51600  0.55490  0.23020  Biso   1.000  H
  C41      1.0000 0.62330  0.23800  0.31645  Biso   1.000  C
  C42      1.0000 0.62330  0.26200  0.81645  Biso   1.000  C
  C43      1.0000 0.37670  0.76200  0.68355  Biso   1.000  C
  C44      1.0000 0.37670  0.73800  0.18355  Biso   1.000  C
  H33      1.0000 0.63820  0.28130  0.27870  Biso   1.000  H
  H34      1.0000 0.63820  0.21870  0.77870  Biso   1.000  H
  H35      1.0000 0.36180  0.71870  0.72130  Biso   1.000  H
  H36      1.0000 0.36180  0.78130  0.22130  Biso   1.000  H
  C45      1.0000 0.61430  0.18150  0.41520  Biso   1.000  C
  C46      1.0000 0.61430  0.31850  0.91520  Biso   1.000  C
  C47      1.0000 0.38570  0.81850  0.58480  Biso   1.000  C
  C48      1.0000 0.38570  0.68150  0.08480  Biso   1.000  C
  H37      1.0000 0.62190  0.17780  0.46170  Biso   1.000  H
  H38      1.0000 0.62190  0.32220  0.96170  Biso   1.000  H
  H39      1.0000 0.37810  0.82220  0.53830  Biso   1.000  H
  H40      1.0000 0.37810  0.67780  0.03830  Biso   1.000  H
  C49      1.0000 0.56590  0.10620  0.37780  Biso   1.000  C
  C50      1.0000 0.56590  0.39380  0.87780  Biso   1.000  C
  C51      1.0000 0.43410  0.89380  0.62220  Biso   1.000  C
  C52      1.0000 0.43410  0.60620  0.12220  Biso   1.000  C
  H41      1.0000 0.53360  0.03950  0.39240  Biso   1.000  H
  H42      1.0000 0.53360  0.46050  0.89240  Biso   1.000  H
  H43      1.0000 0.46640  0.96050  0.60760  Biso   1.000  H
  H44      1.0000 0.46640  0.53950  0.10760  Biso   1.000  H
  C53      1.0000 0.54510  0.82490  0.04770  Biso   1.000  C
  C54      1.0000 0.54510  0.67510  0.54770  Biso   1.000  C
  C55      1.0000 0.45490  0.17510  0.95230  Biso   1.000  C
  C56      1.0000 0.45490  0.32490  0.45230  Biso   1.000  C
  H45      1.0000 0.51090  0.90240  0.03270  Biso   1.000  H
  H46      1.0000 0.51090  0.59760  0.53270  Biso   1.000  H
  H47      1.0000 0.48910  0.09760  0.96730  Biso   1.000  H
  H48      1.0000 0.48910  0.40240  0.46730  Biso   1.000  H
  H49      1.0000 0.52270  0.72690  0.03980  Biso   1.000  H
  H50      1.0000 0.52270  0.77310  0.53980  Biso   1.000  H
  H51      1.0000 0.47730  0.27310  0.96020  Biso   1.000  H
  H52      1.0000 0.47730  0.22690  0.46020  Biso   1.000  H
  C57      1.0000 0.14800  0.40260  0.57710  Biso   1.000  C
  C58      1.0000 0.14800  0.09740  0.07710  Biso   1.000  C
  C59      1.0000 0.85200  0.59740  0.42290  Biso   1.000  C
  C60      1.0000 0.85200  0.90260  0.92290  Biso   1.000  C
  H53      1.0000 0.17660  0.31740  0.57870  Biso   1.000  H
  H54      1.0000 0.17660  0.18260  0.07870  Biso   1.000  H
  H55      1.0000 0.82340  0.68260  0.42130  Biso   1.000  H
  H56      1.0000 0.82340  0.81740  0.92130  Biso   1.000  H
  C61      1.0000 0.11320  0.62530  0.57430  Biso   1.000  C
  C62      1.0000 0.11320  0.87470  0.07430  Biso   1.000  C
  C63      1.0000 0.88680  0.37470  0.42570  Biso   1.000  C
  C64      1.0000 0.88680  0.12530  0.92570  Biso   1.000  C
  H57      1.0000 0.11310  0.73090  0.57360  Biso   1.000  H
  H58      1.0000 0.11310  0.76910  0.07360  Biso   1.000  H
  H59      1.0000 0.88690  0.26910  0.42640  Biso   1.000  H
  H60      1.0000 0.88690  0.23090  0.92640  Biso   1.000  H
  C65      1.0000 0.05730  0.54000  0.57260  Biso   1.000  C
  C66      1.0000 0.05730  0.96000  0.07260  Biso   1.000  C
  C67      1.0000 0.94270  0.46000  0.42740  Biso   1.000  C
  C68      1.0000 0.94270  0.04000  0.92740  Biso   1.000  C
  H61      1.0000 0.01110  0.57230  0.57070  Biso   1.000  H
  H62      1.0000 0.01110  0.92770  0.07070  Biso   1.000  H
  H63      1.0000 0.98890  0.42770  0.42930  Biso   1.000  H
  H64      1.0000 0.98890  0.07230  0.92930  Biso   1.000  H
  C69      1.0000 0.99290  0.26500  0.74420  Biso   1.000  C
  C70      1.0000 0.99290  0.23500  0.24420  Biso   1.000  C
  C71      1.0000 0.00710  0.73500  0.25580  Biso   1.000  C
  C72      1.0000 0.00710  0.76500  0.75580  Biso   1.000  C
  C73      1.0000 0.92270  0.25690  0.73430  Biso   1.000  C
  C74      1.0000 0.92270  0.24310  0.23430  Biso   1.000  C
  C75      1.0000 0.07730  0.74310  0.26570  Biso   1.000  C
  C76      1.0000 0.07730  0.75690  0.76570  Biso   1.000  C
  H65      1.0000 0.89710  0.25350  0.77030  Biso   1.000  H
  H66      1.0000 0.89710  0.24650  0.27030  Biso   1.000  H
  H67      1.0000 0.10290  0.74650  0.22970  Biso   1.000  H
  H68      1.0000 0.10290  0.75350  0.72970  Biso   1.000  H
  C77      1.0000 0.89020  0.25380  0.67040  Biso   1.000  C
  C78      1.0000 0.89020  0.24620  0.17040  Biso   1.000  C
  C79      1.0000 0.10980  0.74620  0.32960  Biso   1.000  C
  C80      1.0000 0.10980  0.75380  0.82960  Biso   1.000  C
  C81      1.0000 0.92820  0.25770  0.61990  Biso   1.000  C
  C82      1.0000 0.92820  0.24230  0.11990  Biso   1.000  C
  C83      1.0000 0.07180  0.74230  0.38010  Biso   1.000  C
  C84      1.0000 0.07180  0.75770  0.88010  Biso   1.000  C
  H69      1.0000 0.90560  0.25640  0.57630  Biso   1.000  H
  H70      1.0000 0.90560  0.24360  0.07630  Biso   1.000  H
  H71      1.0000 0.09440  0.74360  0.42370  Biso   1.000  H
  H72      1.0000 0.09440  0.75640  0.92370  Biso   1.000  H
  C85      1.0000 0.99800  0.26330  0.63030  Biso   1.000  C
  C86      1.0000 0.99800  0.23670  0.13030  Biso   1.000  C
  C87      1.0000 0.00200  0.73670  0.36970  Biso   1.000  C
  C88      1.0000 0.00200  0.76330  0.86970  Biso   1.000  C
  C89      1.0000 0.03080  0.26790  0.69370  Biso   1.000  C
  C90      1.0000 0.03080  0.23210  0.19370  Biso   1.000  C
  C91      1.0000 0.96920  0.73210  0.30630  Biso   1.000  C
  C92      1.0000 0.96920  0.76790  0.80630  Biso   1.000  C
  H73      1.0000 0.07940  0.27300  0.70200  Biso   1.000  H
  H74      1.0000 0.07940  0.22700  0.20200  Biso   1.000  H
  H75      1.0000 0.92060  0.72700  0.29800  Biso   1.000  H
  H76      1.0000 0.92060  0.77300  0.79800  Biso   1.000  H
  C93      1.0000 0.01200  0.35280  0.85860  Biso   1.000  C
  C94      1.0000 0.01200  0.14720  0.35860  Biso   1.000  C
  C95      1.0000 0.98800  0.64720  0.14140  Biso   1.000  C
  C96      1.0000 0.98800  0.85280  0.64140  Biso   1.000  C
  H77      1.0000 0.97370  0.41770  0.85620  Biso   1.000  H
  H78      1.0000 0.97370  0.08230  0.35620  Biso   1.000  H
  H79      1.0000 0.02630  0.58230  0.14380  Biso   1.000  H
  H80      1.0000 0.02630  0.91770  0.64380  Biso   1.000  H
  C97      1.0000 0.10370  0.23340  0.89350  Biso   1.000  C
  C98      1.0000 0.10370  0.26660  0.39350  Biso   1.000  C
  C99      1.0000 0.89630  0.76660  0.10650  Biso   1.000  C
  C100     1.0000 0.89630  0.73340  0.60650  Biso   1.000  C
  H81      1.0000 0.14250  0.19740  0.92130  Biso   1.000  H
  H82      1.0000 0.14250  0.30260  0.42130  Biso   1.000  H
  H83      1.0000 0.85750  0.80260  0.07870  Biso   1.000  H
  H84      1.0000 0.85750  0.69740  0.57870  Biso   1.000  H
  C101     1.0000 0.08610  0.19390  0.83200  Biso   1.000  C
  C102     1.0000 0.08610  0.30610  0.33200  Biso   1.000  C
  C103     1.0000 0.91390  0.80610  0.16800  Biso   1.000  C
  C104     1.0000 0.91390  0.69390  0.66800  Biso   1.000  C
  H85      1.0000 0.10990  0.12620  0.80770  Biso   1.000  H
  H86      1.0000 0.10990  0.37380  0.30770  Biso   1.000  H
  H87      1.0000 0.89010  0.87380  0.19230  Biso   1.000  H
  H88      1.0000 0.89010  0.62620  0.69230  Biso   1.000  H
  C105     1.0000 0.81310  0.25300  0.65880  Biso   1.000  C
  C106     1.0000 0.81310  0.24700  0.15880  Biso   1.000  C
  C107     1.0000 0.18690  0.74700  0.34120  Biso   1.000  C
  C108     1.0000 0.18690  0.75300  0.84120  Biso   1.000  C
  H89      1.0000 0.79580  0.17620  0.68680  Biso   1.000  H
  H90      1.0000 0.79580  0.32380  0.18680  Biso   1.000  H
  H91      1.0000 0.20420  0.82380  0.31320  Biso   1.000  H
  H92      1.0000 0.20420  0.67620  0.81320  Biso   1.000  H
  H93      1.0000 0.79580  0.35060  0.67160  Biso   1.000  H
  H94      1.0000 0.79580  0.14940  0.17160  Biso   1.000  H
  H95      1.0000 0.20420  0.64940  0.32840  Biso   1.000  H
  H96      1.0000 0.20420  0.85060  0.82840  Biso   1.000  H
  C109     1.0000 0.76780  0.32620  0.54680  Biso   1.000  C
  C110     1.0000 0.76780  0.17380  0.04680  Biso   1.000  C
  C111     1.0000 0.23220  0.67380  0.45320  Biso   1.000  C
  C112     1.0000 0.23220  0.82620  0.95320  Biso   1.000  C
  H97      1.0000 0.76480  0.42920  0.55610  Biso   1.000  H
  H98      1.0000 0.76480  0.07080  0.05610  Biso   1.000  H
  H99      1.0000 0.23520  0.57080  0.44390  Biso   1.000  H
  H100     1.0000 0.23520  0.92920  0.94390  Biso   1.000  H
  C113     1.0000 0.76290  0.11960  0.49630  Biso   1.000  C
  C114     1.0000 0.76290  0.38040  0.99630  Biso   1.000  C
  C115     1.0000 0.23710  0.88040  0.50370  Biso   1.000  C
  C116     1.0000 0.23710  0.61960  0.00370  Biso   1.000  C
  H101     1.0000 0.75520  0.04720  0.46250  Biso   1.000  H
  H102     1.0000 0.75520  0.45280  0.96250  Biso   1.000  H
  H103     1.0000 0.24480  0.95280  0.53750  Biso   1.000  H
  H104     1.0000 0.24480  0.54720  0.03750  Biso   1.000  H
  C117     1.0000 0.78510  0.09220  0.55990  Biso   1.000  C
  C118     1.0000 0.78510  0.40780  0.05990  Biso   1.000  C
  C119     1.0000 0.21490  0.90780  0.44010  Biso   1.000  C
  C120     1.0000 0.21490  0.59220  0.94010  Biso   1.000  C
  H105     1.0000 0.79710  0.99810  0.57900  Biso   1.000  H
  H106     1.0000 0.79710  0.50190  0.07900  Biso   1.000  H
  H107     1.0000 0.20290  0.00190  0.42100  Biso   1.000  H
  H108     1.0000 0.20290  0.49810  0.92100  Biso   1.000  H
  C121     1.0000 0.03840  0.26460  0.57410  Biso   1.000  C
  C122     1.0000 0.03840  0.23540  0.07410  Biso   1.000  C
  C123     1.0000 0.96160  0.73540  0.42590  Biso   1.000  C
  C124     1.0000 0.96160  0.76460  0.92590  Biso   1.000  C
  H109     1.0000 0.00680  0.25980  0.53260  Biso   1.000  H
  H110     1.0000 0.00680  0.24020  0.03260  Biso   1.000  H
  H111     1.0000 0.99320  0.74020  0.46740  Biso   1.000  H
  H112     1.0000 0.99320  0.75980  0.96740  Biso   1.000  H
  H113     1.0000 0.06820  0.17560  0.57640  Biso   1.000  H
  H114     1.0000 0.06820  0.32440  0.07640  Biso   1.000  H
  H115     1.0000 0.93180  0.82440  0.42360  Biso   1.000  H
  H116     1.0000 0.93180  0.67560  0.92360  Biso   1.000  H
  C125     1.0000 0.63150  0.95830  0.99360  Biso   1.000  C
  C126     1.0000 0.63150  0.54170  0.49360  Biso   1.000  C
  C127     1.0000 0.36850  0.04170  0.00640  Biso   1.000  C
  C128     1.0000 0.36850  0.45830  0.50640  Biso   1.000  C
  H117     1.0000 0.61940  0.05500  0.00670  Biso   1.000  H
  H118     1.0000 0.61940  0.44500  0.50670  Biso   1.000  H
  H119     1.0000 0.38060  0.94500  0.99330  Biso   1.000  H
  H120     1.0000 0.38060  0.55500  0.49330  Biso   1.000  H
  C129     1.0000 0.68080  0.78020  0.95180  Biso   1.000  C
  C130     1.0000 0.68080  0.71980  0.45180  Biso   1.000  C
  C131     1.0000 0.31920  0.21980  0.04820  Biso   1.000  C
  C132     1.0000 0.31920  0.28020  0.54820  Biso   1.000  C
  H121     1.0000 0.71170  0.72550  0.92940  Biso   1.000  H
  H122     1.0000 0.71170  0.77450  0.42940  Biso   1.000  H
  H123     1.0000 0.28830  0.27450  0.07060  Biso   1.000  H
  H124     1.0000 0.28830  0.22550  0.57060  Biso   1.000  H
  C133     1.0000 0.63160  0.72120  0.98260  Biso   1.000  C
  C134     1.0000 0.63160  0.77880  0.48260  Biso   1.000  C
  C135     1.0000 0.36840  0.27880  0.01740  Biso   1.000  C
  C136     1.0000 0.36840  0.22120  0.51740  Biso   1.000  C
  H125     1.0000 0.62030  0.61880  0.98480  Biso   1.000  H
  H126     1.0000 0.62030  0.88120  0.48480  Biso   1.000  H
  H127     1.0000 0.37970  0.38120  0.01520  Biso   1.000  H
  H128     1.0000 0.37970  0.11880  0.51520  Biso   1.000  H
