data_image0
_cell_length_a       11.1656
_cell_length_b       15.186
_cell_length_c       7.0365
_cell_angle_alpha    90
_cell_angle_beta     94.862
_cell_angle_gamma    90

_symmetry_space_group_name_H-M    "P 1"
_symmetry_int_tables_number       1

loop_
  _symmetry_equiv_pos_as_xyz
  'x, y, z'

loop_
  _atom_site_label
  _atom_site_occupancy
  _atom_site_fract_x
  _atom_site_fract_y
  _atom_site_fract_z
  _atom_site_thermal_displace_type
  _atom_site_B_iso_or_equiv
  _atom_site_type_symbol
  Cl1      1.0000 0.34109  0.82476  0.27415  Biso   1.000  Cl
  Cl2      1.0000 0.65891  0.32476  0.22585  Biso   1.000  Cl
  Cl3      1.0000 0.65891  0.17524  0.72585  Biso   1.000  Cl
  Cl4      1.0000 0.34109  0.67524  0.77415  Biso   1.000  Cl
  Cu1      1.0000 0.44204  0.70651  0.18860  Biso   1.000  Cu
  Cu2      1.0000 0.55796  0.20651  0.31140  Biso   1.000  Cu
  Cu3      1.0000 0.55796  0.29349  0.81140  Biso   1.000  Cu
  Cu4      1.0000 0.44204  0.79349  0.68860  Biso   1.000  Cu
  O1       1.0000 0.57290  0.76085  0.06160  Biso   1.000  O
  O2       1.0000 0.42710  0.26085  0.43840  Biso   1.000  O
  O3       1.0000 0.42710  0.23915  0.93840  Biso   1.000  O
  O4       1.0000 0.57290  0.73915  0.56160  Biso   1.000  O
  N1       1.0000 0.54030  0.60052  0.18290  Biso   1.000  N
  N2       1.0000 0.45970  0.10052  0.31710  Biso   1.000  N
  N3       1.0000 0.45970  0.39948  0.81710  Biso   1.000  N
  N4       1.0000 0.54030  0.89948  0.68290  Biso   1.000  N
  N5       1.0000 0.32570  0.61642  0.28190  Biso   1.000  N
  N6       1.0000 0.67430  0.11642  0.21810  Biso   1.000  N
  N7       1.0000 0.67430  0.38358  0.71810  Biso   1.000  N
  N8       1.0000 0.32570  0.88358  0.78190  Biso   1.000  N
  C1       1.0000 0.65260  0.61710  0.11990  Biso   1.000  C
  C2       1.0000 0.34740  0.11710  0.38010  Biso   1.000  C
  C3       1.0000 0.34740  0.38290  0.88010  Biso   1.000  C
  C4       1.0000 0.65260  0.88290  0.61990  Biso   1.000  C
  C5       1.0000 0.49490  0.52850  0.23960  Biso   1.000  C
  C6       1.0000 0.50510  0.02850  0.26040  Biso   1.000  C
  C7       1.0000 0.50510  0.47150  0.76040  Biso   1.000  C
  C8       1.0000 0.49490  0.97150  0.73960  Biso   1.000  C
  H1       1.0000 0.53710  0.47570  0.24340  Biso   1.000  H
  H2       1.0000 0.46290  0.97570  0.25660  Biso   1.000  H
  H3       1.0000 0.46290  0.52430  0.75660  Biso   1.000  H
  H4       1.0000 0.53710  0.02430  0.74340  Biso   1.000  H
  C9       1.0000 0.31090  0.46360  0.36090  Biso   1.000  C
  C10      1.0000 0.68910  0.96360  0.13910  Biso   1.000  C
  C11      1.0000 0.68910  0.53640  0.63910  Biso   1.000  C
  C12      1.0000 0.31090  0.03640  0.86090  Biso   1.000  C
  H5       1.0000 0.34600  0.40810  0.37180  Biso   1.000  H
  H6       1.0000 0.65400  0.90810  0.12820  Biso   1.000  H
  H7       1.0000 0.65400  0.59190  0.62820  Biso   1.000  H
  H8       1.0000 0.34600  0.09190  0.87180  Biso   1.000  H
  C13      1.0000 0.77300  0.72760  0.98270  Biso   1.000  C
  C14      1.0000 0.22700  0.22760  0.51730  Biso   1.000  C
  C15      1.0000 0.22700  0.27240  0.01730  Biso   1.000  C
  C16      1.0000 0.77300  0.77240  0.48270  Biso   1.000  C
  H9       1.0000 0.78200  0.78360  0.93260  Biso   1.000  H
  H10      1.0000 0.21800  0.28360  0.56740  Biso   1.000  H
  H11      1.0000 0.21800  0.21640  0.06740  Biso   1.000  H
  H12      1.0000 0.78200  0.71640  0.43260  Biso   1.000  H
  C17      1.0000 0.74860  0.55790  0.12280  Biso   1.000  C
  C18      1.0000 0.25140  0.05790  0.37720  Biso   1.000  C
  C19      1.0000 0.25140  0.44210  0.87720  Biso   1.000  C
  C20      1.0000 0.74860  0.94210  0.62280  Biso   1.000  C
  H13      1.0000 0.74040  0.50100  0.16870  Biso   1.000  H
  H14      1.0000 0.25960  0.00100  0.33130  Biso   1.000  H
  H15      1.0000 0.25960  0.49900  0.83130  Biso   1.000  H
  H16      1.0000 0.74040  0.99900  0.66870  Biso   1.000  H
  C21      1.0000 0.66310  0.70480  0.05340  Biso   1.000  C
  C22      1.0000 0.33690  0.20480  0.44660  Biso   1.000  C
  C23      1.0000 0.33690  0.29520  0.94660  Biso   1.000  C
  C24      1.0000 0.66310  0.79520  0.55340  Biso   1.000  C
  C25      1.0000 0.21410  0.62770  0.32790  Biso   1.000  C
  C26      1.0000 0.78590  0.12770  0.17210  Biso   1.000  C
  C27      1.0000 0.78590  0.37230  0.67210  Biso   1.000  C
  C28      1.0000 0.21410  0.87230  0.82790  Biso   1.000  C
  H17      1.0000 0.18090  0.68390  0.31890  Biso   1.000  H
  H18      1.0000 0.81910  0.18390  0.18110  Biso   1.000  H
  H19      1.0000 0.81910  0.31610  0.68110  Biso   1.000  H
  H20      1.0000 0.18090  0.81610  0.81890  Biso   1.000  H
  C29      1.0000 0.37360  0.53470  0.29750  Biso   1.000  C
  C30      1.0000 0.62640  0.03470  0.20250  Biso   1.000  C
  C31      1.0000 0.62640  0.46530  0.70250  Biso   1.000  C
  C32      1.0000 0.37360  0.96530  0.79750  Biso   1.000  C
  C33      1.0000 0.86690  0.66980  0.98540  Biso   1.000  C
  C34      1.0000 0.13310  0.16980  0.51460  Biso   1.000  C
  C35      1.0000 0.13310  0.33020  0.01460  Biso   1.000  C
  C36      1.0000 0.86690  0.83020  0.48540  Biso   1.000  C
  C37      1.0000 0.19470  0.47720  0.40750  Biso   1.000  C
  C38      1.0000 0.80530  0.97720  0.09250  Biso   1.000  C
  C39      1.0000 0.80530  0.52280  0.59250  Biso   1.000  C
  C40      1.0000 0.19470  0.02280  0.90750  Biso   1.000  C
  H21      1.0000 0.15050  0.43060  0.45140  Biso   1.000  H
  H22      1.0000 0.84950  0.93060  0.04860  Biso   1.000  H
  H23      1.0000 0.84950  0.56940  0.54860  Biso   1.000  H
  H24      1.0000 0.15050  0.06940  0.95140  Biso   1.000  H
  C41      1.0000 0.98410  0.69660  0.90810  Biso   1.000  C
  C42      1.0000 0.01590  0.19660  0.59190  Biso   1.000  C
  C43      1.0000 0.01590  0.30340  0.09190  Biso   1.000  C
  C44      1.0000 0.98410  0.80340  0.40810  Biso   1.000  C
  H25      1.0000 0.97220  0.74970  0.83510  Biso   1.000  H
  H26      1.0000 0.02780  0.24970  0.66490  Biso   1.000  H
  H27      1.0000 0.02780  0.25030  0.16490  Biso   1.000  H
  H28      1.0000 0.97220  0.75030  0.33510  Biso   1.000  H
  H29      1.0000 0.01050  0.65050  0.82800  Biso   1.000  H
  H30      1.0000 0.98950  0.15050  0.67200  Biso   1.000  H
  H31      1.0000 0.98950  0.34950  0.17200  Biso   1.000  H
  H32      1.0000 0.01050  0.84950  0.32800  Biso   1.000  H
  H33      1.0000 0.04380  0.70640  0.01220  Biso   1.000  H
  H34      1.0000 0.95620  0.20640  0.48780  Biso   1.000  H
  H35      1.0000 0.95620  0.29360  0.98780  Biso   1.000  H
  H36      1.0000 0.04380  0.79360  0.51220  Biso   1.000  H
  C45      1.0000 0.85420  0.58450  0.05770  Biso   1.000  C
  C46      1.0000 0.14580  0.08450  0.44230  Biso   1.000  C
  C47      1.0000 0.14580  0.41550  0.94230  Biso   1.000  C
  C48      1.0000 0.85420  0.91550  0.55770  Biso   1.000  C
  H37      1.0000 0.91870  0.54570  0.06110  Biso   1.000  H
  H38      1.0000 0.08130  0.04570  0.43890  Biso   1.000  H
  H39      1.0000 0.08130  0.45430  0.93890  Biso   1.000  H
  H40      1.0000 0.91870  0.95430  0.56110  Biso   1.000  H
  C49      1.0000 0.14480  0.55920  0.38890  Biso   1.000  C
  C50      1.0000 0.85520  0.05920  0.11110  Biso   1.000  C
  C51      1.0000 0.85520  0.44080  0.61110  Biso   1.000  C
  C52      1.0000 0.14480  0.94080  0.88890  Biso   1.000  C
  H41      1.0000 0.06600  0.56890  0.41660  Biso   1.000  H
  H42      1.0000 0.93400  0.06890  0.08340  Biso   1.000  H
  H43      1.0000 0.93400  0.43110  0.58340  Biso   1.000  H
  H44      1.0000 0.06600  0.93110  0.91660  Biso   1.000  H
