data_image0
_cell_length_a       11.131
_cell_length_b       15.4597
_cell_length_c       7.1193
_cell_angle_alpha    90
_cell_angle_beta     94.482
_cell_angle_gamma    90

_symmetry_space_group_name_H-M    "P 1"
_symmetry_int_tables_number       1

loop_
  _symmetry_equiv_pos_as_xyz
  'x, y, z'

loop_
  _atom_site_label
  _atom_site_occupancy
  _atom_site_fract_x
  _atom_site_fract_y
  _atom_site_fract_z
  _atom_site_thermal_displace_type
  _atom_site_B_iso_or_equiv
  _atom_site_type_symbol
  Br1      1.0000 0.17378  0.82490  0.22584  Biso   1.000  Br
  Br2      1.0000 0.82622  0.32490  0.27416  Biso   1.000  Br
  Br3      1.0000 0.82622  0.17510  0.77416  Biso   1.000  Br
  Br4      1.0000 0.17378  0.67510  0.72584  Biso   1.000  Br
  Cu1      1.0000 0.06486  0.70238  0.32293  Biso   1.000  Cu
  Cu2      1.0000 0.93514  0.20238  0.17707  Biso   1.000  Cu
  Cu3      1.0000 0.93514  0.29762  0.67707  Biso   1.000  Cu
  Cu4      1.0000 0.06486  0.79762  0.82293  Biso   1.000  Cu
  O1       1.0000 0.93277  0.75858  0.44040  Biso   1.000  O
  O2       1.0000 0.06723  0.25858  0.05960  Biso   1.000  O
  O3       1.0000 0.06723  0.24142  0.55960  Biso   1.000  O
  O4       1.0000 0.93277  0.74142  0.94040  Biso   1.000  O
  N1       1.0000 0.96028  0.60083  0.32070  Biso   1.000  N
  N2       1.0000 0.03972  0.10083  0.17930  Biso   1.000  N
  N3       1.0000 0.03972  0.39917  0.67930  Biso   1.000  N
  N4       1.0000 0.96028  0.89917  0.82070  Biso   1.000  N
  N5       1.0000 0.17771  0.61099  0.22700  Biso   1.000  N
  N6       1.0000 0.82229  0.11099  0.27300  Biso   1.000  N
  N7       1.0000 0.82229  0.38901  0.77300  Biso   1.000  N
  N8       1.0000 0.17771  0.88901  0.72700  Biso   1.000  N
  C1       1.0000 0.12520  0.53234  0.20640  Biso   1.000  C
  C2       1.0000 0.87480  0.03234  0.29360  Biso   1.000  C
  C3       1.0000 0.87480  0.46766  0.79360  Biso   1.000  C
  C4       1.0000 0.12520  0.96766  0.70640  Biso   1.000  C
  C5       1.0000 0.00160  0.52933  0.26010  Biso   1.000  C
  C6       1.0000 0.99840  0.02933  0.23990  Biso   1.000  C
  C7       1.0000 0.99840  0.47067  0.73990  Biso   1.000  C
  C8       1.0000 0.00160  0.97067  0.76010  Biso   1.000  C
  H1       1.0000 0.95570  0.47900  0.25110  Biso   1.000  H
  H2       1.0000 0.04430  0.97900  0.24890  Biso   1.000  H
  H3       1.0000 0.04430  0.52100  0.74890  Biso   1.000  H
  H4       1.0000 0.95570  0.02100  0.75110  Biso   1.000  H
  C9       1.0000 0.64360  0.59140  0.44500  Biso   1.000  C
  C10      1.0000 0.35640  0.09140  0.05500  Biso   1.000  C
  C11      1.0000 0.35640  0.40860  0.55500  Biso   1.000  C
  C12      1.0000 0.64360  0.90860  0.94500  Biso   1.000  C
  H5       1.0000 0.57710  0.55480  0.43970  Biso   1.000  H
  H6       1.0000 0.42290  0.05480  0.06030  Biso   1.000  H
  H7       1.0000 0.42290  0.44520  0.56030  Biso   1.000  H
  H8       1.0000 0.57710  0.94520  0.93970  Biso   1.000  H
  C13      1.0000 0.84090  0.70569  0.44800  Biso   1.000  C
  C14      1.0000 0.15910  0.20569  0.05200  Biso   1.000  C
  C15      1.0000 0.15910  0.29431  0.55200  Biso   1.000  C
  C16      1.0000 0.84090  0.79431  0.94800  Biso   1.000  C
  C17      1.0000 0.84770  0.61943  0.38270  Biso   1.000  C
  C18      1.0000 0.15230  0.11943  0.11730  Biso   1.000  C
  C19      1.0000 0.15230  0.38057  0.61730  Biso   1.000  C
  C20      1.0000 0.84770  0.88057  0.88270  Biso   1.000  C
  C21      1.0000 0.18500  0.46119  0.14210  Biso   1.000  C
  C22      1.0000 0.81500  0.96119  0.35790  Biso   1.000  C
  C23      1.0000 0.81500  0.53881  0.85790  Biso   1.000  C
  C24      1.0000 0.18500  0.03881  0.64210  Biso   1.000  C
  H9       1.0000 0.14690  0.40780  0.12800  Biso   1.000  H
  H10      1.0000 0.85310  0.90780  0.37200  Biso   1.000  H
  H11      1.0000 0.85310  0.59220  0.87200  Biso   1.000  H
  H12      1.0000 0.14690  0.09220  0.62800  Biso   1.000  H
  C25      1.0000 0.63470  0.67460  0.51900  Biso   1.000  C
  C26      1.0000 0.36530  0.17460  0.98100  Biso   1.000  C
  C27      1.0000 0.36530  0.32540  0.48100  Biso   1.000  C
  C28      1.0000 0.63470  0.82540  0.01900  Biso   1.000  C
  C29      1.0000 0.73160  0.73052  0.52100  Biso   1.000  C
  C30      1.0000 0.26840  0.23052  0.97900  Biso   1.000  C
  C31      1.0000 0.26840  0.26948  0.47900  Biso   1.000  C
  C32      1.0000 0.73160  0.76948  0.02100  Biso   1.000  C
  H13      1.0000 0.72480  0.78560  0.57140  Biso   1.000  H
  H14      1.0000 0.27520  0.28560  0.92860  Biso   1.000  H
  H15      1.0000 0.27520  0.21440  0.42860  Biso   1.000  H
  H16      1.0000 0.72480  0.71440  0.07140  Biso   1.000  H
  C33      1.0000 0.29090  0.61967  0.18360  Biso   1.000  C
  C34      1.0000 0.70910  0.11967  0.31640  Biso   1.000  C
  C35      1.0000 0.70910  0.38033  0.81640  Biso   1.000  C
  C36      1.0000 0.29090  0.88033  0.68360  Biso   1.000  C
  H17      1.0000 0.32720  0.67380  0.19610  Biso   1.000  H
  H18      1.0000 0.67280  0.17380  0.30390  Biso   1.000  H
  H19      1.0000 0.67280  0.32620  0.80390  Biso   1.000  H
  H20      1.0000 0.32720  0.82620  0.69610  Biso   1.000  H
  C37      1.0000 0.74990  0.56305  0.37980  Biso   1.000  C
  C38      1.0000 0.25010  0.06305  0.12020  Biso   1.000  C
  C39      1.0000 0.25010  0.43695  0.62020  Biso   1.000  C
  C40      1.0000 0.74990  0.93695  0.87980  Biso   1.000  C
  H21      1.0000 0.75650  0.50700  0.33430  Biso   1.000  H
  H22      1.0000 0.24350  0.00700  0.16570  Biso   1.000  H
  H23      1.0000 0.24350  0.49300  0.66570  Biso   1.000  H
  H24      1.0000 0.75650  0.99300  0.83430  Biso   1.000  H
  C41      1.0000 0.35670  0.55140  0.12060  Biso   1.000  C
  C42      1.0000 0.64330  0.05140  0.37940  Biso   1.000  C
  C43      1.0000 0.64330  0.44860  0.87940  Biso   1.000  C
  C44      1.0000 0.35670  0.94860  0.62060  Biso   1.000  C
  H25      1.0000 0.43630  0.55910  0.09300  Biso   1.000  H
  H26      1.0000 0.56370  0.05910  0.40700  Biso   1.000  H
  H27      1.0000 0.56370  0.44090  0.90700  Biso   1.000  H
  H28      1.0000 0.43630  0.94090  0.59300  Biso   1.000  H
  C45      1.0000 0.30290  0.47187  0.09940  Biso   1.000  C
  C46      1.0000 0.69710  0.97187  0.40060  Biso   1.000  C
  C47      1.0000 0.69710  0.52813  0.90060  Biso   1.000  C
  C48      1.0000 0.30290  0.02813  0.59940  Biso   1.000  C
  H29      1.0000 0.34570  0.42520  0.05630  Biso   1.000  H
  H30      1.0000 0.65430  0.92520  0.44370  Biso   1.000  H
  H31      1.0000 0.65430  0.57480  0.94370  Biso   1.000  H
  H32      1.0000 0.34570  0.07480  0.55630  Biso   1.000  H
  C49      1.0000 0.51850  0.70360  0.59570  Biso   1.000  C
  C50      1.0000 0.48150  0.20360  0.90430  Biso   1.000  C
  C51      1.0000 0.48150  0.29640  0.40430  Biso   1.000  C
  C52      1.0000 0.51850  0.79640  0.09570  Biso   1.000  C
  H33      1.0000 0.53280  0.75510  0.66950  Biso   1.000  H
  H34      1.0000 0.46720  0.25510  0.83050  Biso   1.000  H
  H35      1.0000 0.46720  0.24490  0.33050  Biso   1.000  H
  H36      1.0000 0.53280  0.74490  0.16950  Biso   1.000  H
  H37      1.0000 0.48900  0.65880  0.67320  Biso   1.000  H
  H38      1.0000 0.51100  0.15880  0.82680  Biso   1.000  H
  H39      1.0000 0.51100  0.34120  0.32680  Biso   1.000  H
  H40      1.0000 0.48900  0.84120  0.17320  Biso   1.000  H
  H41      1.0000 0.45970  0.71550  0.49300  Biso   1.000  H
  H42      1.0000 0.54030  0.21550  0.00700  Biso   1.000  H
  H43      1.0000 0.54030  0.28450  0.50700  Biso   1.000  H
  H44      1.0000 0.45970  0.78450  0.99300  Biso   1.000  H
