data_image0
_cell_length_a       13.9851
_cell_length_b       9.7932
_cell_length_c       16.0191
_cell_angle_alpha    90
_cell_angle_beta     100.78
_cell_angle_gamma    90

_symmetry_space_group_name_H-M    "P 1"
_symmetry_int_tables_number       1

loop_
  _symmetry_equiv_pos_as_xyz
  'x, y, z'

loop_
  _atom_site_label
  _atom_site_occupancy
  _atom_site_fract_x
  _atom_site_fract_y
  _atom_site_fract_z
  _atom_site_thermal_displace_type
  _atom_site_B_iso_or_equiv
  _atom_site_type_symbol
  Cu1      1.0000 0.96126  0.64131  0.08463  Biso   1.000  Cu
  Cu2      1.0000 0.03874  0.14131  0.41537  Biso   1.000  Cu
  Cu3      1.0000 0.03874  0.35869  0.91537  Biso   1.000  Cu
  Cu4      1.0000 0.96126  0.85869  0.58463  Biso   1.000  Cu
  N1       1.0000 0.96130  0.48650  0.16974  Biso   1.000  N
  N2       1.0000 0.03870  0.98650  0.33026  Biso   1.000  N
  N3       1.0000 0.03870  0.51350  0.83026  Biso   1.000  N
  N4       1.0000 0.96130  0.01350  0.66974  Biso   1.000  N
  N5       1.0000 0.09180  0.58020  0.08719  Biso   1.000  N
  N6       1.0000 0.90820  0.08020  0.41281  Biso   1.000  N
  N7       1.0000 0.90820  0.41980  0.91281  Biso   1.000  N
  N8       1.0000 0.09180  0.91980  0.58719  Biso   1.000  N
  N9       1.0000 0.99110  0.76080  0.99715  Biso   1.000  N
  N10      1.0000 0.00890  0.26080  0.50285  Biso   1.000  N
  N11      1.0000 0.00890  0.23920  0.00285  Biso   1.000  N
  N12      1.0000 0.99110  0.73920  0.49715  Biso   1.000  N
  N13      1.0000 0.82530  0.71300  0.04339  Biso   1.000  N
  N14      1.0000 0.17470  0.21300  0.45661  Biso   1.000  N
  N15      1.0000 0.17470  0.28700  0.95661  Biso   1.000  N
  N16      1.0000 0.82530  0.78700  0.54339  Biso   1.000  N
  N17      1.0000 0.00560  0.28950  0.29624  Biso   1.000  N
  N18      1.0000 0.99440  0.78950  0.20376  Biso   1.000  N
  N19      1.0000 0.99440  0.71050  0.70376  Biso   1.000  N
  N20      1.0000 0.00560  0.21050  0.79624  Biso   1.000  N
  N21      1.0000 0.65310  0.84170  0.96700  Biso   1.000  N
  N22      1.0000 0.34690  0.34170  0.53300  Biso   1.000  N
  N23      1.0000 0.34690  0.15830  0.03300  Biso   1.000  N
  N24      1.0000 0.65310  0.65830  0.46700  Biso   1.000  N
  O1       1.0000 0.20780  0.42130  0.15045  Biso   1.000  O
  O2       1.0000 0.79220  0.92130  0.34955  Biso   1.000  O
  O3       1.0000 0.79220  0.57870  0.84955  Biso   1.000  O
  O4       1.0000 0.20780  0.07870  0.65045  Biso   1.000  O
  O5       1.0000 0.92040  0.91850  0.89580  Biso   1.000  O
  O6       1.0000 0.07960  0.41850  0.60420  Biso   1.000  O
  O7       1.0000 0.07960  0.08150  0.10420  Biso   1.000  O
  O8       1.0000 0.92040  0.58150  0.39580  Biso   1.000  O
  C1       1.0000 0.89630  0.44540  0.21510  Biso   1.000  C
  C2       1.0000 0.10370  0.94540  0.28490  Biso   1.000  C
  C3       1.0000 0.10370  0.55460  0.78490  Biso   1.000  C
  C4       1.0000 0.89630  0.05460  0.71510  Biso   1.000  C
  H1       1.0000 0.83410  0.48280  0.20410  Biso   1.000  H
  H2       1.0000 0.16590  0.98280  0.29590  Biso   1.000  H
  H3       1.0000 0.16590  0.51720  0.79590  Biso   1.000  H
  H4       1.0000 0.83410  0.01720  0.70410  Biso   1.000  H
  C5       1.0000 0.91890  0.34850  0.27820  Biso   1.000  C
  C6       1.0000 0.08110  0.84850  0.22180  Biso   1.000  C
  C7       1.0000 0.08110  0.65150  0.72180  Biso   1.000  C
  C8       1.0000 0.91890  0.15150  0.77820  Biso   1.000  C
  H5       1.0000 0.87160  0.32380  0.30920  Biso   1.000  H
  H6       1.0000 0.12840  0.82380  0.19080  Biso   1.000  H
  H7       1.0000 0.12840  0.67620  0.69080  Biso   1.000  H
  H8       1.0000 0.87160  0.17620  0.80920  Biso   1.000  H
  C9       1.0000 0.07090  0.32850  0.24980  Biso   1.000  C
  C10      1.0000 0.92910  0.82850  0.25020  Biso   1.000  C
  C11      1.0000 0.92910  0.67150  0.75020  Biso   1.000  C
  C12      1.0000 0.07090  0.17150  0.74980  Biso   1.000  C
  H9       1.0000 0.13220  0.28810  0.26000  Biso   1.000  H
  H10      1.0000 0.86780  0.78810  0.24000  Biso   1.000  H
  H11      1.0000 0.86780  0.71190  0.74000  Biso   1.000  H
  H12      1.0000 0.13220  0.21190  0.76000  Biso   1.000  H
  C13      1.0000 0.05040  0.42740  0.18690  Biso   1.000  C
  C14      1.0000 0.94960  0.92740  0.31310  Biso   1.000  C
  C15      1.0000 0.94960  0.57260  0.81310  Biso   1.000  C
  C16      1.0000 0.05040  0.07260  0.68690  Biso   1.000  C
  C17      1.0000 0.12630  0.47570  0.13880  Biso   1.000  C
  C18      1.0000 0.87370  0.97570  0.36120  Biso   1.000  C
  C19      1.0000 0.87370  0.52430  0.86120  Biso   1.000  C
  C20      1.0000 0.12630  0.02430  0.63880  Biso   1.000  C
  C21      1.0000 0.14320  0.65260  0.03330  Biso   1.000  C
  C22      1.0000 0.85680  0.15260  0.46670  Biso   1.000  C
  C23      1.0000 0.85680  0.34740  0.96670  Biso   1.000  C
  C24      1.0000 0.14320  0.84740  0.53330  Biso   1.000  C
  C25      1.0000 0.23860  0.63470  0.02520  Biso   1.000  C
  C26      1.0000 0.76140  0.13470  0.47480  Biso   1.000  C
  C27      1.0000 0.76140  0.36530  0.97480  Biso   1.000  C
  C28      1.0000 0.23860  0.86530  0.52520  Biso   1.000  C
  H13      1.0000 0.27630  0.56920  0.05820  Biso   1.000  H
  H14      1.0000 0.72370  0.06920  0.44180  Biso   1.000  H
  H15      1.0000 0.72370  0.43080  0.94180  Biso   1.000  H
  H16      1.0000 0.27630  0.93080  0.55820  Biso   1.000  H
  C29      1.0000 0.27990  0.71290  0.96830  Biso   1.000  C
  C30      1.0000 0.72010  0.21290  0.53170  Biso   1.000  C
  C31      1.0000 0.72010  0.28710  0.03170  Biso   1.000  C
  C32      1.0000 0.27990  0.78710  0.46830  Biso   1.000  C
  C33      1.0000 0.22240  0.81300  0.91870  Biso   1.000  C
  C34      1.0000 0.77760  0.31300  0.58130  Biso   1.000  C
  C35      1.0000 0.77760  0.18700  0.08130  Biso   1.000  C
  C36      1.0000 0.22240  0.68700  0.41870  Biso   1.000  C
  C37      1.0000 0.12920  0.83090  0.92790  Biso   1.000  C
  C38      1.0000 0.87080  0.33090  0.57210  Biso   1.000  C
  C39      1.0000 0.87080  0.16910  0.07210  Biso   1.000  C
  C40      1.0000 0.12920  0.66910  0.42790  Biso   1.000  C
  H17      1.0000 0.09220  0.89740  0.89530  Biso   1.000  H
  H18      1.0000 0.90780  0.39740  0.60470  Biso   1.000  H
  H19      1.0000 0.90780  0.10260  0.10470  Biso   1.000  H
  H20      1.0000 0.09220  0.60260  0.39530  Biso   1.000  H
  C41      1.0000 0.08580  0.75390  0.98430  Biso   1.000  C
  C42      1.0000 0.91420  0.25390  0.51570  Biso   1.000  C
  C43      1.0000 0.91420  0.24610  0.01570  Biso   1.000  C
  C44      1.0000 0.08580  0.74610  0.48430  Biso   1.000  C
  C45      1.0000 0.91840  0.83760  0.95380  Biso   1.000  C
  C46      1.0000 0.08160  0.33760  0.54620  Biso   1.000  C
  C47      1.0000 0.08160  0.16240  0.04620  Biso   1.000  C
  C48      1.0000 0.91840  0.66240  0.45380  Biso   1.000  C
  C49      1.0000 0.82470  0.80910  0.98240  Biso   1.000  C
  C50      1.0000 0.17530  0.30910  0.51760  Biso   1.000  C
  C51      1.0000 0.17530  0.19090  0.01760  Biso   1.000  C
  C52      1.0000 0.82470  0.69090  0.48240  Biso   1.000  C
  C53      1.0000 0.73910  0.87240  0.94670  Biso   1.000  C
  C54      1.0000 0.26090  0.37240  0.55330  Biso   1.000  C
  C55      1.0000 0.26090  0.12760  0.05330  Biso   1.000  C
  C56      1.0000 0.73910  0.62760  0.44670  Biso   1.000  C
  H21      1.0000 0.74110  0.94010  0.90630  Biso   1.000  H
  H22      1.0000 0.25890  0.44010  0.59370  Biso   1.000  H
  H23      1.0000 0.25890  0.05990  0.09370  Biso   1.000  H
  H24      1.0000 0.74110  0.55990  0.40630  Biso   1.000  H
  C57      1.0000 0.65540  0.74450  0.02480  Biso   1.000  C
  C58      1.0000 0.34460  0.24450  0.47520  Biso   1.000  C
  C59      1.0000 0.34460  0.25550  0.97520  Biso   1.000  C
  C60      1.0000 0.65540  0.75550  0.52480  Biso   1.000  C
  H25      1.0000 0.59720  0.71770  0.03990  Biso   1.000  H
  H26      1.0000 0.40280  0.21770  0.46010  Biso   1.000  H
  H27      1.0000 0.40280  0.28230  0.96010  Biso   1.000  H
  H28      1.0000 0.59720  0.78230  0.53990  Biso   1.000  H
  C61      1.0000 0.73980  0.68120  0.06340  Biso   1.000  C
  C62      1.0000 0.26020  0.18120  0.43660  Biso   1.000  C
  C63      1.0000 0.26020  0.31880  0.93660  Biso   1.000  C
  C64      1.0000 0.73980  0.81880  0.56340  Biso   1.000  C
  H29      1.0000 0.73720  0.61470  0.10440  Biso   1.000  H
  H30      1.0000 0.26280  0.11470  0.39560  Biso   1.000  H
  H31      1.0000 0.26280  0.38530  0.89560  Biso   1.000  H
  H32      1.0000 0.73720  0.88530  0.60440  Biso   1.000  H
  C65      1.0000 0.38570  0.67970  0.96190  Biso   1.000  C
  C66      1.0000 0.61430  0.17970  0.53810  Biso   1.000  C
  C67      1.0000 0.61430  0.32030  0.03810  Biso   1.000  C
  C68      1.0000 0.38570  0.82030  0.46190  Biso   1.000  C
  H33      1.0000 0.41080  0.61120  0.00310  Biso   1.000  H
  H34      1.0000 0.58920  0.11120  0.49690  Biso   1.000  H
  H35      1.0000 0.58920  0.38880  0.99690  Biso   1.000  H
  H36      1.0000 0.41080  0.88880  0.50310  Biso   1.000  H
  H37      1.0000 0.42460  0.76080  0.97260  Biso   1.000  H
  H38      1.0000 0.57540  0.26080  0.52740  Biso   1.000  H
  H39      1.0000 0.57540  0.23920  0.02740  Biso   1.000  H
  H40      1.0000 0.42460  0.73920  0.47260  Biso   1.000  H
  H41      1.0000 0.38790  0.64620  0.90590  Biso   1.000  H
  H42      1.0000 0.61210  0.14620  0.59410  Biso   1.000  H
  H43      1.0000 0.61210  0.35380  0.09410  Biso   1.000  H
  H44      1.0000 0.38790  0.85380  0.40590  Biso   1.000  H
  C69      1.0000 0.26440  0.89970  0.85570  Biso   1.000  C
  C70      1.0000 0.73560  0.39970  0.64430  Biso   1.000  C
  C71      1.0000 0.73560  0.10030  0.14430  Biso   1.000  C
  C72      1.0000 0.26440  0.60030  0.35570  Biso   1.000  C
  H45      1.0000 0.21960  0.97170  0.83490  Biso   1.000  H
  H46      1.0000 0.78040  0.47170  0.66510  Biso   1.000  H
  H47      1.0000 0.78040  0.02830  0.16510  Biso   1.000  H
  H48      1.0000 0.21960  0.52830  0.33490  Biso   1.000  H
  H49      1.0000 0.27490  0.84380  0.80900  Biso   1.000  H
  H50      1.0000 0.72510  0.34380  0.69100  Biso   1.000  H
  H51      1.0000 0.72510  0.15620  0.19100  Biso   1.000  H
  H52      1.0000 0.27490  0.65620  0.30900  Biso   1.000  H
  H53      1.0000 0.32510  0.93850  0.88330  Biso   1.000  H
  H54      1.0000 0.67490  0.43850  0.61670  Biso   1.000  H
  H55      1.0000 0.67490  0.06150  0.11670  Biso   1.000  H
  H56      1.0000 0.32510  0.56150  0.38330  Biso   1.000  H
  O9       1.0000 0.33870  0.96510  0.25220  Biso   1.000  O
  O10      1.0000 0.66130  0.46510  0.24780  Biso   1.000  O
  O11      1.0000 0.66130  0.03490  0.74780  Biso   1.000  O
  O12      1.0000 0.33870  0.53490  0.75220  Biso   1.000  O
  S1       1.0000 0.43209  0.89147  0.25290  Biso   1.000  S
  S2       1.0000 0.56791  0.39147  0.24710  Biso   1.000  S
  S3       1.0000 0.56791  0.10853  0.74710  Biso   1.000  S
  S4       1.0000 0.43209  0.60853  0.75290  Biso   1.000  S
  C73      1.0000 0.45650  0.89940  0.15030  Biso   1.000  C
  C74      1.0000 0.54350  0.39940  0.34970  Biso   1.000  C
  C75      1.0000 0.54350  0.10060  0.84970  Biso   1.000  C
  C76      1.0000 0.45650  0.60060  0.65030  Biso   1.000  C
  H57      1.0000 0.40620  0.85250  0.11190  Biso   1.000  H
  H58      1.0000 0.59380  0.35250  0.38810  Biso   1.000  H
  H59      1.0000 0.59380  0.14750  0.88810  Biso   1.000  H
  H60      1.0000 0.40620  0.64750  0.61190  Biso   1.000  H
  H61      1.0000 0.51810  0.85700  0.14920  Biso   1.000  H
  H62      1.0000 0.48190  0.35700  0.35080  Biso   1.000  H
  H63      1.0000 0.48190  0.14300  0.85080  Biso   1.000  H
  H64      1.0000 0.51810  0.64300  0.64920  Biso   1.000  H
  H65      1.0000 0.45860  0.99320  0.13320  Biso   1.000  H
  H66      1.0000 0.54140  0.49320  0.36680  Biso   1.000  H
  H67      1.0000 0.54140  0.00680  0.86680  Biso   1.000  H
  H68      1.0000 0.45860  0.50680  0.63320  Biso   1.000  H
  C77      1.0000 0.52740  0.99910  0.30180  Biso   1.000  C
  C78      1.0000 0.47260  0.49910  0.19820  Biso   1.000  C
  C79      1.0000 0.47260  0.00090  0.69820  Biso   1.000  C
  C80      1.0000 0.52740  0.50090  0.80180  Biso   1.000  C
  H69      1.0000 0.51820  0.08880  0.27740  Biso   1.000  H
  H70      1.0000 0.48180  0.58880  0.22260  Biso   1.000  H
  H71      1.0000 0.48180  0.91120  0.72260  Biso   1.000  H
  H72      1.0000 0.51820  0.41120  0.77740  Biso   1.000  H
  H73      1.0000 0.58850  0.96290  0.29300  Biso   1.000  H
  H74      1.0000 0.41150  0.46290  0.20700  Biso   1.000  H
  H75      1.0000 0.41150  0.03710  0.70700  Biso   1.000  H
  H76      1.0000 0.58850  0.53710  0.79300  Biso   1.000  H
  H77      1.0000 0.52740  0.00430  0.36160  Biso   1.000  H
  H78      1.0000 0.47260  0.50430  0.13840  Biso   1.000  H
  H79      1.0000 0.47260  0.99570  0.63840  Biso   1.000  H
  H80      1.0000 0.52740  0.49570  0.86160  Biso   1.000  H
  O13      1.0000 0.32880  0.24980  0.26460  Biso   1.000  O
  O14      1.0000 0.67120  0.74980  0.23540  Biso   1.000  O
  O15      1.0000 0.67120  0.75020  0.73540  Biso   1.000  O
  O16      1.0000 0.32880  0.25020  0.76460  Biso   1.000  O
  H81      1.0000 0.31000  0.16000  0.25300  Biso   1.000  H
  H82      1.0000 0.69000  0.66000  0.24700  Biso   1.000  H
  H83      1.0000 0.69000  0.84000  0.74700  Biso   1.000  H
  H84      1.0000 0.31000  0.34000  0.75300  Biso   1.000  H
  H85      1.0000 0.29000  0.30700  0.22600  Biso   1.000  H
  H86      1.0000 0.71000  0.80700  0.27400  Biso   1.000  H
  H87      1.0000 0.71000  0.69300  0.77400  Biso   1.000  H
  H88      1.0000 0.29000  0.19300  0.72600  Biso   1.000  H
