data_image0
_cell_length_a       15.788
_cell_length_b       8.0286
_cell_length_c       19.247
_cell_angle_alpha    90
_cell_angle_beta     95.835
_cell_angle_gamma    90

_symmetry_space_group_name_H-M    "P 1"
_symmetry_int_tables_number       1

loop_
  _symmetry_equiv_pos_as_xyz
  'x, y, z'

loop_
  _atom_site_label
  _atom_site_occupancy
  _atom_site_fract_x
  _atom_site_fract_y
  _atom_site_fract_z
  _atom_site_thermal_displace_type
  _atom_site_B_iso_or_equiv
  _atom_site_type_symbol
  Cu1      1.0000 0.70289  0.34282  0.77555  Biso   1.000  Cu
  Cu2      1.0000 0.70289  0.15718  0.27555  Biso   1.000  Cu
  Cu3      1.0000 0.29711  0.65718  0.22445  Biso   1.000  Cu
  Cu4      1.0000 0.29711  0.84282  0.72445  Biso   1.000  Cu
  Cl1      1.0000 0.80068  0.43720  0.86913  Biso   1.000  Cl
  Cl2      1.0000 0.80068  0.06280  0.36913  Biso   1.000  Cl
  Cl3      1.0000 0.19932  0.56280  0.13087  Biso   1.000  Cl
  Cl4      1.0000 0.19932  0.93720  0.63087  Biso   1.000  Cl
  Cl5      1.0000 0.55582  0.34760  0.76401  Biso   1.000  Cl
  Cl6      1.0000 0.55582  0.15240  0.26401  Biso   1.000  Cl
  Cl7      1.0000 0.44418  0.65240  0.23599  Biso   1.000  Cl
  Cl8      1.0000 0.44418  0.84760  0.73599  Biso   1.000  Cl
  N1       1.0000 0.66600  0.87490  0.85130  Biso   1.000  N
  N2       1.0000 0.66600  0.62510  0.35130  Biso   1.000  N
  N3       1.0000 0.33400  0.12510  0.14870  Biso   1.000  N
  N4       1.0000 0.33400  0.37490  0.64870  Biso   1.000  N
  N5       1.0000 0.70190  0.11650  0.81840  Biso   1.000  N
  N6       1.0000 0.70190  0.38350  0.31840  Biso   1.000  N
  N7       1.0000 0.29810  0.88350  0.18160  Biso   1.000  N
  N8       1.0000 0.29810  0.61650  0.68160  Biso   1.000  N
  N9       1.0000 0.74560  0.89410  0.88120  Biso   1.000  N
  N10      1.0000 0.74560  0.60590  0.38120  Biso   1.000  N
  N11      1.0000 0.25440  0.10590  0.11880  Biso   1.000  N
  N12      1.0000 0.25440  0.39410  0.61880  Biso   1.000  N
  N13      1.0000 0.70490  0.93760  0.22590  Biso   1.000  N
  N14      1.0000 0.70490  0.56240  0.72590  Biso   1.000  N
  N15      1.0000 0.29510  0.06240  0.77410  Biso   1.000  N
  N16      1.0000 0.29510  0.43760  0.27410  Biso   1.000  N
  N17      1.0000 0.75500  0.69580  0.18930  Biso   1.000  N
  N18      1.0000 0.75500  0.80420  0.68930  Biso   1.000  N
  N19      1.0000 0.24500  0.30420  0.81070  Biso   1.000  N
  N20      1.0000 0.24500  0.19580  0.31070  Biso   1.000  N
  N21      1.0000 0.67330  0.72180  0.16240  Biso   1.000  N
  N22      1.0000 0.67330  0.77820  0.66240  Biso   1.000  N
  N23      1.0000 0.32670  0.27820  0.83760  Biso   1.000  N
  N24      1.0000 0.32670  0.22180  0.33760  Biso   1.000  N
  N25      1.0000 0.89730  0.12880  0.66810  Biso   1.000  N
  N26      1.0000 0.89730  0.37120  0.16810  Biso   1.000  N
  N27      1.0000 0.10270  0.87120  0.33190  Biso   1.000  N
  N28      1.0000 0.10270  0.62880  0.83190  Biso   1.000  N
  N29      1.0000 0.93140  0.65930  0.54370  Biso   1.000  N
  N30      1.0000 0.93140  0.84070  0.04370  Biso   1.000  N
  N31      1.0000 0.06860  0.34070  0.45630  Biso   1.000  N
  N32      1.0000 0.06860  0.15930  0.95630  Biso   1.000  N
  O1       1.0000 0.70180  0.59950  0.99720  Biso   1.000  O
  O2       1.0000 0.70180  0.90050  0.49720  Biso   1.000  O
  O3       1.0000 0.29820  0.40050  0.00280  Biso   1.000  O
  O4       1.0000 0.29820  0.09950  0.50280  Biso   1.000  O
  H1       1.0000 0.72710  0.59580  0.96030  Biso   1.000  H
  H2       1.0000 0.72710  0.90420  0.46030  Biso   1.000  H
  H3       1.0000 0.27290  0.40420  0.03970  Biso   1.000  H
  H4       1.0000 0.27290  0.09580  0.53970  Biso   1.000  H
  O5       1.0000 0.77750  0.24930  0.69840  Biso   1.000  O
  O6       1.0000 0.77750  0.25070  0.19840  Biso   1.000  O
  O7       1.0000 0.22250  0.75070  0.30160  Biso   1.000  O
  O8       1.0000 0.22250  0.74930  0.80160  Biso   1.000  O
  O9       1.0000 0.01790  0.58790  0.63700  Biso   1.000  O
  O10      1.0000 0.01790  0.91210  0.13700  Biso   1.000  O
  O11      1.0000 0.98210  0.41210  0.36300  Biso   1.000  O
  O12      1.0000 0.98210  0.08790  0.86300  Biso   1.000  O
  C1       1.0000 0.62130  0.66240  0.99290  Biso   1.000  C
  C2       1.0000 0.62130  0.83760  0.49290  Biso   1.000  C
  C3       1.0000 0.37870  0.33760  0.00710  Biso   1.000  C
  C4       1.0000 0.37870  0.16240  0.50710  Biso   1.000  C
  C5       1.0000 0.57810  0.72050  0.93110  Biso   1.000  C
  C6       1.0000 0.57810  0.77950  0.43110  Biso   1.000  C
  C7       1.0000 0.42190  0.27950  0.06890  Biso   1.000  C
  C8       1.0000 0.42190  0.22050  0.56890  Biso   1.000  C
  C9       1.0000 0.49660  0.77720  0.93210  Biso   1.000  C
  C10      1.0000 0.49660  0.72280  0.43210  Biso   1.000  C
  C11      1.0000 0.50340  0.22280  0.06790  Biso   1.000  C
  C12      1.0000 0.50340  0.27720  0.56790  Biso   1.000  C
  H5       1.0000 0.46810  0.81590  0.89060  Biso   1.000  H
  H6       1.0000 0.46810  0.68410  0.39060  Biso   1.000  H
  H7       1.0000 0.53190  0.18410  0.10940  Biso   1.000  H
  H8       1.0000 0.53190  0.31590  0.60940  Biso   1.000  H
  C13      1.0000 0.45430  0.78020  0.99140  Biso   1.000  C
  C14      1.0000 0.45430  0.71980  0.49140  Biso   1.000  C
  C15      1.0000 0.54570  0.21980  0.00860  Biso   1.000  C
  C16      1.0000 0.54570  0.28020  0.50860  Biso   1.000  C
  C17      1.0000 0.36570  0.84110  0.98990  Biso   1.000  C
  C18      1.0000 0.36570  0.65890  0.48990  Biso   1.000  C
  C19      1.0000 0.63430  0.15890  0.01010  Biso   1.000  C
  C20      1.0000 0.63430  0.34110  0.51010  Biso   1.000  C
  H9       1.0000 0.33310  0.76460  0.01480  Biso   1.000  H
  H10      1.0000 0.33310  0.73540  0.51480  Biso   1.000  H
  H11      1.0000 0.66690  0.23540  0.98520  Biso   1.000  H
  H12      1.0000 0.66690  0.26460  0.48520  Biso   1.000  H
  H13      1.0000 0.34100  0.84940  0.94240  Biso   1.000  H
  H14      1.0000 0.34100  0.65060  0.44240  Biso   1.000  H
  H15      1.0000 0.65900  0.15060  0.05760  Biso   1.000  H
  H16      1.0000 0.65900  0.34940  0.55760  Biso   1.000  H
  H17      1.0000 0.36560  0.94870  0.01160  Biso   1.000  H
  H18      1.0000 0.36560  0.55130  0.51160  Biso   1.000  H
  H19      1.0000 0.63440  0.05130  0.98840  Biso   1.000  H
  H20      1.0000 0.63440  0.44870  0.48840  Biso   1.000  H
  C21      1.0000 0.61800  0.71980  0.86300  Biso   1.000  C
  C22      1.0000 0.61800  0.78020  0.36300  Biso   1.000  C
  C23      1.0000 0.38200  0.28020  0.13700  Biso   1.000  C
  C24      1.0000 0.38200  0.21980  0.63700  Biso   1.000  C
  H21      1.0000 0.65640  0.62550  0.86260  Biso   1.000  H
  H22      1.0000 0.65640  0.87450  0.36260  Biso   1.000  H
  H23      1.0000 0.34360  0.37450  0.13740  Biso   1.000  H
  H24      1.0000 0.34360  0.12550  0.63740  Biso   1.000  H
  H25      1.0000 0.57360  0.70550  0.82480  Biso   1.000  H
  H26      1.0000 0.57360  0.79450  0.32480  Biso   1.000  H
  H27      1.0000 0.42640  0.29450  0.17520  Biso   1.000  H
  H28      1.0000 0.42640  0.20550  0.67520  Biso   1.000  H
  C25      1.0000 0.64040  0.00770  0.81490  Biso   1.000  C
  C26      1.0000 0.64040  0.49230  0.31490  Biso   1.000  C
  C27      1.0000 0.35960  0.99230  0.18510  Biso   1.000  C
  C28      1.0000 0.35960  0.50770  0.68510  Biso   1.000  C
  H29      1.0000 0.58690  0.02170  0.79060  Biso   1.000  H
  H30      1.0000 0.58690  0.47830  0.29060  Biso   1.000  H
  H31      1.0000 0.41310  0.97830  0.20940  Biso   1.000  H
  H32      1.0000 0.41310  0.52170  0.70940  Biso   1.000  H
  C29      1.0000 0.76550  0.04150  0.86020  Biso   1.000  C
  C30      1.0000 0.76550  0.45850  0.36020  Biso   1.000  C
  C31      1.0000 0.23450  0.95850  0.13980  Biso   1.000  C
  C32      1.0000 0.23450  0.54150  0.63980  Biso   1.000  C
  H33      1.0000 0.81820  0.09100  0.87260  Biso   1.000  H
  H34      1.0000 0.81820  0.40900  0.37260  Biso   1.000  H
  H35      1.0000 0.18180  0.90900  0.12740  Biso   1.000  H
  H36      1.0000 0.18180  0.59100  0.62740  Biso   1.000  H
  C33      1.0000 0.77050  0.83150  0.22630  Biso   1.000  C
  C34      1.0000 0.77050  0.66850  0.72630  Biso   1.000  C
  C35      1.0000 0.22950  0.16850  0.77370  Biso   1.000  C
  C36      1.0000 0.22950  0.33150  0.27370  Biso   1.000  C
  H37      1.0000 0.82320  0.85260  0.25110  Biso   1.000  H
  H38      1.0000 0.82320  0.64740  0.75110  Biso   1.000  H
  H39      1.0000 0.17680  0.14740  0.74890  Biso   1.000  H
  H40      1.0000 0.17680  0.35260  0.24890  Biso   1.000  H
  C37      1.0000 0.64430  0.86290  0.18600  Biso   1.000  C
  C38      1.0000 0.64430  0.63710  0.68600  Biso   1.000  C
  C39      1.0000 0.35570  0.13710  0.81400  Biso   1.000  C
  C40      1.0000 0.35570  0.36290  0.31400  Biso   1.000  C
  H41      1.0000 0.58920  0.90320  0.17590  Biso   1.000  H
  H42      1.0000 0.58920  0.59680  0.67590  Biso   1.000  H
  H43      1.0000 0.41080  0.09680  0.82410  Biso   1.000  H
  H44      1.0000 0.41080  0.40320  0.32410  Biso   1.000  H
  C41      1.0000 0.62500  0.59010  0.12030  Biso   1.000  C
  C42      1.0000 0.62500  0.90990  0.62030  Biso   1.000  C
  C43      1.0000 0.37500  0.40990  0.87970  Biso   1.000  C
  C44      1.0000 0.37500  0.09010  0.37970  Biso   1.000  C
  H45      1.0000 0.66400  0.50250  0.10960  Biso   1.000  H
  H46      1.0000 0.66400  0.99750  0.60960  Biso   1.000  H
  H47      1.0000 0.33600  0.49750  0.89040  Biso   1.000  H
  H48      1.0000 0.33600  0.00250  0.39040  Biso   1.000  H
  H49      1.0000 0.58310  0.54150  0.14780  Biso   1.000  H
  H50      1.0000 0.58310  0.95850  0.64780  Biso   1.000  H
  H51      1.0000 0.41690  0.45850  0.85220  Biso   1.000  H
  H52      1.0000 0.41690  0.04150  0.35220  Biso   1.000  H
  C45      1.0000 0.58060  0.65860  0.05300  Biso   1.000  C
  C46      1.0000 0.58060  0.84140  0.55300  Biso   1.000  C
  C47      1.0000 0.41940  0.34140  0.94700  Biso   1.000  C
  C48      1.0000 0.41940  0.15860  0.44700  Biso   1.000  C
  C49      1.0000 0.49850  0.71950  0.05090  Biso   1.000  C
  C50      1.0000 0.49850  0.78050  0.55090  Biso   1.000  C
  C51      1.0000 0.50150  0.28050  0.94910  Biso   1.000  C
  C52      1.0000 0.50150  0.21950  0.44910  Biso   1.000  C
  H53      1.0000 0.47190  0.71920  0.09190  Biso   1.000  H
  H54      1.0000 0.47190  0.78080  0.59190  Biso   1.000  H
  H55      1.0000 0.52810  0.28080  0.90810  Biso   1.000  H
  H56      1.0000 0.52810  0.21920  0.40810  Biso   1.000  H
  C53      1.0000 0.85040  0.19670  0.71060  Biso   1.000  C
  C54      1.0000 0.85040  0.30330  0.21060  Biso   1.000  C
  C55      1.0000 0.14960  0.80330  0.28940  Biso   1.000  C
  C56      1.0000 0.14960  0.69670  0.78940  Biso   1.000  C
  H57      1.0000 0.87460  0.20760  0.75640  Biso   1.000  H
  H58      1.0000 0.87460  0.29240  0.25640  Biso   1.000  H
  H59      1.0000 0.12540  0.79240  0.24360  Biso   1.000  H
  H60      1.0000 0.12540  0.70760  0.74360  Biso   1.000  H
  C57      1.0000 0.98090  0.07000  0.68610  Biso   1.000  C
  C58      1.0000 0.98090  0.43000  0.18610  Biso   1.000  C
  C59      1.0000 0.01910  0.93000  0.31390  Biso   1.000  C
  C60      1.0000 0.01910  0.57000  0.81390  Biso   1.000  C
  H61      1.0000 0.01410  0.15450  0.71130  Biso   1.000  H
  H62      1.0000 0.01410  0.34550  0.21130  Biso   1.000  H
  H63      1.0000 0.98590  0.84550  0.28870  Biso   1.000  H
  H64      1.0000 0.98590  0.65450  0.78870  Biso   1.000  H
  H65      1.0000 0.00640  0.04170  0.64440  Biso   1.000  H
  H66      1.0000 0.00640  0.45830  0.14440  Biso   1.000  H
  H67      1.0000 0.99360  0.95830  0.35560  Biso   1.000  H
  H68      1.0000 0.99360  0.54170  0.85560  Biso   1.000  H
  H69      1.0000 0.97910  0.97230  0.71500  Biso   1.000  H
  H70      1.0000 0.97910  0.52770  0.21500  Biso   1.000  H
  H71      1.0000 0.02090  0.02770  0.28500  Biso   1.000  H
  H72      1.0000 0.02090  0.47230  0.78500  Biso   1.000  H
  C61      1.0000 0.86420  0.10270  0.59680  Biso   1.000  C
  C62      1.0000 0.86420  0.39730  0.09680  Biso   1.000  C
  C63      1.0000 0.13580  0.89730  0.40320  Biso   1.000  C
  C64      1.0000 0.13580  0.60270  0.90320  Biso   1.000  C
  H73      1.0000 0.80730  0.14600  0.58940  Biso   1.000  H
  H74      1.0000 0.80730  0.35400  0.08940  Biso   1.000  H
  H75      1.0000 0.19270  0.85400  0.41060  Biso   1.000  H
  H76      1.0000 0.19270  0.64600  0.91060  Biso   1.000  H
  H77      1.0000 0.86350  0.98560  0.58660  Biso   1.000  H
  H78      1.0000 0.86350  0.51440  0.08660  Biso   1.000  H
  H79      1.0000 0.13650  0.01440  0.41340  Biso   1.000  H
  H80      1.0000 0.13650  0.48560  0.91340  Biso   1.000  H
  H81      1.0000 0.89960  0.15910  0.56660  Biso   1.000  H
  H82      1.0000 0.89960  0.34090  0.06660  Biso   1.000  H
  H83      1.0000 0.10040  0.84090  0.43340  Biso   1.000  H
  H84      1.0000 0.10040  0.65910  0.93340  Biso   1.000  H
  C65      1.0000 0.99600  0.65700  0.58810  Biso   1.000  C
  C66      1.0000 0.99600  0.84300  0.08810  Biso   1.000  C
  C67      1.0000 0.00400  0.34300  0.41190  Biso   1.000  C
  C68      1.0000 0.00400  0.15700  0.91190  Biso   1.000  C
  H85      1.0000 0.03650  0.73450  0.57700  Biso   1.000  H
  H86      1.0000 0.03650  0.76550  0.07700  Biso   1.000  H
  H87      1.0000 0.96350  0.26550  0.42300  Biso   1.000  H
  H88      1.0000 0.96350  0.23450  0.92300  Biso   1.000  H
  C69      1.0000 0.85960  0.55710  0.55570  Biso   1.000  C
  C70      1.0000 0.85960  0.94290  0.05570  Biso   1.000  C
  C71      1.0000 0.14040  0.44290  0.44430  Biso   1.000  C
  C72      1.0000 0.14040  0.05710  0.94430  Biso   1.000  C
  H89      1.0000 0.86970  0.50480  0.60060  Biso   1.000  H
  H90      1.0000 0.86970  0.99520  0.10060  Biso   1.000  H
  H91      1.0000 0.13030  0.49520  0.39940  Biso   1.000  H
  H92      1.0000 0.13030  0.00480  0.89940  Biso   1.000  H
  H93      1.0000 0.85180  0.47310  0.52010  Biso   1.000  H
  H94      1.0000 0.85180  0.02690  0.02010  Biso   1.000  H
  H95      1.0000 0.14820  0.52690  0.47990  Biso   1.000  H
  H96      1.0000 0.14820  0.97310  0.97990  Biso   1.000  H
  H97      1.0000 0.80940  0.62500  0.55430  Biso   1.000  H
  H98      1.0000 0.80940  0.87500  0.05430  Biso   1.000  H
  H99      1.0000 0.19060  0.37500  0.44570  Biso   1.000  H
  H100     1.0000 0.19060  0.12500  0.94570  Biso   1.000  H
  C73      1.0000 0.92490  0.74850  0.48270  Biso   1.000  C
  C74      1.0000 0.92490  0.75150  0.98270  Biso   1.000  C
  C75      1.0000 0.07510  0.25150  0.51730  Biso   1.000  C
  C76      1.0000 0.07510  0.24850  0.01730  Biso   1.000  C
  H101     1.0000 0.97280  0.82210  0.48260  Biso   1.000  H
  H102     1.0000 0.97280  0.67790  0.98260  Biso   1.000  H
  H103     1.0000 0.02720  0.17790  0.51740  Biso   1.000  H
  H104     1.0000 0.02720  0.32210  0.01740  Biso   1.000  H
  H105     1.0000 0.87330  0.81260  0.47890  Biso   1.000  H
  H106     1.0000 0.87330  0.68740  0.97890  Biso   1.000  H
  H107     1.0000 0.12670  0.18740  0.52110  Biso   1.000  H
  H108     1.0000 0.12670  0.31260  0.02110  Biso   1.000  H
  H109     1.0000 0.92400  0.67340  0.44380  Biso   1.000  H
  H110     1.0000 0.92400  0.82660  0.94380  Biso   1.000  H
  H111     1.0000 0.07600  0.32660  0.55620  Biso   1.000  H
  H112     1.0000 0.07600  0.17340  0.05620  Biso   1.000  H
