data_image0
_cell_length_a       7.6053
_cell_length_b       9.7784
_cell_length_c       8.1617
_cell_angle_alpha    90
_cell_angle_beta     106.359
_cell_angle_gamma    90

_symmetry_space_group_name_H-M    "P 1"
_symmetry_int_tables_number       1

loop_
  _symmetry_equiv_pos_as_xyz
  'x, y, z'

loop_
  _atom_site_label
  _atom_site_occupancy
  _atom_site_fract_x
  _atom_site_fract_y
  _atom_site_fract_z
  _atom_site_thermal_displace_type
  _atom_site_B_iso_or_equiv
  _atom_site_type_symbol
  C1       1.0000 0.47210  0.33190  0.67890  Biso   1.000  C
  C2       1.0000 0.52790  0.83190  0.32110  Biso   1.000  C
  H1       1.0000 0.34880  0.29660  0.66040  Biso   1.000  H
  H2       1.0000 0.65120  0.79660  0.33960  Biso   1.000  H
  H3       1.0000 0.54540  0.26420  0.64100  Biso   1.000  H
  H4       1.0000 0.45460  0.76420  0.35900  Biso   1.000  H
  C3       1.0000 0.47010  0.46690  0.58580  Biso   1.000  C
  C4       1.0000 0.52990  0.96690  0.41420  Biso   1.000  C
  H5       1.0000 0.46510  0.45180  0.46710  Biso   1.000  H
  H6       1.0000 0.53490  0.95180  0.53290  Biso   1.000  H
  H7       1.0000 0.36640  0.52270  0.59110  Biso   1.000  H
  H8       1.0000 0.63360  0.02270  0.40890  Biso   1.000  H
  C5       1.0000 0.64980  0.53370  0.68230  Biso   1.000  C
  C6       1.0000 0.35020  0.03370  0.31770  Biso   1.000  C
  H9       1.0000 0.64320  0.63240  0.66950  Biso   1.000  H
  H10      1.0000 0.35680  0.13240  0.33050  Biso   1.000  H
  H11      1.0000 0.75060  0.49970  0.64290  Biso   1.000  H
  H12      1.0000 0.24940  0.99970  0.35710  Biso   1.000  H
  C7       1.0000 0.67180  0.49190  0.86750  Biso   1.000  C
  C8       1.0000 0.32820  0.99190  0.13250  Biso   1.000  C
  H13      1.0000 0.80040  0.46900  0.92230  Biso   1.000  H
  H14      1.0000 0.19960  0.96900  0.07770  Biso   1.000  H
  C9       1.0000 0.61250  0.60450  0.96810  Biso   1.000  C
  C10      1.0000 0.38750  0.10450  0.03190  Biso   1.000  C
  N1       1.0000 0.55600  0.36750  0.86340  Biso   1.000  N
  N2       1.0000 0.44400  0.86750  0.13660  Biso   1.000  N
  H15      1.0000 0.63020  0.29740  0.91420  Biso   1.000  H
  H16      1.0000 0.36980  0.79740  0.08580  Biso   1.000  H
  O1       1.0000 0.47170  0.58730  0.01830  Biso   1.000  O
  O2       1.0000 0.52830  0.08730  0.98170  Biso   1.000  O
  O3       1.0000 0.70760  0.71340  0.99120  Biso   1.000  O
  O4       1.0000 0.29240  0.21340  0.00880  Biso   1.000  O
  O5       1.0000 0.93540  0.27380  0.20250  Biso   1.000  O
  O6       1.0000 0.06460  0.77380  0.79750  Biso   1.000  O
  O7       1.0000 0.91240  0.25120  0.47810  Biso   1.000  O
  O8       1.0000 0.08760  0.75120  0.52190  Biso   1.000  O
  O9       1.0000 0.67210  0.32960  0.27440  Biso   1.000  O
  O10      1.0000 0.32790  0.82960  0.72560  Biso   1.000  O
  O11      1.0000 0.92360  0.46510  0.36540  Biso   1.000  O
  O12      1.0000 0.07640  0.96510  0.63460  Biso   1.000  O
  O13      1.0000 0.23820  0.44500  0.15820  Biso   1.000  O
  O14      1.0000 0.76180  0.94500  0.84180  Biso   1.000  O
  H17      1.0000 0.24590  0.53190  0.20620  Biso   1.000  H
  H18      1.0000 0.75410  0.03190  0.79380  Biso   1.000  H
  H19      1.0000 0.16520  0.37860  0.18790  Biso   1.000  H
  H20      1.0000 0.83480  0.87860  0.81210  Biso   1.000  H
  O15      1.0000 0.11700  0.47100  0.78250  Biso   1.000  O
  O16      1.0000 0.88300  0.97100  0.21750  Biso   1.000  O
  O17      1.0000 0.90020  0.19250  0.82260  Biso   1.000  O
  O18      1.0000 0.09980  0.69250  0.17740  Biso   1.000  O
  Cl1      1.0000 0.86441  0.33261  0.33279  Biso   1.000  Cl
  Cl2      1.0000 0.13559  0.83261  0.66721  Biso   1.000  Cl
  Cu1      1.0000 0.37630  0.40188  0.99398  Biso   1.000  Cu
  Cu2      1.0000 0.62370  0.90188  0.00602  Biso   1.000  Cu
