data_image0
_cell_length_a       10.2166
_cell_length_b       10.9553
_cell_length_c       15.0297
_cell_angle_alpha    81.8367
_cell_angle_beta     89.893
_cell_angle_gamma    72.0195

_symmetry_space_group_name_H-M    "P 1"
_symmetry_int_tables_number       1

loop_
  _symmetry_equiv_pos_as_xyz
  'x, y, z'

loop_
  _atom_site_label
  _atom_site_occupancy
  _atom_site_fract_x
  _atom_site_fract_y
  _atom_site_fract_z
  _atom_site_thermal_displace_type
  _atom_site_B_iso_or_equiv
  _atom_site_type_symbol
  Cu1      1.0000 0.50000  0.00000  0.50000  Biso   1.000  Cu
  Cu2      1.0000 0.00000  0.50000  0.00000  Biso   1.000  Cu
  O1       1.0000 0.97222  0.78675  0.54053  Biso   1.000  O
  O2       1.0000 0.02778  0.21325  0.45947  Biso   1.000  O
  N1       1.0000 0.33189  0.96335  0.45970  Biso   1.000  N
  N2       1.0000 0.66811  0.03665  0.54030  Biso   1.000  N
  N3       1.0000 0.17070  0.71088  0.62918  Biso   1.000  N
  N4       1.0000 0.82930  0.28912  0.37082  Biso   1.000  N
  H1       1.0000 0.24700  0.70200  0.62850  Biso   1.000  H
  H2       1.0000 0.75300  0.29800  0.37150  Biso   1.000  H
  N5       1.0000 0.05403  0.55057  0.87482  Biso   1.000  N
  N6       1.0000 0.94597  0.44943  0.12518  Biso   1.000  N
  C1       1.0000 0.28080  0.00110  0.37423  Biso   1.000  C
  C2       1.0000 0.71920  0.99890  0.62577  Biso   1.000  C
  H3       1.0000 0.32360  0.04970  0.33340  Biso   1.000  H
  H4       1.0000 0.67640  0.95030  0.66660  Biso   1.000  H
  C3       1.0000 0.16820  0.97160  0.34384  Biso   1.000  C
  C4       1.0000 0.83180  0.02840  0.65616  Biso   1.000  C
  H5       1.0000 0.13340  0.00100  0.28340  Biso   1.000  H
  H6       1.0000 0.86660  0.99900  0.71660  Biso   1.000  H
  C5       1.0000 0.10690  0.89890  0.40243  Biso   1.000  C
  C6       1.0000 0.89310  0.10110  0.59757  Biso   1.000  C
  H7       1.0000 0.02940  0.87760  0.38290  Biso   1.000  H
  H8       1.0000 0.97060  0.12240  0.61710  Biso   1.000  H
  C7       1.0000 0.16050  0.85720  0.49051  Biso   1.000  C
  C8       1.0000 0.83950  0.14280  0.50949  Biso   1.000  C
  C9       1.0000 0.27190  0.89360  0.51679  Biso   1.000  C
  C10      1.0000 0.72810  0.10640  0.48321  Biso   1.000  C
  H9       1.0000 0.30680  0.86810  0.57740  Biso   1.000  H
  H10      1.0000 0.69320  0.13190  0.42260  Biso   1.000  H
  C11      1.0000 0.09120  0.78190  0.55486  Biso   1.000  C
  C12      1.0000 0.90880  0.21810  0.44514  Biso   1.000  C
  C13      1.0000 0.12540  0.65590  0.70814  Biso   1.000  C
  C14      1.0000 0.87460  0.34410  0.29186  Biso   1.000  C
  C15      1.0000 0.98860  0.66820  0.72568  Biso   1.000  C
  C16      1.0000 0.01140  0.33180  0.27432  Biso   1.000  C
  H11      1.0000 0.91730  0.71190  0.68120  Biso   1.000  H
  H12      1.0000 0.08270  0.28810  0.31880  Biso   1.000  H
  C17      1.0000 0.95860  0.61540  0.80937  Biso   1.000  C
  C18      1.0000 0.04140  0.38460  0.19063  Biso   1.000  C
  H13      1.0000 0.86470  0.62570  0.82130  Biso   1.000  H
  H14      1.0000 0.13530  0.37430  0.17870  Biso   1.000  H
  C19      1.0000 0.22600  0.58530  0.77510  Biso   1.000  C
  C20      1.0000 0.77400  0.41470  0.22490  Biso   1.000  C
  H15      1.0000 0.32080  0.57250  0.76480  Biso   1.000  H
  H16      1.0000 0.67920  0.42750  0.23520  Biso   1.000  H
  C21      1.0000 0.18640  0.53460  0.85587  Biso   1.000  C
  C22      1.0000 0.81360  0.46540  0.14413  Biso   1.000  C
  H17      1.0000 0.25590  0.48610  0.90040  Biso   1.000  H
  H18      1.0000 0.74410  0.51390  0.09960  Biso   1.000  H
  S1       1.0000 0.40048  0.34264  0.36665  Biso   1.000  S
  S2       1.0000 0.59952  0.65736  0.63335  Biso   1.000  S
  O3       1.0000 0.40668  0.21604  0.41248  Biso   1.000  O
  O4       1.0000 0.59332  0.78396  0.58752  Biso   1.000  O
  O5       1.0000 0.53247  0.36268  0.35213  Biso   1.000  O
  O6       1.0000 0.46753  0.63732  0.64787  Biso   1.000  O
  O7       1.0000 0.30340  0.39460  0.29241  Biso   1.000  O
  O8       1.0000 0.69660  0.60540  0.70759  Biso   1.000  O
  C23      1.0000 0.32800  0.44700  0.45260  Biso   1.000  C
  C24      1.0000 0.67200  0.55300  0.54740  Biso   1.000  C
  F1       1.0000 0.31840  0.56970  0.42180  Biso   1.000  F
  F2       1.0000 0.68160  0.43030  0.57820  Biso   1.000  F
  F3       1.0000 0.20060  0.44180  0.46910  Biso   1.000  F
  F4       1.0000 0.79940  0.55820  0.53090  Biso   1.000  F
  F5       1.0000 0.40440  0.40930  0.52727  Biso   1.000  F
  F6       1.0000 0.59560  0.59070  0.47273  Biso   1.000  F
  S3       1.0000 0.26019  0.19772  0.98533  Biso   1.000  S
  S4       1.0000 0.73981  0.80228  0.01467  Biso   1.000  S
  O9       1.0000 0.12974  0.28542  0.00582  Biso   1.000  O
  O10      1.0000 0.87026  0.71458  0.99418  Biso   1.000  O
  O11      1.0000 0.36774  0.25564  0.96674  Biso   1.000  O
  O12      1.0000 0.63226  0.74436  0.03326  Biso   1.000  O
  O13      1.0000 0.24750  0.10990  0.92626  Biso   1.000  O
  O14      1.0000 0.75250  0.89010  0.07374  Biso   1.000  O
  C25      1.0000 0.31610  0.09410  0.09270  Biso   1.000  C
  C26      1.0000 0.68390  0.90590  0.90730  Biso   1.000  C
  F7       1.0000 0.43473  0.00233  0.08895  Biso   1.000  F
  F8       1.0000 0.56527  0.99767  0.91105  Biso   1.000  F
  F9       1.0000 0.22210  0.03580  0.11963  Biso   1.000  F
  F10      1.0000 0.77790  0.96420  0.88037  Biso   1.000  F
  F11      1.0000 0.33130  0.16180  0.15702  Biso   1.000  F
  F12      1.0000 0.66870  0.83820  0.84298  Biso   1.000  F
  O15      1.0000 0.58573  0.93201  0.39315  Biso   1.000  O
  O16      1.0000 0.41427  0.06799  0.60685  Biso   1.000  O
  N7       1.0000 0.73420  0.76770  0.33578  Biso   1.000  N
  N8       1.0000 0.26580  0.23230  0.66422  Biso   1.000  N
  C27      1.0000 0.70170  0.84820  0.39451  Biso   1.000  C
  C28      1.0000 0.29830  0.15180  0.60549  Biso   1.000  C
  H19      1.0000 0.76850  0.84300  0.44000  Biso   1.000  H
  H20      1.0000 0.23150  0.15700  0.56000  Biso   1.000  H
  C29      1.0000 0.63340  0.76900  0.26630  Biso   1.000  C
  C30      1.0000 0.36660  0.23100  0.73370  Biso   1.000  C
  H21      1.0000 0.64060  0.67960  0.25920  Biso   1.000  H
  H22      1.0000 0.35940  0.32040  0.74080  Biso   1.000  H
  H23      1.0000 0.65170  0.81480  0.20920  Biso   1.000  H
  H24      1.0000 0.34830  0.18520  0.79080  Biso   1.000  H
  H25      1.0000 0.54040  0.81330  0.28400  Biso   1.000  H
  H26      1.0000 0.45960  0.18670  0.71600  Biso   1.000  H
  C31      1.0000 0.87400  0.68120  0.33310  Biso   1.000  C
  C32      1.0000 0.12600  0.31880  0.66690  Biso   1.000  C
  H27      1.0000 0.92890  0.68620  0.38500  Biso   1.000  H
  H28      1.0000 0.07110  0.31380  0.61500  Biso   1.000  H
  H29      1.0000 0.91490  0.70740  0.27750  Biso   1.000  H
  H30      1.0000 0.08510  0.29260  0.72250  Biso   1.000  H
  H31      1.0000 0.87250  0.59190  0.33480  Biso   1.000  H
  H32      1.0000 0.12750  0.40810  0.66520  Biso   1.000  H
  O17      1.0000 0.16113  0.54146  0.04799  Biso   1.000  O
  O18      1.0000 0.83887  0.45854  0.95201  Biso   1.000  O
  N9       1.0000 0.26310  0.64250  0.13370  Biso   1.000  N
  N10      1.0000 0.73690  0.35750  0.86630  Biso   1.000  N
  C33      1.0000 0.15450  0.62570  0.09699  Biso   1.000  C
  C34      1.0000 0.84550  0.37430  0.90301  Biso   1.000  C
  H33      1.0000 0.06610  0.68080  0.10840  Biso   1.000  H
  H34      1.0000 0.93390  0.31920  0.89160  Biso   1.000  H
  C35      1.0000 0.40120  0.55900  0.12190  Biso   1.000  C
  C36      1.0000 0.59880  0.44100  0.87810  Biso   1.000  C
  H35      1.0000 0.44190  0.51050  0.18040  Biso   1.000  H
  H36      1.0000 0.55810  0.48950  0.81960  Biso   1.000  H
  H37      1.0000 0.45770  0.61210  0.09660  Biso   1.000  H
  H38      1.0000 0.54230  0.38790  0.90340  Biso   1.000  H
  H39      1.0000 0.39720  0.49800  0.08090  Biso   1.000  H
  H40      1.0000 0.60280  0.50200  0.91910  Biso   1.000  H
  C37      1.0000 0.24790  0.73710  0.19620  Biso   1.000  C
  C38      1.0000 0.75210  0.26290  0.80380  Biso   1.000  C
  H41      1.0000 0.15100  0.78970  0.19630  Biso   1.000  H
  H42      1.0000 0.84900  0.21030  0.80370  Biso   1.000  H
  H43      1.0000 0.30390  0.79370  0.17730  Biso   1.000  H
  H44      1.0000 0.69610  0.20630  0.82270  Biso   1.000  H
  H45      1.0000 0.27890  0.69080  0.25690  Biso   1.000  H
  H46      1.0000 0.72110  0.30920  0.74310  Biso   1.000  H
  O19      1.0000 0.84640  0.00930  0.28075  Biso   1.000  O
  O20      1.0000 0.15360  0.99070  0.71925  Biso   1.000  O
  N11      1.0000 0.76270  0.13680  0.14763  Biso   1.000  N
  N12      1.0000 0.23730  0.86320  0.85237  Biso   1.000  N
  C39      1.0000 0.75080  0.07890  0.22953  Biso   1.000  C
  C40      1.0000 0.24920  0.92110  0.77047  Biso   1.000  C
  H47      1.0000 0.66030  0.09240  0.25040  Biso   1.000  H
  H48      1.0000 0.33970  0.90760  0.74960  Biso   1.000  H
  C41      1.0000 0.89480  0.11400  0.10680  Biso   1.000  C
  C42      1.0000 0.10520  0.88600  0.89320  Biso   1.000  C
  H49      1.0000 0.96500  0.04620  0.14590  Biso   1.000  H
  H50      1.0000 0.03500  0.95380  0.85410  Biso   1.000  H
  H51      1.0000 0.91980  0.19420  0.09850  Biso   1.000  H
  H52      1.0000 0.08020  0.80580  0.90150  Biso   1.000  H
  H53      1.0000 0.88900  0.08600  0.04820  Biso   1.000  H
  H54      1.0000 0.11100  0.91400  0.95180  Biso   1.000  H
  C43      1.0000 0.64200  0.21310  0.09140  Biso   1.000  C
  C44      1.0000 0.35800  0.78690  0.90860  Biso   1.000  C
  H55      1.0000 0.63440  0.16910  0.04020  Biso   1.000  H
  H56      1.0000 0.36560  0.83090  0.95980  Biso   1.000  H
  H57      1.0000 0.65030  0.29890  0.06940  Biso   1.000  H
  H58      1.0000 0.34970  0.70110  0.93060  Biso   1.000  H
  H59      1.0000 0.55960  0.22300  0.12670  Biso   1.000  H
  H60      1.0000 0.44040  0.77700  0.87330  Biso   1.000  H
