data_image0
_cell_length_a       7.0433
_cell_length_b       10.4671
_cell_length_c       10.9191
_cell_angle_alpha    103.311
_cell_angle_beta     108.174
_cell_angle_gamma    99.807

_symmetry_space_group_name_H-M    "P 1"
_symmetry_int_tables_number       1

loop_
  _symmetry_equiv_pos_as_xyz
  'x, y, z'

loop_
  _atom_site_label
  _atom_site_occupancy
  _atom_site_fract_x
  _atom_site_fract_y
  _atom_site_fract_z
  _atom_site_thermal_displace_type
  _atom_site_B_iso_or_equiv
  _atom_site_type_symbol
  As1      1.0000 0.84368  0.76892  0.04651  Biso   1.000  As
  As2      1.0000 0.15632  0.23108  0.95349  Biso   1.000  As
  Cu1      1.0000 0.53573  0.82892  0.81581  Biso   1.000  Cu
  Cu2      1.0000 0.46427  0.17108  0.18419  Biso   1.000  Cu
  V1       1.0000 0.91800  0.08815  0.11303  Biso   1.000  V
  V2       1.0000 0.08200  0.91185  0.88697  Biso   1.000  V
  O1       1.0000 0.87060  0.65710  0.13790  Biso   1.000  O
  O2       1.0000 0.12940  0.34290  0.86210  Biso   1.000  O
  O3       1.0000 0.89530  0.91890  0.16400  Biso   1.000  O
  O4       1.0000 0.10470  0.08110  0.83600  Biso   1.000  O
  O5       1.0000 0.01950  0.76640  0.96910  Biso   1.000  O
  O6       1.0000 0.98050  0.23360  0.03090  Biso   1.000  O
  O7       1.0000 0.60090  0.71570  0.93050  Biso   1.000  O
  O8       1.0000 0.39910  0.28430  0.06950  Biso   1.000  O
  O9       1.0000 0.07240  0.18130  0.27300  Biso   1.000  O
  O10      1.0000 0.92760  0.81870  0.72700  Biso   1.000  O
  O11      1.0000 0.81270  0.95630  0.92200  Biso   1.000  O
  O12      1.0000 0.18730  0.04370  0.07800  Biso   1.000  O
  O13      1.0000 0.31260  0.88770  0.90230  Biso   1.000  O
  O14      1.0000 0.68740  0.11230  0.09770  Biso   1.000  O
  O15      1.0000 0.71880  0.40380  0.00320  Biso   1.000  O
  O16      1.0000 0.28120  0.59620  0.99680  Biso   1.000  O
  N1       1.0000 0.44980  0.93980  0.69730  Biso   1.000  N
  N2       1.0000 0.55020  0.06020  0.30270  Biso   1.000  N
  N3       1.0000 0.37150  0.67670  0.64710  Biso   1.000  N
  N4       1.0000 0.62850  0.32330  0.35290  Biso   1.000  N
  C1       1.0000 0.48880  0.07500  0.73770  Biso   1.000  C
  C2       1.0000 0.51120  0.92500  0.26230  Biso   1.000  C
  H1       1.0000 0.57830  0.12320  0.82560  Biso   1.000  H
  H2       1.0000 0.42170  0.87680  0.17440  Biso   1.000  H
  C3       1.0000 0.39980  0.14580  0.65250  Biso   1.000  C
  C4       1.0000 0.60020  0.85420  0.34750  Biso   1.000  C
  H3       1.0000 0.42960  0.24020  0.68290  Biso   1.000  H
  H4       1.0000 0.57040  0.75980  0.31710  Biso   1.000  H
  C5       1.0000 0.26720  0.07500  0.52280  Biso   1.000  C
  C6       1.0000 0.73280  0.92500  0.47720  Biso   1.000  C
  H5       1.0000 0.20510  0.12090  0.46450  Biso   1.000  H
  H6       1.0000 0.79490  0.87910  0.53550  Biso   1.000  H
  C7       1.0000 0.22610  0.93260  0.47890  Biso   1.000  C
  C8       1.0000 0.77390  0.06740  0.52110  Biso   1.000  C
  H7       1.0000 0.13760  0.88300  0.39110  Biso   1.000  H
  H8       1.0000 0.86240  0.11700  0.60890  Biso   1.000  H
  C9       1.0000 0.31970  0.86710  0.56890  Biso   1.000  C
  C10      1.0000 0.68030  0.13290  0.43110  Biso   1.000  C
  C11      1.0000 0.28920  0.71860  0.53720  Biso   1.000  C
  C12      1.0000 0.71080  0.28140  0.46280  Biso   1.000  C
  C13      1.0000 0.18910  0.62840  0.40950  Biso   1.000  C
  C14      1.0000 0.81090  0.37160  0.59050  Biso   1.000  C
  H9       1.0000 0.13680  0.65950  0.33580  Biso   1.000  H
  H10      1.0000 0.86320  0.34050  0.66420  Biso   1.000  H
  C15      1.0000 0.16630  0.48770  0.39130  Biso   1.000  C
  C16      1.0000 0.83370  0.51230  0.60870  Biso   1.000  C
  H11      1.0000 0.09760  0.42410  0.30620  Biso   1.000  H
  H12      1.0000 0.90240  0.57590  0.69380  Biso   1.000  H
  C17      1.0000 0.24900  0.44800  0.50370  Biso   1.000  C
  C18      1.0000 0.75100  0.55200  0.49630  Biso   1.000  C
  H13      1.0000 0.23660  0.35620  0.49520  Biso   1.000  H
  H14      1.0000 0.76340  0.64380  0.50480  Biso   1.000  H
  C19      1.0000 0.35070  0.54390  0.62940  Biso   1.000  C
  C20      1.0000 0.64930  0.45610  0.37060  Biso   1.000  C
  H15      1.0000 0.40630  0.51500  0.70410  Biso   1.000  H
  H16      1.0000 0.59370  0.48500  0.29590  Biso   1.000  H
  H17      1.0000 0.82500  0.58700  0.09200  Biso   1.000  H
  H18      1.0000 0.17500  0.41300  0.90800  Biso   1.000  H
