data_image0
_cell_length_a       8.899
_cell_length_b       9.728
_cell_length_c       12.736
_cell_angle_alpha    77.685
_cell_angle_beta     71.179
_cell_angle_gamma    68.753

_symmetry_space_group_name_H-M    "P 1"
_symmetry_int_tables_number       1

loop_
  _symmetry_equiv_pos_as_xyz
  'x, y, z'

loop_
  _atom_site_label
  _atom_site_occupancy
  _atom_site_fract_x
  _atom_site_fract_y
  _atom_site_fract_z
  _atom_site_thermal_displace_type
  _atom_site_B_iso_or_equiv
  _atom_site_type_symbol
  Cu1      1.0000 0.00000  0.50000  0.00000  Biso   1.000  Cu
  N1       1.0000 0.19120  0.35180  0.91340  Biso   1.000  N
  N2       1.0000 0.80880  0.64820  0.08660  Biso   1.000  N
  S1       1.0000 0.39280  0.15230  0.76340  Biso   1.000  S
  S2       1.0000 0.60720  0.84770  0.23660  Biso   1.000  S
  C1       1.0000 0.27370  0.27270  0.85040  Biso   1.000  C
  C2       1.0000 0.72630  0.72730  0.14960  Biso   1.000  C
  O1       1.0000 0.79530  0.98760  0.47220  Biso   1.000  O
  O2       1.0000 0.20470  0.01240  0.52780  Biso   1.000  O
  N3       1.0000 0.00310  0.35530  0.14150  Biso   1.000  N
  N4       1.0000 0.99690  0.64470  0.85850  Biso   1.000  N
  N5       1.0000 0.71310  0.18660  0.34890  Biso   1.000  N
  N6       1.0000 0.28690  0.81340  0.65110  Biso   1.000  N
  H1       1.0000 0.62670  0.24590  0.32810  Biso   1.000  H
  H2       1.0000 0.37330  0.75410  0.67190  Biso   1.000  H
  C3       1.0000 0.68730  0.07360  0.43010  Biso   1.000  C
  C4       1.0000 0.31270  0.92640  0.56990  Biso   1.000  C
  C5       1.0000 0.50830  0.07170  0.46530  Biso   1.000  C
  C6       1.0000 0.49170  0.92830  0.53470  Biso   1.000  C
  H3       1.0000 0.47060  0.08430  0.39940  Biso   1.000  H
  H4       1.0000 0.52940  0.91570  0.60060  Biso   1.000  H
  H5       1.0000 0.43680  0.15420  0.50830  Biso   1.000  H
  H6       1.0000 0.56320  0.84580  0.49170  Biso   1.000  H
  C7       1.0000 0.86370  0.21660  0.29600  Biso   1.000  C
  C8       1.0000 0.13630  0.78340  0.70400  Biso   1.000  C
  C9       1.0000 0.86660  0.31740  0.20070  Biso   1.000  C
  C10      1.0000 0.13340  0.68260  0.79930  Biso   1.000  C
  H7       1.0000 0.76960  0.36060  0.17690  Biso   1.000  H
  H8       1.0000 0.23040  0.63940  0.82310  Biso   1.000  H
  C11      1.0000 0.14210  0.29450  0.17680  Biso   1.000  C
  C12      1.0000 0.85790  0.70550  0.82320  Biso   1.000  C
  H9       1.0000 0.23730  0.32050  0.13630  Biso   1.000  H
  H10      1.0000 0.76270  0.67950  0.86370  Biso   1.000  H
  C13      1.0000 0.14820  0.19510  0.27080  Biso   1.000  C
  C14      1.0000 0.85180  0.80490  0.72920  Biso   1.000  C
  H11      1.0000 0.24670  0.15500  0.29290  Biso   1.000  H
  H12      1.0000 0.75330  0.84500  0.70710  Biso   1.000  H
  C15      1.0000 0.00960  0.15420  0.33280  Biso   1.000  C
  C16      1.0000 0.99040  0.84580  0.66720  Biso   1.000  C
  H13      1.0000 0.01250  0.08740  0.39690  Biso   1.000  H
  H14      1.0000 0.98750  0.91260  0.60310  Biso   1.000  H
  O3       1.0000 0.80280  0.40360  0.96240  Biso   1.000  O
  O4       1.0000 0.19720  0.59640  0.03760  Biso   1.000  O
  N7       1.0000 0.74900  0.19820  0.95400  Biso   1.000  N
  N8       1.0000 0.25100  0.80180  0.04600  Biso   1.000  N
  C17      1.0000 0.84850  0.28030  0.93460  Biso   1.000  C
  C18      1.0000 0.15150  0.71970  0.06540  Biso   1.000  C
  H15      1.0000 0.96060  0.24030  0.89710  Biso   1.000  H
  H16      1.0000 0.03940  0.75970  0.10290  Biso   1.000  H
  C19      1.0000 0.81130  0.05070  0.91500  Biso   1.000  C
  C20      1.0000 0.18870  0.94930  0.08500  Biso   1.000  C
  H17      1.0000 0.72130  0.00950  0.93600  Biso   1.000  H
  H18      1.0000 0.27870  0.99050  0.06400  Biso   1.000  H
  H19      1.0000 0.89870  0.98670  0.94830  Biso   1.000  H
  H20      1.0000 0.10130  0.01330  0.05170  Biso   1.000  H
  H21      1.0000 0.85440  0.05950  0.83520  Biso   1.000  H
  H22      1.0000 0.14560  0.94050  0.16480  Biso   1.000  H
  C21      1.0000 0.57640  0.24890  0.01240  Biso   1.000  C
  C22      1.0000 0.42360  0.75110  0.98760  Biso   1.000  C
  H23      1.0000 0.52610  0.17450  0.01800  Biso   1.000  H
  H24      1.0000 0.47390  0.82550  0.98200  Biso   1.000  H
  H25      1.0000 0.52100  0.33870  0.97270  Biso   1.000  H
  H26      1.0000 0.47900  0.66130  0.02730  Biso   1.000  H
  H27      1.0000 0.56560  0.26780  0.08590  Biso   1.000  H
  H28      1.0000 0.43440  0.73220  0.91410  Biso   1.000  H
  O5       1.0000 0.42900  0.38250  0.27900  Biso   1.000  O
  O6       1.0000 0.57100  0.61750  0.72100  Biso   1.000  O
  N9       1.0000 0.24750  0.57960  0.36720  Biso   1.000  N
  N10      1.0000 0.75250  0.42040  0.63280  Biso   1.000  N
  C23      1.0000 0.32060  0.49340  0.29410  Biso   1.000  C
  C24      1.0000 0.67940  0.50660  0.70590  Biso   1.000  C
  H29      1.0000 0.27510  0.52800  0.23350  Biso   1.000  H
  H30      1.0000 0.72490  0.47200  0.76650  Biso   1.000  H
  C25      1.0000 0.36500  0.54700  0.44000  Biso   1.000  C
  C26      1.0000 0.63500  0.45300  0.56000  Biso   1.000  C
  H31      1.0000 0.31340  0.61180  0.49790  Biso   1.000  H
  H32      1.0000 0.68660  0.38820  0.50210  Biso   1.000  H
  H33      1.0000 0.46770  0.56420  0.39490  Biso   1.000  H
  H34      1.0000 0.53230  0.43580  0.60510  Biso   1.000  H
  H35      1.0000 0.38780  0.44600  0.47230  Biso   1.000  H
  H36      1.0000 0.61220  0.55400  0.52770  Biso   1.000  H
  C27      1.0000 0.15300  0.73600  0.36800  Biso   1.000  C
  C28      1.0000 0.84700  0.26400  0.63200  Biso   1.000  C
  H37      1.0000 0.11860  0.76260  0.44300  Biso   1.000  H
  H38      1.0000 0.88140  0.23740  0.55700  Biso   1.000  H
  H39      1.0000 0.05630  0.75680  0.34260  Biso   1.000  H
  H40      1.0000 0.94370  0.24320  0.65740  Biso   1.000  H
  H41      1.0000 0.22230  0.79350  0.32010  Biso   1.000  H
  H42      1.0000 0.77770  0.20650  0.67990  Biso   1.000  H
