data_image0
_cell_length_a       7.808
_cell_length_b       8.946
_cell_length_c       10.837
_cell_angle_alpha    102.017
_cell_angle_beta     104.357
_cell_angle_gamma    111.247

_symmetry_space_group_name_H-M    "P 1"
_symmetry_int_tables_number       1

loop_
  _symmetry_equiv_pos_as_xyz
  'x, y, z'

loop_
  _atom_site_label
  _atom_site_occupancy
  _atom_site_fract_x
  _atom_site_fract_y
  _atom_site_fract_z
  _atom_site_thermal_displace_type
  _atom_site_B_iso_or_equiv
  _atom_site_type_symbol
  Cu1      1.0000 0.00000  0.50000  0.50000  Biso   1.000  Cu
  S1       1.0000 0.00476  0.17165  0.10285  Biso   1.000  S
  S2       1.0000 0.99524  0.82835  0.89715  Biso   1.000  S
  O1       1.0000 0.37150  0.58330  0.60190  Biso   1.000  O
  O2       1.0000 0.62850  0.41670  0.39810  Biso   1.000  O
  O3       1.0000 0.48310  0.31760  0.59900  Biso   1.000  O
  O4       1.0000 0.51690  0.68240  0.40100  Biso   1.000  O
  N1       1.0000 0.54890  0.18100  0.74340  Biso   1.000  N
  N2       1.0000 0.45110  0.81900  0.25660  Biso   1.000  N
  H1       1.0000 0.51370  0.08580  0.75850  Biso   1.000  H
  H2       1.0000 0.48630  0.91420  0.24150  Biso   1.000  H
  N3       1.0000 0.07770  0.72360  0.46060  Biso   1.000  N
  N4       1.0000 0.92230  0.27640  0.53940  Biso   1.000  N
  N5       1.0000 0.99020  0.38360  0.32340  Biso   1.000  N
  N6       1.0000 0.00980  0.61640  0.67660  Biso   1.000  N
  C1       1.0000 0.71900  0.33110  0.84660  Biso   1.000  C
  C2       1.0000 0.28100  0.66890  0.15340  Biso   1.000  C
  H3       1.0000 0.76160  0.41950  0.80710  Biso   1.000  H
  H4       1.0000 0.23840  0.58050  0.19290  Biso   1.000  H
  H5       1.0000 0.82650  0.30120  0.87560  Biso   1.000  H
  H6       1.0000 0.17350  0.69880  0.12440  Biso   1.000  H
  C3       1.0000 0.67400  0.39980  0.96860  Biso   1.000  C
  C4       1.0000 0.32600  0.60020  0.03140  Biso   1.000  C
  H7       1.0000 0.63150  0.31090  0.00760  Biso   1.000  H
  H8       1.0000 0.36850  0.68910  0.99240  Biso   1.000  H
  H9       1.0000 0.79410  0.49240  0.03550  Biso   1.000  H
  H10      1.0000 0.20590  0.50760  0.96450  Biso   1.000  H
  C5       1.0000 0.51960  0.46250  0.93900  Biso   1.000  C
  C6       1.0000 0.48040  0.53750  0.06100  Biso   1.000  C
  H11      1.0000 0.39800  0.36870  0.87480  Biso   1.000  H
  H12      1.0000 0.60200  0.63130  0.12520  Biso   1.000  H
  H13      1.0000 0.55950  0.54810  0.89640  Biso   1.000  H
  H14      1.0000 0.44050  0.45190  0.10360  Biso   1.000  H
  C7       1.0000 0.28130  0.02230  0.52710  Biso   1.000  C
  C8       1.0000 0.71870  0.97770  0.47290  Biso   1.000  C
  C9       1.0000 0.22310  0.86900  0.55190  Biso   1.000  C
  C10      1.0000 0.77690  0.13100  0.44810  Biso   1.000  C
  H15      1.0000 0.28790  0.86700  0.63560  Biso   1.000  H
  H16      1.0000 0.71210  0.13300  0.36440  Biso   1.000  H
  C11      1.0000 0.98380  0.72810  0.34160  Biso   1.000  C
  C12      1.0000 0.01620  0.27190  0.65840  Biso   1.000  C
  H17      1.0000 0.88300  0.62780  0.27740  Biso   1.000  H
  H18      1.0000 0.11700  0.37220  0.72260  Biso   1.000  H
  C13      1.0000 0.03070  0.87650  0.30990  Biso   1.000  C
  C14      1.0000 0.96930  0.12350  0.69010  Biso   1.000  C
  H19      1.0000 0.96140  0.87590  0.22640  Biso   1.000  H
  H20      1.0000 0.03860  0.12410  0.77360  Biso   1.000  H
  C15      1.0000 0.18090  0.02470  0.40360  Biso   1.000  C
  C16      1.0000 0.81910  0.97530  0.59640  Biso   1.000  C
  H21      1.0000 0.21470  0.12570  0.38410  Biso   1.000  H
  H22      1.0000 0.78530  0.87430  0.61590  Biso   1.000  H
  C17      1.0000 0.44800  0.18620  0.62850  Biso   1.000  C
  C18      1.0000 0.55200  0.81380  0.37150  Biso   1.000  C
  C19      1.0000 0.99610  0.29450  0.23240  Biso   1.000  C
  C20      1.0000 0.00390  0.70550  0.76760  Biso   1.000  C
  O5       1.0000 0.45190  0.09850  0.16130  Biso   1.000  O
  O6       1.0000 0.54810  0.90150  0.83870  Biso   1.000  O
