data_image0
_cell_length_a       7.4123
_cell_length_b       10.5479
_cell_length_c       14.0519
_cell_angle_alpha    83.276
_cell_angle_beta     75.937
_cell_angle_gamma    89.908

_symmetry_space_group_name_H-M    "P 1"
_symmetry_int_tables_number       1

loop_
  _symmetry_equiv_pos_as_xyz
  'x, y, z'

loop_
  _atom_site_label
  _atom_site_occupancy
  _atom_site_fract_x
  _atom_site_fract_y
  _atom_site_fract_z
  _atom_site_thermal_displace_type
  _atom_site_B_iso_or_equiv
  _atom_site_type_symbol
  Cu1      1.0000 0.50000  0.00000  0.50000  Biso   1.000  Cu
  S1       1.0000 0.06145  0.69855  0.70718  Biso   1.000  S
  S2       1.0000 0.93855  0.30145  0.29282  Biso   1.000  S
  N1       1.0000 0.30920  0.88750  0.59440  Biso   1.000  N
  N2       1.0000 0.69080  0.11250  0.40560  Biso   1.000  N
  C1       1.0000 0.20590  0.80970  0.64100  Biso   1.000  C
  C2       1.0000 0.79410  0.19030  0.35900  Biso   1.000  C
  N3       1.0000 0.34190  0.15410  0.53172  Biso   1.000  N
  N4       1.0000 0.65810  0.84590  0.46828  Biso   1.000  N
  N5       1.0000 0.38240  0.46440  0.62243  Biso   1.000  N
  N6       1.0000 0.61760  0.53560  0.37757  Biso   1.000  N
  H1       1.0000 0.30930  0.52720  0.63360  Biso   1.000  H
  H2       1.0000 0.69070  0.47280  0.36640  Biso   1.000  H
  C3       1.0000 0.31220  0.36090  0.58568  Biso   1.000  C
  C4       1.0000 0.68780  0.63910  0.41432  Biso   1.000  C
  C5       1.0000 0.41580  0.25440  0.56070  Biso   1.000  C
  C6       1.0000 0.58420  0.74560  0.43930  Biso   1.000  C
  H3       1.0000 0.53950  0.25280  0.56420  Biso   1.000  H
  H4       1.0000 0.46050  0.74720  0.43580  Biso   1.000  H
  C7       1.0000 0.16450  0.15620  0.52580  Biso   1.000  C
  C8       1.0000 0.83550  0.84380  0.47420  Biso   1.000  C
  H5       1.0000 0.11330  0.08570  0.50690  Biso   1.000  H
  H6       1.0000 0.88670  0.91430  0.49310  Biso   1.000  H
  C9       1.0000 0.05540  0.26000  0.54700  Biso   1.000  C
  C10      1.0000 0.94460  0.74000  0.45300  Biso   1.000  C
  H7       1.0000 0.93310  0.26010  0.54100  Biso   1.000  H
  H8       1.0000 0.06690  0.73990  0.45900  Biso   1.000  H
  C11      1.0000 0.12930  0.36350  0.57700  Biso   1.000  C
  C12      1.0000 0.87070  0.63650  0.42300  Biso   1.000  C
  H9       1.0000 0.05770  0.43450  0.59130  Biso   1.000  H
  H10      1.0000 0.94230  0.56550  0.40870  Biso   1.000  H
  O1       1.0000 0.67450  0.40100  0.62110  Biso   1.000  O
  O2       1.0000 0.32550  0.59900  0.37890  Biso   1.000  O
  C13      1.0000 0.55160  0.47630  0.64220  Biso   1.000  C
  C14      1.0000 0.44840  0.52370  0.35780  Biso   1.000  C
  C15      1.0000 0.57910  0.59010  0.69380  Biso   1.000  C
  C16      1.0000 0.42090  0.40990  0.30620  Biso   1.000  C
  H11      1.0000 0.46950  0.64190  0.70140  Biso   1.000  H
  H12      1.0000 0.53050  0.35810  0.29860  Biso   1.000  H
  H13      1.0000 0.68440  0.64210  0.65390  Biso   1.000  H
  H14      1.0000 0.31560  0.35790  0.34610  Biso   1.000  H
  C17      1.0000 0.61400  0.54600  0.79620  Biso   1.000  C
  C18      1.0000 0.38600  0.45400  0.20380  Biso   1.000  C
  H15      1.0000 0.70870  0.48180  0.78930  Biso   1.000  H
  H16      1.0000 0.29130  0.51820  0.21070  Biso   1.000  H
  H17      1.0000 0.66150  0.61800  0.82070  Biso   1.000  H
  H18      1.0000 0.33850  0.38200  0.17930  Biso   1.000  H
  C19      1.0000 0.44260  0.49160  0.87050  Biso   1.000  C
  C20      1.0000 0.55740  0.50840  0.12950  Biso   1.000  C
  H19      1.0000 0.39550  0.41960  0.84570  Biso   1.000  H
  H20      1.0000 0.60450  0.58040  0.15430  Biso   1.000  H
  H21      1.0000 0.34800  0.55590  0.87690  Biso   1.000  H
  H22      1.0000 0.65200  0.44410  0.12310  Biso   1.000  H
  C21      1.0000 0.47340  0.44730  0.97330  Biso   1.000  C
  C22      1.0000 0.52660  0.55270  0.02670  Biso   1.000  C
  H23      1.0000 0.36020  0.40470  0.01390  Biso   1.000  H
  H24      1.0000 0.63980  0.59530  0.98610  Biso   1.000  H
  H25      1.0000 0.57070  0.38490  0.96640  Biso   1.000  H
  H26      1.0000 0.42930  0.61510  0.03360  Biso   1.000  H
  O3       1.0000 0.66540  0.03890  0.62850  Biso   1.000  O
  O4       1.0000 0.33460  0.96110  0.37150  Biso   1.000  O
  N7       1.0000 0.59640  0.00170  0.79540  Biso   1.000  N
  N8       1.0000 0.40360  0.99830  0.20460  Biso   1.000  N
  C23      1.0000 0.64580  0.96710  0.70420  Biso   1.000  C
  C24      1.0000 0.35420  0.03290  0.29580  Biso   1.000  C
  H27      1.0000 0.66670  0.88100  0.69860  Biso   1.000  H
  H28      1.0000 0.33330  0.11900  0.30140  Biso   1.000  H
  C25      1.0000 0.57280  0.90550  0.88120  Biso   1.000  C
  C26      1.0000 0.42720  0.09450  0.11880  Biso   1.000  C
  H29      1.0000 0.44260  0.88700  0.90900  Biso   1.000  H
  H30      1.0000 0.55740  0.11300  0.09100  Biso   1.000  H
  H31      1.0000 0.62670  0.93710  0.92970  Biso   1.000  H
  H32      1.0000 0.37330  0.06290  0.07030  Biso   1.000  H
  H33      1.0000 0.63340  0.82900  0.86140  Biso   1.000  H
  H34      1.0000 0.36660  0.17100  0.13860  Biso   1.000  H
  C27      1.0000 0.56170  0.13040  0.81130  Biso   1.000  C
  C28      1.0000 0.43830  0.86960  0.18870  Biso   1.000  C
  H35      1.0000 0.60600  0.18480  0.75020  Biso   1.000  H
  H36      1.0000 0.39400  0.81520  0.24980  Biso   1.000  H
  H37      1.0000 0.62510  0.15320  0.85910  Biso   1.000  H
  H38      1.0000 0.37490  0.84680  0.14090  Biso   1.000  H
  H39      1.0000 0.43030  0.14060  0.83540  Biso   1.000  H
  H40      1.0000 0.56970  0.85940  0.16460  Biso   1.000  H
  C29      1.0000 0.02110  0.86860  0.99160  Biso   1.000  C
  C30      1.0000 0.97890  0.13140  0.00840  Biso   1.000  C
  C31      1.0000 0.04150  0.73510  0.98660  Biso   1.000  C
  C32      1.0000 0.95850  0.26490  0.01340  Biso   1.000  C
  H41      1.0000 0.06910  0.70480  0.92530  Biso   1.000  H
  H42      1.0000 0.93090  0.29520  0.07470  Biso   1.000  H
  C33      1.0000 0.02150  0.65210  0.06890  Biso   1.000  C
  C34      1.0000 0.97850  0.34790  0.93110  Biso   1.000  C
  H43      1.0000 0.03610  0.56540  0.06380  Biso   1.000  H
  H44      1.0000 0.96390  0.43460  0.93620  Biso   1.000  H
  C35      1.0000 0.97900  0.69460  0.16200  Biso   1.000  C
  C36      1.0000 0.02100  0.30540  0.83800  Biso   1.000  C
  H45      1.0000 0.96600  0.63570  0.21810  Biso   1.000  H
  H46      1.0000 0.03400  0.36430  0.78190  Biso   1.000  H
  C37      1.0000 0.95660  0.81990  0.17180  Biso   1.000  C
  C38      1.0000 0.04340  0.18010  0.82820  Biso   1.000  C
  H47      1.0000 0.92790  0.84610  0.23450  Biso   1.000  H
  H48      1.0000 0.07210  0.15390  0.76550  Biso   1.000  H
  C39      1.0000 0.97660  0.91300  0.08670  Biso   1.000  C
  C40      1.0000 0.02340  0.08700  0.91330  Biso   1.000  C
  C41      1.0000 0.04260  0.95800  0.90760  Biso   1.000  C
  C42      1.0000 0.95740  0.04200  0.09240  Biso   1.000  C
  H49      1.0000 0.07090  0.92940  0.84570  Biso   1.000  H
  H50      1.0000 0.92910  0.07060  0.15430  Biso   1.000  H
