data_image0
_cell_length_a       10.069
_cell_length_b       14.339
_cell_length_c       14.469
_cell_angle_alpha    75.382
_cell_angle_beta     85.836
_cell_angle_gamma    76.313

_symmetry_space_group_name_H-M    "P 1"
_symmetry_int_tables_number       1

loop_
  _symmetry_equiv_pos_as_xyz
  'x, y, z'

loop_
  _atom_site_label
  _atom_site_occupancy
  _atom_site_fract_x
  _atom_site_fract_y
  _atom_site_fract_z
  _atom_site_thermal_displace_type
  _atom_site_B_iso_or_equiv
  _atom_site_type_symbol
  Cu1      1.0000 0.43390  0.25296  0.47287  Biso   1.000  Cu
  Cu2      1.0000 0.56610  0.74704  0.52713  Biso   1.000  Cu
  S1       1.0000 0.58461  0.11214  0.21857  Biso   1.000  S
  S2       1.0000 0.41539  0.88786  0.78143  Biso   1.000  S
  C1       1.0000 0.55620  0.14880  0.31590  Biso   1.000  C
  C2       1.0000 0.44380  0.85120  0.68410  Biso   1.000  C
  N1       1.0000 0.53450  0.17430  0.38600  Biso   1.000  N
  N2       1.0000 0.46550  0.82570  0.61400  Biso   1.000  N
  S3       1.0000 0.15754  0.39823  0.69611  Biso   1.000  S
  S4       1.0000 0.84246  0.60177  0.30389  Biso   1.000  S
  C3       1.0000 0.25860  0.35940  0.61530  Biso   1.000  C
  C4       1.0000 0.74140  0.64060  0.38470  Biso   1.000  C
  N3       1.0000 0.32920  0.33230  0.55670  Biso   1.000  N
  N4       1.0000 0.67080  0.66770  0.44330  Biso   1.000  N
  O1       1.0000 0.74020  0.30046  0.74370  Biso   1.000  O
  O2       1.0000 0.25980  0.69954  0.25630  Biso   1.000  O
  N5       1.0000 0.55770  0.16920  0.58330  Biso   1.000  N
  N6       1.0000 0.44230  0.83080  0.41670  Biso   1.000  N
  C5       1.0000 0.69320  0.15570  0.71740  Biso   1.000  C
  C6       1.0000 0.30680  0.84430  0.28260  Biso   1.000  C
  C7       1.0000 0.60420  0.20970  0.64460  Biso   1.000  C
  C8       1.0000 0.39580  0.79030  0.35540  Biso   1.000  C
  H1       1.0000 0.57500  0.27760  0.63780  Biso   1.000  H
  H2       1.0000 0.42500  0.72240  0.36220  Biso   1.000  H
  C9       1.0000 0.59980  0.07160  0.59380  Biso   1.000  C
  C10      1.0000 0.40020  0.92840  0.40620  Biso   1.000  C
  H3       1.0000 0.56910  0.04250  0.55130  Biso   1.000  H
  H4       1.0000 0.43090  0.95750  0.44870  Biso   1.000  H
  C11      1.0000 0.68710  0.01240  0.66540  Biso   1.000  C
  C12      1.0000 0.31290  0.98760  0.33460  Biso   1.000  C
  H5       1.0000 0.71340  0.94450  0.67120  Biso   1.000  H
  H6       1.0000 0.28660  0.05550  0.32880  Biso   1.000  H
  C13      1.0000 0.73520  0.05450  0.72840  Biso   1.000  C
  C14      1.0000 0.26480  0.94550  0.27160  Biso   1.000  C
  H7       1.0000 0.79430  0.01570  0.77700  Biso   1.000  H
  H8       1.0000 0.20570  0.98430  0.22300  Biso   1.000  H
  C15      1.0000 0.74610  0.21240  0.77560  Biso   1.000  C
  C16      1.0000 0.25390  0.78760  0.22440  Biso   1.000  C
  N7       1.0000 0.30920  0.33260  0.36272  Biso   1.000  N
  N8       1.0000 0.69080  0.66740  0.63728  Biso   1.000  N
  O3       1.0000 0.07440  0.19419  0.24414  Biso   1.000  O
  O4       1.0000 0.92560  0.80581  0.75586  Biso   1.000  O
  C17      1.0000 0.16370  0.33440  0.23820  Biso   1.000  C
  C18      1.0000 0.83630  0.66560  0.76180  Biso   1.000  C
  C19      1.0000 0.24270  0.28650  0.31810  Biso   1.000  C
  C20      1.0000 0.75730  0.71350  0.68190  Biso   1.000  C
  H9       1.0000 0.25000  0.21890  0.34190  Biso   1.000  H
  H10      1.0000 0.75000  0.78110  0.65810  Biso   1.000  H
  C21      1.0000 0.29520  0.43020  0.32920  Biso   1.000  C
  C22      1.0000 0.70480  0.56980  0.67080  Biso   1.000  C
  H11      1.0000 0.34090  0.46300  0.35970  Biso   1.000  H
  H12      1.0000 0.65910  0.53700  0.64030  Biso   1.000  H
  C23      1.0000 0.21660  0.48390  0.25200  Biso   1.000  C
  C24      1.0000 0.78340  0.51610  0.74800  Biso   1.000  C
  H13      1.0000 0.20850  0.55180  0.23090  Biso   1.000  H
  H14      1.0000 0.79150  0.44820  0.76910  Biso   1.000  H
  C25      1.0000 0.14930  0.43500  0.20590  Biso   1.000  C
  C26      1.0000 0.85070  0.56500  0.79410  Biso   1.000  C
  H15      1.0000 0.09490  0.47000  0.15350  Biso   1.000  H
  H16      1.0000 0.90510  0.53000  0.84650  Biso   1.000  H
  C27      1.0000 0.09760  0.27190  0.19530  Biso   1.000  C
  C28      1.0000 0.90240  0.72810  0.80470  Biso   1.000  C
  N9       1.0000 0.80040  0.15970  0.86074  Biso   1.000  N
  N10      1.0000 0.19960  0.84030  0.13926  Biso   1.000  N
  H17      1.0000 0.79240  0.09940  0.87990  Biso   1.000  H
  H18      1.0000 0.20760  0.90060  0.12010  Biso   1.000  H
  N11      1.0000 0.06970  0.30680  0.10120  Biso   1.000  N
  N12      1.0000 0.93030  0.69320  0.89880  Biso   1.000  N
  H19      1.0000 0.09490  0.36030  0.07290  Biso   1.000  H
  H20      1.0000 0.90510  0.63970  0.92710  Biso   1.000  H
  C29      1.0000 0.86980  0.19640  0.92120  Biso   1.000  C
  C30      1.0000 0.13020  0.80360  0.07880  Biso   1.000  C
  C31      1.0000 0.85910  0.16240  0.01910  Biso   1.000  C
  C32      1.0000 0.14090  0.83760  0.98090  Biso   1.000  C
  H21      1.0000 0.80660  0.11630  0.04410  Biso   1.000  H
  H22      1.0000 0.19340  0.88370  0.95590  Biso   1.000  H
  C33      1.0000 0.92500  0.19580  0.08050  Biso   1.000  C
  C34      1.0000 0.07500  0.80420  0.91950  Biso   1.000  C
  H23      1.0000 0.91690  0.17210  0.14620  Biso   1.000  H
  H24      1.0000 0.08310  0.82790  0.85380  Biso   1.000  H
  C35      1.0000 0.00340  0.26480  0.04400  Biso   1.000  C
  C36      1.0000 0.99660  0.73520  0.95600  Biso   1.000  C
  C37      1.0000 0.01580  0.29720  0.94530  Biso   1.000  C
  C38      1.0000 0.98420  0.70280  0.05470  Biso   1.000  C
  H25      1.0000 0.06990  0.34220  0.91990  Biso   1.000  H
  H26      1.0000 0.93010  0.65780  0.08010  Biso   1.000  H
  C39      1.0000 0.94990  0.26400  0.88490  Biso   1.000  C
  C40      1.0000 0.05010  0.73600  0.11510  Biso   1.000  C
  H27      1.0000 0.95890  0.28700  0.81920  Biso   1.000  H
  H28      1.0000 0.04110  0.71300  0.18080  Biso   1.000  H
  O5       1.0000 0.58390  0.37500  0.43200  Biso   1.000  O
  O6       1.0000 0.41610  0.62500  0.56800  Biso   1.000  O
  N13      1.0000 0.80550  0.34500  0.47160  Biso   1.000  N
  N14      1.0000 0.19450  0.65500  0.52840  Biso   1.000  N
  C41      1.0000 0.67720  0.39520  0.46530  Biso   1.000  C
  C42      1.0000 0.32280  0.60480  0.53470  Biso   1.000  C
  H29      1.0000 0.65640  0.45170  0.48880  Biso   1.000  H
  H30      1.0000 0.34360  0.54830  0.51120  Biso   1.000  H
  C43      1.0000 0.84500  0.25600  0.44050  Biso   1.000  C
  C44      1.0000 0.15500  0.74400  0.55950  Biso   1.000  C
  H31      1.0000 0.76780  0.22650  0.44450  Biso   1.000  H
  H32      1.0000 0.23220  0.77350  0.55550  Biso   1.000  H
  H33      1.0000 0.91660  0.21090  0.48030  Biso   1.000  H
  H34      1.0000 0.08340  0.78910  0.51970  Biso   1.000  H
  H35      1.0000 0.87730  0.27030  0.37550  Biso   1.000  H
  H36      1.0000 0.12270  0.72970  0.62450  Biso   1.000  H
  C45      1.0000 0.90930  0.37610  0.51420  Biso   1.000  C
  C46      1.0000 0.09070  0.62390  0.48580  Biso   1.000  C
  H37      1.0000 0.87600  0.44340  0.51820  Biso   1.000  H
  H38      1.0000 0.12400  0.55660  0.48180  Biso   1.000  H
  H39      1.0000 0.99090  0.37090  0.47530  Biso   1.000  H
  H40      1.0000 0.00910  0.62910  0.52470  Biso   1.000  H
  H41      1.0000 0.92950  0.33430  0.57710  Biso   1.000  H
  H42      1.0000 0.07050  0.66570  0.42290  Biso   1.000  H
  N15      1.0000 0.14500  0.07280  0.63560  Biso   1.000  N
  N16      1.0000 0.85500  0.92720  0.36440  Biso   1.000  N
  O7       1.0000 0.28800  0.12830  0.51670  Biso   1.000  O
  O8       1.0000 0.71200  0.87170  0.48330  Biso   1.000  O
  C47      1.0000 0.23500  0.12550  0.59630  Biso   1.000  C
  C48      1.0000 0.76500  0.87450  0.40370  Biso   1.000  C
  H43      1.0000 0.26050  0.16390  0.63210  Biso   1.000  H
  H44      1.0000 0.73950  0.83610  0.36790  Biso   1.000  H
  C49      1.0000 0.10930  0.00490  0.59200  Biso   1.000  C
  C50      1.0000 0.89070  0.99510  0.40800  Biso   1.000  C
  H45      1.0000 0.09820  0.03350  0.52470  Biso   1.000  H
  H46      1.0000 0.90180  0.96650  0.47530  Biso   1.000  H
  H47      1.0000 0.02510  0.98950  0.61950  Biso   1.000  H
  H48      1.0000 0.97490  0.01050  0.38050  Biso   1.000  H
  H49      1.0000 0.18020  0.94550  0.60220  Biso   1.000  H
  H50      1.0000 0.81980  0.05450  0.39780  Biso   1.000  H
  C51      1.0000 0.09230  0.07570  0.73200  Biso   1.000  C
  C52      1.0000 0.90770  0.92430  0.26800  Biso   1.000  C
  H51      1.0000 0.14480  0.10870  0.76050  Biso   1.000  H
  H52      1.0000 0.85520  0.89130  0.23950  Biso   1.000  H
  H53      1.0000 0.09930  0.00940  0.77000  Biso   1.000  H
  H54      1.0000 0.90070  0.99060  0.23000  Biso   1.000  H
  H55      1.0000 0.99830  0.11080  0.72880  Biso   1.000  H
  H56      1.0000 0.00170  0.88920  0.27120  Biso   1.000  H
  N17      1.0000 0.36730  0.14390  0.96330  Biso   1.000  N
  N18      1.0000 0.63270  0.85610  0.03670  Biso   1.000  N
  O9       1.0000 0.27800  0.01420  0.03760  Biso   1.000  O
  O10      1.0000 0.72200  0.98580  0.96240  Biso   1.000  O
  C53      1.0000 0.32130  0.08700  0.03770  Biso   1.000  C
  C54      1.0000 0.67870  0.91300  0.96230  Biso   1.000  C
  H57      1.0000 0.32130  0.10330  0.09600  Biso   1.000  H
  H58      1.0000 0.67870  0.89670  0.90400  Biso   1.000  H
  C55      1.0000 0.42080  0.22660  0.97230  Biso   1.000  C
  C56      1.0000 0.57920  0.77340  0.02770  Biso   1.000  C
  H59      1.0000 0.39660  0.23940  0.03400  Biso   1.000  H
  H60      1.0000 0.60340  0.76060  0.96600  Biso   1.000  H
  H61      1.0000 0.38270  0.28420  0.92360  Biso   1.000  H
  H62      1.0000 0.61730  0.71580  0.07640  Biso   1.000  H
  H63      1.0000 0.51850  0.21090  0.96510  Biso   1.000  H
  H64      1.0000 0.48150  0.78910  0.03490  Biso   1.000  H
  C57      1.0000 0.36650  0.12750  0.87110  Biso   1.000  C
  C58      1.0000 0.63350  0.87250  0.12890  Biso   1.000  C
  H65      1.0000 0.31660  0.07770  0.87300  Biso   1.000  H
  H66      1.0000 0.68340  0.92230  0.12700  Biso   1.000  H
  H67      1.0000 0.45870  0.10580  0.85010  Biso   1.000  H
  H68      1.0000 0.54130  0.89420  0.14990  Biso   1.000  H
  H69      1.0000 0.32350  0.18790  0.82750  Biso   1.000  H
  H70      1.0000 0.67650  0.81210  0.17250  Biso   1.000  H
  N19      1.0000 0.67700  0.43870  0.10410  Biso   1.000  N
  N20      1.0000 0.32300  0.56130  0.89590  Biso   1.000  N
  O11      1.0000 0.81120  0.53400  0.02190  Biso   1.000  O
  O12      1.0000 0.18880  0.46600  0.97810  Biso   1.000  O
  C59      1.0000 0.74110  0.47610  0.03000  Biso   1.000  C
  C60      1.0000 0.25890  0.52390  0.97000  Biso   1.000  C
  H71      1.0000 0.73190  0.45550  0.97530  Biso   1.000  H
  H72      1.0000 0.26810  0.54450  0.02470  Biso   1.000  H
  C61      1.0000 0.63400  0.49000  0.17950  Biso   1.000  C
  C62      1.0000 0.36600  0.51000  0.82050  Biso   1.000  C
  H73      1.0000 0.58630  0.45120  0.22850  Biso   1.000  H
  H74      1.0000 0.41370  0.54880  0.77150  Biso   1.000  H
  H75      1.0000 0.57470  0.55310  0.15380  Biso   1.000  H
  H76      1.0000 0.42530  0.44690  0.84620  Biso   1.000  H
  H77      1.0000 0.71300  0.49960  0.20620  Biso   1.000  H
  H78      1.0000 0.28700  0.50040  0.79380  Biso   1.000  H
  C63      1.0000 0.58570  0.37260  0.11360  Biso   1.000  C
  C64      1.0000 0.41430  0.62740  0.88640  Biso   1.000  C
  H79      1.0000 0.55290  0.35740  0.17840  Biso   1.000  H
  H80      1.0000 0.44710  0.64260  0.82160  Biso   1.000  H
  H81      1.0000 0.63390  0.31270  0.09700  Biso   1.000  H
  H82      1.0000 0.36610  0.68730  0.90300  Biso   1.000  H
  H83      1.0000 0.50970  0.40380  0.07170  Biso   1.000  H
  H84      1.0000 0.49030  0.59620  0.92830  Biso   1.000  H
  C65      1.0000 0.64240  0.39470  0.03020  Biso   1.000  C
  C66      1.0000 0.35760  0.60530  0.96980  Biso   1.000  C
  C67      1.0000 0.76410  0.49610  0.09200  Biso   1.000  C
  C68      1.0000 0.23590  0.50390  0.90800  Biso   1.000  C
  C69      1.0000 0.66100  0.39160  0.20300  Biso   1.000  C
  C70      1.0000 0.33900  0.60840  0.79700  Biso   1.000  C
  H85      1.0000 0.79150  0.50750  0.14740  Biso   1.000  H
  H86      1.0000 0.20850  0.49250  0.85260  Biso   1.000  H
  H87      1.0000 0.57620  0.35610  0.05540  Biso   1.000  H
  H88      1.0000 0.42380  0.64390  0.94460  Biso   1.000  H
  H89      1.0000 0.72340  0.35300  0.01090  Biso   1.000  H
  H90      1.0000 0.27660  0.64700  0.98910  Biso   1.000  H
  H91      1.0000 0.60510  0.44640  0.97610  Biso   1.000  H
  H92      1.0000 0.39490  0.55360  0.02390  Biso   1.000  H
  H93      1.0000 0.59690  0.35030  0.20910  Biso   1.000  H
  H94      1.0000 0.40310  0.64970  0.79090  Biso   1.000  H
  H95      1.0000 0.62790  0.44110  0.23820  Biso   1.000  H
  H96      1.0000 0.37210  0.55890  0.76180  Biso   1.000  H
  H97      1.0000 0.74780  0.35190  0.22770  Biso   1.000  H
  H98      1.0000 0.25220  0.64810  0.77230  Biso   1.000  H
