data_image0
_cell_length_a       7.474
_cell_length_b       9.371
_cell_length_c       10.441
_cell_angle_alpha    80.422
_cell_angle_beta     89.867
_cell_angle_gamma    76.38

_symmetry_space_group_name_H-M    "P 1"
_symmetry_int_tables_number       1

loop_
  _symmetry_equiv_pos_as_xyz
  'x, y, z'

loop_
  _atom_site_label
  _atom_site_occupancy
  _atom_site_fract_x
  _atom_site_fract_y
  _atom_site_fract_z
  _atom_site_thermal_displace_type
  _atom_site_B_iso_or_equiv
  _atom_site_type_symbol
  Cu1      1.0000 0.00000  0.50000  0.00000  Biso   1.000  Cu
  S1       1.0000 0.44270  0.19322  0.31544  Biso   1.000  S
  S2       1.0000 0.55730  0.80678  0.68456  Biso   1.000  S
  N1       1.0000 0.18930  0.35980  0.12010  Biso   1.000  N
  N2       1.0000 0.81070  0.64020  0.87990  Biso   1.000  N
  C1       1.0000 0.29570  0.29190  0.20020  Biso   1.000  C
  C2       1.0000 0.70430  0.70810  0.79980  Biso   1.000  C
  O1       1.0000 0.17250  0.67760  0.40259  Biso   1.000  O
  O2       1.0000 0.82750  0.32240  0.59741  Biso   1.000  O
  N3       1.0000 0.84250  0.54750  0.15336  Biso   1.000  N
  N4       1.0000 0.15750  0.45250  0.84664  Biso   1.000  N
  N5       1.0000 0.87830  0.68750  0.45905  Biso   1.000  N
  N6       1.0000 0.12170  0.31250  0.54095  Biso   1.000  N
  H1       1.0000 0.80330  0.70720  0.51990  Biso   1.000  H
  H2       1.0000 0.19670  0.29280  0.48010  Biso   1.000  H
  C3       1.0000 0.80960  0.63380  0.35620  Biso   1.000  C
  C4       1.0000 0.19040  0.36620  0.64380  Biso   1.000  C
  C5       1.0000 0.91490  0.59080  0.25330  Biso   1.000  C
  C6       1.0000 0.08510  0.40920  0.74670  Biso   1.000  C
  H3       1.0000 0.03890  0.59210  0.25380  Biso   1.000  H
  H4       1.0000 0.96110  0.40790  0.74620  Biso   1.000  H
  C7       1.0000 0.66530  0.54310  0.15310  Biso   1.000  C
  C8       1.0000 0.33470  0.45690  0.84690  Biso   1.000  C
  H5       1.0000 0.61520  0.51450  0.08270  Biso   1.000  H
  H6       1.0000 0.38480  0.48550  0.91730  Biso   1.000  H
  C9       1.0000 0.55470  0.57970  0.25370  Biso   1.000  C
  C10      1.0000 0.44530  0.42030  0.74630  Biso   1.000  C
  H7       1.0000 0.43250  0.57300  0.25240  Biso   1.000  H
  H8       1.0000 0.56750  0.42700  0.74760  Biso   1.000  H
  C11      1.0000 0.62580  0.62630  0.35620  Biso   1.000  C
  C12      1.0000 0.37420  0.37370  0.64380  Biso   1.000  C
  H9       1.0000 0.55230  0.65240  0.42460  Biso   1.000  H
  H10      1.0000 0.44770  0.34760  0.57540  Biso   1.000  H
  C13      1.0000 0.04820  0.71220  0.47440  Biso   1.000  C
  C14      1.0000 0.95180  0.28780  0.52560  Biso   1.000  C
  C15      1.0000 0.07230  0.79100  0.58630  Biso   1.000  C
  C16      1.0000 0.92770  0.20900  0.41370  Biso   1.000  C
  H11      1.0000 0.18270  0.73670  0.63770  Biso   1.000  H
  H12      1.0000 0.81730  0.26330  0.36230  Biso   1.000  H
  H13      1.0000 0.96790  0.79320  0.64190  Biso   1.000  H
  H14      1.0000 0.03210  0.20680  0.35810  Biso   1.000  H
  C17      1.0000 0.08770  0.95030  0.53530  Biso   1.000  C
  C18      1.0000 0.91230  0.04970  0.46470  Biso   1.000  C
  H15      1.0000 0.11730  0.99440  0.60780  Biso   1.000  H
  H16      1.0000 0.88270  0.00560  0.39220  Biso   1.000  H
  H17      1.0000 0.18850  0.94700  0.47640  Biso   1.000  H
  H18      1.0000 0.81150  0.05300  0.52360  Biso   1.000  H
  N7       1.0000 0.76570  0.07860  0.98970  Biso   1.000  N
  N8       1.0000 0.23430  0.92140  0.01030  Biso   1.000  N
  O3       1.0000 0.82500  0.30820  0.96400  Biso   1.000  O
  O4       1.0000 0.17500  0.69180  0.03600  Biso   1.000  O
  C19      1.0000 0.78880  0.19950  0.03130  Biso   1.000  C
  C20      1.0000 0.21120  0.80050  0.96870  Biso   1.000  C
  H19      1.0000 0.77630  0.20190  0.11970  Biso   1.000  H
  H20      1.0000 0.22370  0.79810  0.88030  Biso   1.000  H
  C21      1.0000 0.78080  0.06560  0.85380  Biso   1.000  C
  C22      1.0000 0.21920  0.93440  0.14620  Biso   1.000  C
  H21      1.0000 0.76020  0.97140  0.84160  Biso   1.000  H
  H22      1.0000 0.23980  0.02860  0.15840  Biso   1.000  H
  H23      1.0000 0.90180  0.07210  0.82650  Biso   1.000  H
  H24      1.0000 0.09820  0.92790  0.17350  Biso   1.000  H
  H25      1.0000 0.69050  0.14470  0.80300  Biso   1.000  H
  H26      1.0000 0.30950  0.85530  0.19700  Biso   1.000  H
  C23      1.0000 0.73780  0.94970  0.07930  Biso   1.000  C
  C24      1.0000 0.26220  0.05030  0.92070  Biso   1.000  C
  H27      1.0000 0.72400  0.87380  0.03130  Biso   1.000  H
  H28      1.0000 0.27600  0.12620  0.96870  Biso   1.000  H
  H29      1.0000 0.62870  0.97850  0.12680  Biso   1.000  H
  H30      1.0000 0.37130  0.02150  0.87320  Biso   1.000  H
  H31      1.0000 0.84220  0.91170  0.13900  Biso   1.000  H
  H32      1.0000 0.15780  0.08830  0.86100  Biso   1.000  H
