data_image0
_cell_length_a       7.4307
_cell_length_b       10.5364
_cell_length_c       14.0517
_cell_angle_alpha    91.139
_cell_angle_beta     103.47
_cell_angle_gamma    91.626

_symmetry_space_group_name_H-M    "P 1"
_symmetry_int_tables_number       1

loop_
  _symmetry_equiv_pos_as_xyz
  'x, y, z'

loop_
  _atom_site_label
  _atom_site_occupancy
  _atom_site_fract_x
  _atom_site_fract_y
  _atom_site_fract_z
  _atom_site_thermal_displace_type
  _atom_site_B_iso_or_equiv
  _atom_site_type_symbol
  Cu1      1.0000 0.50000  0.50000  0.50000  Biso   1.000  Cu
  S1       1.0000 0.06384  0.75682  0.29840  Biso   1.000  S
  S2       1.0000 0.93616  0.24318  0.70160  Biso   1.000  S
  C1       1.0000 0.20830  0.66050  0.36340  Biso   1.000  C
  C2       1.0000 0.79170  0.33950  0.63660  Biso   1.000  C
  N1       1.0000 0.31140  0.59310  0.40890  Biso   1.000  N
  N2       1.0000 0.68860  0.40690  0.59110  Biso   1.000  N
  O1       1.0000 0.66920  0.07871  0.37945  Biso   1.000  O
  O2       1.0000 0.33080  0.92129  0.62055  Biso   1.000  O
  N3       1.0000 0.33980  0.33785  0.46866  Biso   1.000  N
  N4       1.0000 0.66020  0.66215  0.53134  Biso   1.000  N
  C3       1.0000 0.30590  0.12218  0.41026  Biso   1.000  C
  C4       1.0000 0.69410  0.87782  0.58974  Biso   1.000  C
  C5       1.0000 0.41190  0.23335  0.43840  Biso   1.000  C
  C6       1.0000 0.58810  0.76665  0.56160  Biso   1.000  C
  H1       1.0000 0.53610  0.23540  0.43620  Biso   1.000  H
  H2       1.0000 0.46390  0.76460  0.56380  Biso   1.000  H
  C7       1.0000 0.16360  0.33470  0.47409  Biso   1.000  C
  C8       1.0000 0.83640  0.66530  0.52591  Biso   1.000  C
  H3       1.0000 0.11460  0.40740  0.49530  Biso   1.000  H
  H4       1.0000 0.88540  0.59260  0.50470  Biso   1.000  H
  C9       1.0000 0.05100  0.22680  0.44920  Biso   1.000  C
  C10      1.0000 0.94900  0.77320  0.55080  Biso   1.000  C
  H5       1.0000 0.92830  0.22670  0.45390  Biso   1.000  H
  H6       1.0000 0.07170  0.77330  0.54610  Biso   1.000  H
  C11      1.0000 0.12260  0.11980  0.41730  Biso   1.000  C
  C12      1.0000 0.87740  0.88020  0.58270  Biso   1.000  C
  H7       1.0000 0.04890  0.04620  0.40050  Biso   1.000  H
  H8       1.0000 0.95110  0.95380  0.59950  Biso   1.000  H
  N5       1.0000 0.37520  0.01344  0.37360  Biso   1.000  N
  N6       1.0000 0.62480  0.98656  0.62640  Biso   1.000  N
  H9       1.0000 0.29970  0.94880  0.35970  Biso   1.000  H
  H10      1.0000 0.70030  0.05120  0.64030  Biso   1.000  H
  C13      1.0000 0.54630  0.99770  0.35731  Biso   1.000  C
  C14      1.0000 0.45370  0.00230  0.64269  Biso   1.000  C
  C15      1.0000 0.57580  0.87450  0.30802  Biso   1.000  C
  C16      1.0000 0.42420  0.12550  0.69198  Biso   1.000  C
  H11      1.0000 0.46060  0.82450  0.29190  Biso   1.000  H
  H12      1.0000 0.53940  0.17550  0.70810  Biso   1.000  H
  H13      1.0000 0.66670  0.82640  0.35260  Biso   1.000  H
  H14      1.0000 0.33330  0.17360  0.64740  Biso   1.000  H
  C17      1.0000 0.64250  0.89810  0.21490  Biso   1.000  C
  C18      1.0000 0.35750  0.10190  0.78510  Biso   1.000  C
  H15      1.0000 0.74780  0.95770  0.23020  Biso   1.000  H
  H16      1.0000 0.25220  0.04230  0.76980  Biso   1.000  H
  H17      1.0000 0.68440  0.81900  0.19260  Biso   1.000  H
  H18      1.0000 0.31560  0.18100  0.80740  Biso   1.000  H
  C19      1.0000 0.49670  0.94970  0.13280  Biso   1.000  C
  C20      1.0000 0.50330  0.05030  0.86720  Biso   1.000  C
  H19      1.0000 0.45330  0.02850  0.15480  Biso   1.000  H
  H20      1.0000 0.54670  0.97150  0.84520  Biso   1.000  H
  H21      1.0000 0.39210  0.88960  0.11610  Biso   1.000  H
  H22      1.0000 0.60790  0.11040  0.88390  Biso   1.000  H
  C21      1.0000 0.57000  0.97390  0.04160  Biso   1.000  C
  C22      1.0000 0.43000  0.02610  0.95840  Biso   1.000  C
  H23      1.0000 0.67550  0.03320  0.05890  Biso   1.000  H
  H24      1.0000 0.32450  0.96680  0.94110  Biso   1.000  H
  H25      1.0000 0.61310  0.89480  0.01990  Biso   1.000  H
  H26      1.0000 0.38690  0.10520  0.98010  Biso   1.000  H
  O3       1.0000 0.66530  0.44330  0.37205  Biso   1.000  O
  O4       1.0000 0.33470  0.55670  0.62795  Biso   1.000  O
  N7       1.0000 0.61180  0.43480  0.20740  Biso   1.000  N
  N8       1.0000 0.38820  0.56520  0.79260  Biso   1.000  N
  C23      1.0000 0.63720  0.49870  0.29880  Biso   1.000  C
  C24      1.0000 0.36280  0.50130  0.70120  Biso   1.000  C
  C25      1.0000 0.58600  0.51240  0.11960  Biso   1.000  C
  C26      1.0000 0.41400  0.48760  0.88040  Biso   1.000  C
  C27      1.0000 0.63260  0.30530  0.20280  Biso   1.000  C
  C28      1.0000 0.36740  0.69470  0.79720  Biso   1.000  C
  C29      1.0000 0.98140  0.55870  0.97070  Biso   1.000  C
  C30      1.0000 0.01860  0.44130  0.02930  Biso   1.000  C
  C31      1.0000 0.99970  0.67690  0.01310  Biso   1.000  C
  C32      1.0000 0.00030  0.32310  0.98690  Biso   1.000  C
  H27      1.0000 0.03550  0.68560  0.08090  Biso   1.000  H
  H28      1.0000 0.96450  0.31440  0.91910  Biso   1.000  H
  C33      1.0000 0.96590  0.78550  0.95720  Biso   1.000  C
  C34      1.0000 0.03410  0.21450  0.04280  Biso   1.000  C
  H29      1.0000 0.98200  0.86520  0.98820  Biso   1.000  H
  H30      1.0000 0.01800  0.13480  0.01180  Biso   1.000  H
  C35      1.0000 0.90970  0.77590  0.85780  Biso   1.000  C
  C36      1.0000 0.09030  0.22410  0.14220  Biso   1.000  C
  H31      1.0000 0.88410  0.84790  0.82050  Biso   1.000  H
  H32      1.0000 0.11590  0.15210  0.17950  Biso   1.000  H
  C37      1.0000 0.89220  0.65950  0.81520  Biso   1.000  C
  C38      1.0000 0.10780  0.34050  0.18480  Biso   1.000  C
  H33      1.0000 0.85820  0.65180  0.74720  Biso   1.000  H
  H34      1.0000 0.14180  0.34820  0.25280  Biso   1.000  H
  C39      1.0000 0.92310  0.55120  0.86930  Biso   1.000  C
  C40      1.0000 0.07690  0.44880  0.13070  Biso   1.000  C
  H35      1.0000 0.90460  0.47200  0.83740  Biso   1.000  H
  H36      1.0000 0.09540  0.52800  0.16260  Biso   1.000  H
  C41      1.0000 0.64590  0.38100  0.29100  Biso   1.000  C
  C42      1.0000 0.35410  0.61900  0.70900  Biso   1.000  C
  C43      1.0000 0.57300  0.55720  0.16890  Biso   1.000  C
  C44      1.0000 0.42700  0.44280  0.83110  Biso   1.000  C
  C45      1.0000 0.57640  0.33180  0.12300  Biso   1.000  C
  C46      1.0000 0.42360  0.66820  0.87700  Biso   1.000  C
