data_image0
_cell_length_a       7.4296
_cell_length_b       10.7026
_cell_length_c       14.433
_cell_angle_alpha    105.255
_cell_angle_beta     100.958
_cell_angle_gamma    90.074

_symmetry_space_group_name_H-M    "P 1"
_symmetry_int_tables_number       1

loop_
  _symmetry_equiv_pos_as_xyz
  'x, y, z'

loop_
  _atom_site_label
  _atom_site_occupancy
  _atom_site_fract_x
  _atom_site_fract_y
  _atom_site_fract_z
  _atom_site_thermal_displace_type
  _atom_site_B_iso_or_equiv
  _atom_site_type_symbol
  Cu1      1.0000 0.50000  0.50000  0.00000  Biso   1.000  Cu
  S1       1.0000 0.75580  0.15373  0.79505  Biso   1.000  S
  S2       1.0000 0.24420  0.84627  0.20495  Biso   1.000  S
  C1       1.0000 0.67600  0.27960  0.86270  Biso   1.000  C
  C2       1.0000 0.32400  0.72040  0.13730  Biso   1.000  C
  N1       1.0000 0.61750  0.36860  0.91090  Biso   1.000  N
  N2       1.0000 0.38250  0.63140  0.08910  Biso   1.000  N
  O1       1.0000 0.23550  0.51440  0.86690  Biso   1.000  O
  O2       1.0000 0.76450  0.48560  0.13310  Biso   1.000  O
  N3       1.0000 0.11910  0.48140  0.70440  Biso   1.000  N
  N4       1.0000 0.88090  0.51860  0.29560  Biso   1.000  N
  C3       1.0000 0.04760  0.39190  0.60950  Biso   1.000  C
  C4       1.0000 0.95240  0.60810  0.39050  Biso   1.000  C
  H1       1.0000 0.01770  0.43940  0.56120  Biso   1.000  H
  H2       1.0000 0.98230  0.56060  0.43880  Biso   1.000  H
  H3       1.0000 0.93930  0.34560  0.61270  Biso   1.000  H
  H4       1.0000 0.06070  0.65440  0.38730  Biso   1.000  H
  H5       1.0000 0.13870  0.33150  0.59170  Biso   1.000  H
  H6       1.0000 0.86130  0.66850  0.40830  Biso   1.000  H
  C5       1.0000 0.14070  0.61690  0.70560  Biso   1.000  C
  C6       1.0000 0.85930  0.38310  0.29440  Biso   1.000  C
  H7       1.0000 0.09450  0.62670  0.64120  Biso   1.000  H
  H8       1.0000 0.90550  0.37330  0.35880  Biso   1.000  H
  H9       1.0000 0.26840  0.64470  0.72520  Biso   1.000  H
  H10      1.0000 0.73160  0.35530  0.27480  Biso   1.000  H
  H11      1.0000 0.07360  0.66870  0.75110  Biso   1.000  H
  H12      1.0000 0.92640  0.33130  0.24890  Biso   1.000  H
  C7       1.0000 0.17200  0.44340  0.78480  Biso   1.000  C
  C8       1.0000 0.82800  0.55660  0.21520  Biso   1.000  C
  H13      1.0000 0.16010  0.35500  0.77900  Biso   1.000  H
  H14      1.0000 0.83990  0.64500  0.22100  Biso   1.000  H
  N5       1.0000 0.36490  0.35520  0.03040  Biso   1.000  N
  N6       1.0000 0.63510  0.64480  0.96960  Biso   1.000  N
  C9       1.0000 0.38000  0.15990  0.08270  Biso   1.000  C
  C10      1.0000 0.62000  0.84010  0.91730  Biso   1.000  C
  C11      1.0000 0.46060  0.26080  0.05870  Biso   1.000  C
  C12      1.0000 0.53940  0.73920  0.94130  Biso   1.000  C
  H15      1.0000 0.58690  0.26320  0.06220  Biso   1.000  H
  H16      1.0000 0.41310  0.73680  0.93780  Biso   1.000  H
  C13      1.0000 0.18380  0.35160  0.02360  Biso   1.000  C
  C14      1.0000 0.81620  0.64840  0.97640  Biso   1.000  C
  H17      1.0000 0.11740  0.41720  0.00420  Biso   1.000  H
  H18      1.0000 0.88260  0.58280  0.99580  Biso   1.000  H
  C15      1.0000 0.09170  0.25340  0.04450  Biso   1.000  C
  C16      1.0000 0.90830  0.74660  0.95550  Biso   1.000  C
  H19      1.0000 0.96470  0.25240  0.03810  Biso   1.000  H
  H20      1.0000 0.03530  0.74760  0.96190  Biso   1.000  H
  C17      1.0000 0.18790  0.15800  0.07430  Biso   1.000  C
  C18      1.0000 0.81210  0.84200  0.92570  Biso   1.000  C
  H21      1.0000 0.12710  0.09200  0.08910  Biso   1.000  H
  H22      1.0000 0.87290  0.90800  0.91090  Biso   1.000  H
  O3       1.0000 0.76390  0.11100  0.09780  Biso   1.000  O
  O4       1.0000 0.23610  0.88900  0.90220  Biso   1.000  O
  N7       1.0000 0.47670  0.06620  0.11770  Biso   1.000  N
  N8       1.0000 0.52330  0.93380  0.88230  Biso   1.000  N
  H23      1.0000 0.41330  0.01150  0.13440  Biso   1.000  H
  H24      1.0000 0.58670  0.98850  0.86560  Biso   1.000  H
  C19      1.0000 0.66420  0.04980  0.12910  Biso   1.000  C
  C20      1.0000 0.33580  0.95020  0.87090  Biso   1.000  C
  C21      1.0000 0.73380  0.95810  0.18840  Biso   1.000  C
  C22      1.0000 0.26620  0.04190  0.81160  Biso   1.000  C
  H25      1.0000 0.82770  0.90700  0.16040  Biso   1.000  H
  H26      1.0000 0.17230  0.09300  0.83960  Biso   1.000  H
  H27      1.0000 0.63430  0.89950  0.18870  Biso   1.000  H
  H28      1.0000 0.36570  0.10050  0.81130  Biso   1.000  H
  C23      1.0000 0.81310  0.03730  0.29200  Biso   1.000  C
  C24      1.0000 0.18690  0.96270  0.70800  Biso   1.000  C
  H29      1.0000 0.91410  0.09370  0.29040  Biso   1.000  H
  H30      1.0000 0.08590  0.90630  0.70960  Biso   1.000  H
  H31      1.0000 0.71960  0.09190  0.31710  Biso   1.000  H
  H32      1.0000 0.28040  0.90810  0.68290  Biso   1.000  H
  C25      1.0000 0.88090  0.95620  0.36100  Biso   1.000  C
  C26      1.0000 0.11910  0.04380  0.63900  Biso   1.000  C
  H33      1.0000 0.97610  0.90260  0.33680  Biso   1.000  H
  H34      1.0000 0.02390  0.09740  0.66320  Biso   1.000  H
  H35      1.0000 0.78050  0.89910  0.36230  Biso   1.000  H
  H36      1.0000 0.21950  0.10090  0.63770  Biso   1.000  H
  C27      1.0000 0.95790  0.03860  0.46560  Biso   1.000  C
  C28      1.0000 0.04210  0.96140  0.53440  Biso   1.000  C
  H37      1.0000 0.85950  0.08640  0.49160  Biso   1.000  H
  H38      1.0000 0.14050  0.91360  0.50840  Biso   1.000  H
  H39      1.0000 0.05010  0.10130  0.46320  Biso   1.000  H
  H40      1.0000 0.94990  0.89870  0.53680  Biso   1.000  H
  C29      1.0000 0.39970  0.55580  0.33870  Biso   1.000  C
  C30      1.0000 0.60030  0.44420  0.66130  Biso   1.000  C
  H41      1.0000 0.37360  0.59700  0.28890  Biso   1.000  H
  H42      1.0000 0.62640  0.40300  0.71110  Biso   1.000  H
  C31      1.0000 0.36750  0.42970  0.31720  Biso   1.000  C
  C32      1.0000 0.63250  0.57030  0.68280  Biso   1.000  C
  H43      1.0000 0.31740  0.38440  0.25290  Biso   1.000  H
  H44      1.0000 0.68260  0.61560  0.74710  Biso   1.000  H
  C33      1.0000 0.40800  0.35970  0.39100  Biso   1.000  C
  C34      1.0000 0.59200  0.64030  0.60900  Biso   1.000  C
  C35      1.0000 0.48230  0.43230  0.48950  Biso   1.000  C
  C36      1.0000 0.51770  0.56770  0.51050  Biso   1.000  C
  C37      1.0000 0.47350  0.63200  0.43630  Biso   1.000  C
  C38      1.0000 0.52650  0.36800  0.56370  Biso   1.000  C
  C39      1.0000 0.50920  0.76790  0.46230  Biso   1.000  C
  C40      1.0000 0.49080  0.23210  0.53770  Biso   1.000  C
  H45      1.0000 0.48330  0.81220  0.41430  Biso   1.000  H
  H46      1.0000 0.51670  0.18780  0.58570  Biso   1.000  H
  C41      1.0000 0.57990  0.83460  0.55550  Biso   1.000  C
  C42      1.0000 0.42010  0.16540  0.44450  Biso   1.000  C
  H47      1.0000 0.59950  0.92410  0.57030  Biso   1.000  H
  H48      1.0000 0.40050  0.07590  0.42970  Biso   1.000  H
  C43      1.0000 0.37560  0.22650  0.36990  Biso   1.000  C
  C44      1.0000 0.62440  0.77350  0.63010  Biso   1.000  C
  H49      1.0000 0.32460  0.17860  0.30650  Biso   1.000  H
  H50      1.0000 0.67540  0.82140  0.69350  Biso   1.000  H
