data_image0
_cell_length_a       10.5871
_cell_length_b       20.8938
_cell_length_c       16.6956
_cell_angle_alpha    90
_cell_angle_beta     107.58
_cell_angle_gamma    90

_symmetry_space_group_name_H-M    "P 1"
_symmetry_int_tables_number       1

loop_
  _symmetry_equiv_pos_as_xyz
  'x, y, z'

loop_
  _atom_site_label
  _atom_site_occupancy
  _atom_site_fract_x
  _atom_site_fract_y
  _atom_site_fract_z
  _atom_site_thermal_displace_type
  _atom_site_B_iso_or_equiv
  _atom_site_type_symbol
  C1       1.0000 0.34930  0.32060  0.64550  Biso   1.000  C
  C2       1.0000 0.15070  0.82060  0.85450  Biso   1.000  C
  C3       1.0000 0.65070  0.67940  0.35450  Biso   1.000  C
  C4       1.0000 0.84930  0.17940  0.14550  Biso   1.000  C
  H1       1.0000 0.32770  0.35870  0.61200  Biso   1.000  H
  H2       1.0000 0.17230  0.85870  0.88800  Biso   1.000  H
  H3       1.0000 0.67230  0.64130  0.38800  Biso   1.000  H
  H4       1.0000 0.82770  0.14130  0.11200  Biso   1.000  H
  H5       1.0000 0.44310  0.31920  0.67290  Biso   1.000  H
  H6       1.0000 0.05690  0.81920  0.82710  Biso   1.000  H
  H7       1.0000 0.55690  0.68080  0.32710  Biso   1.000  H
  H8       1.0000 0.94310  0.18080  0.17290  Biso   1.000  H
  H9       1.0000 0.30320  0.32070  0.68690  Biso   1.000  H
  H10      1.0000 0.19680  0.82070  0.81310  Biso   1.000  H
  H11      1.0000 0.69680  0.67930  0.31310  Biso   1.000  H
  H12      1.0000 0.80320  0.17930  0.18690  Biso   1.000  H
  C5       1.0000 0.18240  0.26110  0.54180  Biso   1.000  C
  C6       1.0000 0.31760  0.76110  0.95820  Biso   1.000  C
  C7       1.0000 0.81760  0.73890  0.45820  Biso   1.000  C
  C8       1.0000 0.68240  0.23890  0.04180  Biso   1.000  C
  C9       1.0000 0.08260  0.30300  0.54080  Biso   1.000  C
  C10      1.0000 0.41740  0.80300  0.95920  Biso   1.000  C
  C11      1.0000 0.91740  0.69700  0.45920  Biso   1.000  C
  C12      1.0000 0.58260  0.19700  0.04080  Biso   1.000  C
  H13      1.0000 0.09970  0.33840  0.57610  Biso   1.000  H
  H14      1.0000 0.40030  0.83840  0.92390  Biso   1.000  H
  H15      1.0000 0.90030  0.66160  0.42390  Biso   1.000  H
  H16      1.0000 0.59970  0.16160  0.07610  Biso   1.000  H
  C13      1.0000 0.95550  0.29260  0.48690  Biso   1.000  C
  C14      1.0000 0.54450  0.79260  0.01310  Biso   1.000  C
  C15      1.0000 0.04450  0.70740  0.51310  Biso   1.000  C
  C16      1.0000 0.45550  0.20740  0.98690  Biso   1.000  C
  H17      1.0000 0.88790  0.32130  0.48560  Biso   1.000  H
  H18      1.0000 0.61210  0.82130  0.01440  Biso   1.000  H
  H19      1.0000 0.11210  0.67870  0.51440  Biso   1.000  H
  H20      1.0000 0.38790  0.17870  0.98560  Biso   1.000  H
  C17      1.0000 0.93060  0.24040  0.43620  Biso   1.000  C
  C18      1.0000 0.56940  0.74040  0.06380  Biso   1.000  C
  C19      1.0000 0.06940  0.75960  0.56380  Biso   1.000  C
  C20      1.0000 0.43060  0.25960  0.93620  Biso   1.000  C
  H21      1.0000 0.84480  0.23320  0.40160  Biso   1.000  H
  H22      1.0000 0.65520  0.73320  0.09840  Biso   1.000  H
  H23      1.0000 0.15520  0.76680  0.59840  Biso   1.000  H
  H24      1.0000 0.34480  0.26680  0.90160  Biso   1.000  H
  C21      1.0000 0.03190  0.19650  0.43470  Biso   1.000  C
  C22      1.0000 0.46810  0.69650  0.06530  Biso   1.000  C
  C23      1.0000 0.96810  0.80350  0.56530  Biso   1.000  C
  C24      1.0000 0.53190  0.30350  0.93470  Biso   1.000  C
  C25      1.0000 0.15890  0.20720  0.48870  Biso   1.000  C
  C26      1.0000 0.34110  0.70720  0.01130  Biso   1.000  C
  C27      1.0000 0.84110  0.79280  0.51130  Biso   1.000  C
  C28      1.0000 0.65890  0.29280  0.98870  Biso   1.000  C
  C29      1.0000 0.99960  0.14290  0.37860  Biso   1.000  C
  C30      1.0000 0.50040  0.64290  0.12140  Biso   1.000  C
  C31      1.0000 0.00040  0.85710  0.62140  Biso   1.000  C
  C32      1.0000 0.49960  0.35710  0.87860  Biso   1.000  C
  H25      1.0000 0.91010  0.13760  0.35000  Biso   1.000  H
  H26      1.0000 0.58990  0.63760  0.15000  Biso   1.000  H
  H27      1.0000 0.08990  0.86240  0.65000  Biso   1.000  H
  H28      1.0000 0.41010  0.36240  0.85000  Biso   1.000  H
  C33      1.0000 0.01780  0.05140  0.30050  Biso   1.000  C
  C34      1.0000 0.48220  0.55140  0.19950  Biso   1.000  C
  C35      1.0000 0.98220  0.94860  0.69950  Biso   1.000  C
  C36      1.0000 0.51780  0.44860  0.80050  Biso   1.000  C
  H29      1.0000 0.93060  0.06570  0.26710  Biso   1.000  H
  H30      1.0000 0.56940  0.56570  0.23290  Biso   1.000  H
  H31      1.0000 0.06940  0.93430  0.73290  Biso   1.000  H
  H32      1.0000 0.43060  0.43430  0.76710  Biso   1.000  H
  H33      1.0000 0.00680  0.01270  0.32970  Biso   1.000  H
  H34      1.0000 0.49320  0.51270  0.17030  Biso   1.000  H
  H35      1.0000 0.99320  0.98730  0.67030  Biso   1.000  H
  H36      1.0000 0.50680  0.48730  0.82970  Biso   1.000  H
  C37      1.0000 0.09860  0.03650  0.24330  Biso   1.000  C
  C38      1.0000 0.40140  0.53650  0.25670  Biso   1.000  C
  C39      1.0000 0.90140  0.96350  0.75670  Biso   1.000  C
  C40      1.0000 0.59860  0.46350  0.74330  Biso   1.000  C
  H37      1.0000 0.12860  0.07620  0.22500  Biso   1.000  H
  H38      1.0000 0.37140  0.57620  0.27500  Biso   1.000  H
  H39      1.0000 0.87140  0.92380  0.77500  Biso   1.000  H
  H40      1.0000 0.62860  0.42380  0.72500  Biso   1.000  H
  H41      1.0000 0.04330  0.01460  0.19390  Biso   1.000  H
  H42      1.0000 0.45670  0.51460  0.30610  Biso   1.000  H
  H43      1.0000 0.95670  0.98540  0.80610  Biso   1.000  H
  H44      1.0000 0.54330  0.48540  0.69390  Biso   1.000  H
  C41      1.0000 0.21760  0.99520  0.28480  Biso   1.000  C
  C42      1.0000 0.28240  0.49520  0.21520  Biso   1.000  C
  C43      1.0000 0.78240  0.00480  0.71520  Biso   1.000  C
  C44      1.0000 0.71760  0.50480  0.78480  Biso   1.000  C
  H45      1.0000 0.18880  0.95810  0.30970  Biso   1.000  H
  H46      1.0000 0.31120  0.45810  0.19030  Biso   1.000  H
  H47      1.0000 0.81120  0.04190  0.69030  Biso   1.000  H
  H48      1.0000 0.68880  0.54190  0.80970  Biso   1.000  H
  H49      1.0000 0.25600  0.98000  0.24240  Biso   1.000  H
  H50      1.0000 0.24400  0.48000  0.25760  Biso   1.000  H
  H51      1.0000 0.74400  0.02000  0.75760  Biso   1.000  H
  H52      1.0000 0.75600  0.52000  0.74240  Biso   1.000  H
  C45      1.0000 0.43770  0.00639  0.36630  Biso   1.000  C
  C46      1.0000 0.06230  0.50639  0.13370  Biso   1.000  C
  C47      1.0000 0.56230  0.99361  0.63370  Biso   1.000  C
  C48      1.0000 0.93770  0.49361  0.86630  Biso   1.000  C
  H53      1.0000 0.44450  0.96920  0.33730  Biso   1.000  H
  H54      1.0000 0.05550  0.46920  0.16270  Biso   1.000  H
  H55      1.0000 0.55550  0.03080  0.66270  Biso   1.000  H
  H56      1.0000 0.94450  0.53080  0.83730  Biso   1.000  H
  C49      1.0000 0.55970  0.03038  0.42310  Biso   1.000  C
  C50      1.0000 0.94030  0.53038  0.07690  Biso   1.000  C
  C51      1.0000 0.44030  0.96962  0.57690  Biso   1.000  C
  C52      1.0000 0.05970  0.46962  0.92310  Biso   1.000  C
  C53      1.0000 0.67700  0.99890  0.42430  Biso   1.000  C
  C54      1.0000 0.82300  0.49890  0.07570  Biso   1.000  C
  C55      1.0000 0.32300  0.00110  0.57570  Biso   1.000  C
  C56      1.0000 0.17700  0.50110  0.92430  Biso   1.000  C
  H57      1.0000 0.67320  0.96210  0.39230  Biso   1.000  H
  H58      1.0000 0.82680  0.46210  0.10770  Biso   1.000  H
  H59      1.0000 0.32680  0.03790  0.60770  Biso   1.000  H
  H60      1.0000 0.17320  0.53790  0.89230  Biso   1.000  H
  C57      1.0000 0.79620  0.02150  0.47160  Biso   1.000  C
  C58      1.0000 0.70380  0.52150  0.02840  Biso   1.000  C
  C59      1.0000 0.20380  0.97850  0.52840  Biso   1.000  C
  C60      1.0000 0.29620  0.47850  0.97160  Biso   1.000  C
  H61      1.0000 0.87340  0.00050  0.47110  Biso   1.000  H
  H62      1.0000 0.62660  0.50050  0.02890  Biso   1.000  H
  H63      1.0000 0.12660  0.99950  0.52890  Biso   1.000  H
  H64      1.0000 0.37340  0.49950  0.97110  Biso   1.000  H
  C61      1.0000 0.80430  0.07620  0.52100  Biso   1.000  C
  C62      1.0000 0.69570  0.57620  0.97900  Biso   1.000  C
  C63      1.0000 0.19570  0.92380  0.47900  Biso   1.000  C
  C64      1.0000 0.30430  0.42380  0.02100  Biso   1.000  C
  H65      1.0000 0.88650  0.09190  0.55260  Biso   1.000  H
  H66      1.0000 0.61350  0.59190  0.94740  Biso   1.000  H
  H67      1.0000 0.11350  0.90810  0.44740  Biso   1.000  H
  H68      1.0000 0.38650  0.40810  0.05260  Biso   1.000  H
  C65      1.0000 0.69020  0.10664  0.52260  Biso   1.000  C
  C66      1.0000 0.80980  0.60664  0.97740  Biso   1.000  C
  C67      1.0000 0.30980  0.89336  0.47740  Biso   1.000  C
  C68      1.0000 0.19020  0.39336  0.02260  Biso   1.000  C
  C69      1.0000 0.56570  0.08450  0.47300  Biso   1.000  C
  C70      1.0000 0.93430  0.58450  0.02700  Biso   1.000  C
  C71      1.0000 0.43430  0.91550  0.52700  Biso   1.000  C
  C72      1.0000 0.06570  0.41550  0.97300  Biso   1.000  C
  C73      1.0000 0.80410  0.18890  0.61790  Biso   1.000  C
  C74      1.0000 0.69590  0.68890  0.88210  Biso   1.000  C
  C75      1.0000 0.19590  0.81110  0.38210  Biso   1.000  C
  C76      1.0000 0.30410  0.31110  0.11790  Biso   1.000  C
  H69      1.0000 0.85390  0.15990  0.66040  Biso   1.000  H
  H70      1.0000 0.64610  0.65990  0.83960  Biso   1.000  H
  H71      1.0000 0.14610  0.84010  0.33960  Biso   1.000  H
  H72      1.0000 0.35390  0.34010  0.16040  Biso   1.000  H
  H73      1.0000 0.78460  0.22700  0.64400  Biso   1.000  H
  H74      1.0000 0.71540  0.72700  0.85600  Biso   1.000  H
  H75      1.0000 0.21540  0.77300  0.35600  Biso   1.000  H
  H76      1.0000 0.28460  0.27300  0.14400  Biso   1.000  H
  H77      1.0000 0.85510  0.19980  0.58110  Biso   1.000  H
  H78      1.0000 0.64490  0.69980  0.91890  Biso   1.000  H
  H79      1.0000 0.14490  0.80020  0.41890  Biso   1.000  H
  H80      1.0000 0.35510  0.30020  0.08110  Biso   1.000  H
  C77      1.0000 0.56340  0.17637  0.72810  Biso   1.000  C
  C78      1.0000 0.93660  0.67637  0.77190  Biso   1.000  C
  C79      1.0000 0.43660  0.82363  0.27190  Biso   1.000  C
  C80      1.0000 0.06340  0.32363  0.22810  Biso   1.000  C
  C81      1.0000 0.60070  0.13666  0.80700  Biso   1.000  C
  C82      1.0000 0.89930  0.63666  0.69300  Biso   1.000  C
  C83      1.0000 0.39930  0.86334  0.19300  Biso   1.000  C
  C84      1.0000 0.10070  0.36334  0.30700  Biso   1.000  C
  C85      1.0000 0.51390  0.09191  0.82200  Biso   1.000  C
  C86      1.0000 0.98610  0.59191  0.67800  Biso   1.000  C
  C87      1.0000 0.48610  0.90809  0.17800  Biso   1.000  C
  C88      1.0000 0.01390  0.40809  0.32200  Biso   1.000  C
  H81      1.0000 0.43110  0.08590  0.78280  Biso   1.000  H
  H82      1.0000 0.06890  0.58590  0.71720  Biso   1.000  H
  H83      1.0000 0.56890  0.91410  0.21720  Biso   1.000  H
  H84      1.0000 0.93110  0.41410  0.28280  Biso   1.000  H
  C89      1.0000 0.55020  0.05600  0.89540  Biso   1.000  C
  C90      1.0000 0.94980  0.55600  0.60460  Biso   1.000  C
  C91      1.0000 0.44980  0.94400  0.10460  Biso   1.000  C
  C92      1.0000 0.05020  0.44400  0.39540  Biso   1.000  C
  H85      1.0000 0.49070  0.02740  0.90690  Biso   1.000  H
  H86      1.0000 0.00930  0.52740  0.59310  Biso   1.000  H
  H87      1.0000 0.50930  0.97260  0.09310  Biso   1.000  H
  H88      1.0000 0.99070  0.47260  0.40690  Biso   1.000  H
  C93      1.0000 0.67470  0.06310  0.95050  Biso   1.000  C
  C94      1.0000 0.82530  0.56310  0.54950  Biso   1.000  C
  C95      1.0000 0.32530  0.93690  0.04950  Biso   1.000  C
  C96      1.0000 0.17470  0.43690  0.45050  Biso   1.000  C
  C97      1.0000 0.76300  0.10626  0.93620  Biso   1.000  C
  C98      1.0000 0.73700  0.60626  0.56380  Biso   1.000  C
  C99      1.0000 0.23700  0.89374  0.06380  Biso   1.000  C
  C100     1.0000 0.26300  0.39374  0.43620  Biso   1.000  C
  H89      1.0000 0.84740  0.11030  0.97400  Biso   1.000  H
  H90      1.0000 0.65260  0.61030  0.52600  Biso   1.000  H
  H91      1.0000 0.15260  0.88970  0.02600  Biso   1.000  H
  H92      1.0000 0.34740  0.38970  0.47400  Biso   1.000  H
  C101     1.0000 0.72460  0.14358  0.86450  Biso   1.000  C
  C102     1.0000 0.77540  0.64358  0.63550  Biso   1.000  C
  C103     1.0000 0.27540  0.85642  0.13550  Biso   1.000  C
  C104     1.0000 0.22460  0.35642  0.36450  Biso   1.000  C
  H93      1.0000 0.78300  0.17380  0.85500  Biso   1.000  H
  H94      1.0000 0.71700  0.67380  0.64500  Biso   1.000  H
  H95      1.0000 0.21700  0.82620  0.14500  Biso   1.000  H
  H96      1.0000 0.28300  0.32620  0.35500  Biso   1.000  H
  C105     1.0000 0.76950  0.97019  0.02660  Biso   1.000  C
  C106     1.0000 0.73050  0.47019  0.47340  Biso   1.000  C
  C107     1.0000 0.23050  0.02981  0.97340  Biso   1.000  C
  C108     1.0000 0.26950  0.52981  0.52660  Biso   1.000  C
  C109     1.0000 0.81630  0.94029  0.10380  Biso   1.000  C
  C110     1.0000 0.68370  0.44029  0.39620  Biso   1.000  C
  C111     1.0000 0.18370  0.05971  0.89620  Biso   1.000  C
  C112     1.0000 0.31630  0.55971  0.60380  Biso   1.000  C
  H97      1.0000 0.80640  0.95960  0.15180  Biso   1.000  H
  H98      1.0000 0.69360  0.45960  0.34820  Biso   1.000  H
  H99      1.0000 0.19360  0.04040  0.84820  Biso   1.000  H
  H100     1.0000 0.30640  0.54040  0.65180  Biso   1.000  H
  C113     1.0000 0.87760  0.88168  0.10910  Biso   1.000  C
  C114     1.0000 0.62240  0.38168  0.39090  Biso   1.000  C
  C115     1.0000 0.12240  0.11832  0.89090  Biso   1.000  C
  C116     1.0000 0.37760  0.61832  0.60910  Biso   1.000  C
  H101     1.0000 0.91070  0.86200  0.16120  Biso   1.000  H
  H102     1.0000 0.58930  0.36200  0.33880  Biso   1.000  H
  H103     1.0000 0.08930  0.13800  0.83880  Biso   1.000  H
  H104     1.0000 0.41070  0.63800  0.66120  Biso   1.000  H
  C117     1.0000 0.89120  0.85141  0.03850  Biso   1.000  C
  C118     1.0000 0.60880  0.35141  0.46150  Biso   1.000  C
  C119     1.0000 0.10880  0.14859  0.96150  Biso   1.000  C
  C120     1.0000 0.39120  0.64859  0.53850  Biso   1.000  C
  C121     1.0000 0.84470  0.88220  0.96200  Biso   1.000  C
  C122     1.0000 0.65530  0.38220  0.53800  Biso   1.000  C
  C123     1.0000 0.15530  0.11780  0.03800  Biso   1.000  C
  C124     1.0000 0.34470  0.61780  0.46200  Biso   1.000  C
  H105     1.0000 0.85480  0.86290  0.91410  Biso   1.000  H
  H106     1.0000 0.64520  0.36290  0.58590  Biso   1.000  H
  H107     1.0000 0.14520  0.13710  0.08590  Biso   1.000  H
  H108     1.0000 0.35480  0.63710  0.41410  Biso   1.000  H
  C125     1.0000 0.78390  0.94078  0.95540  Biso   1.000  C
  C126     1.0000 0.71610  0.44078  0.54460  Biso   1.000  C
  C127     1.0000 0.21610  0.05922  0.04460  Biso   1.000  C
  C128     1.0000 0.28390  0.55922  0.45540  Biso   1.000  C
  H109     1.0000 0.75250  0.96070  0.90330  Biso   1.000  H
  H110     1.0000 0.74750  0.46070  0.59670  Biso   1.000  H
  H111     1.0000 0.24750  0.03930  0.09670  Biso   1.000  H
  H112     1.0000 0.25250  0.53930  0.40330  Biso   1.000  H
  C129     1.0000 0.95750  0.78734  0.04470  Biso   1.000  C
  C130     1.0000 0.54250  0.28734  0.45530  Biso   1.000  C
  C131     1.0000 0.04250  0.21266  0.95530  Biso   1.000  C
  C132     1.0000 0.45750  0.71266  0.54470  Biso   1.000  C
  C133     1.0000 0.16840  0.13690  0.69250  Biso   1.000  C
  C134     1.0000 0.33160  0.63690  0.80750  Biso   1.000  C
  C135     1.0000 0.83160  0.86310  0.30750  Biso   1.000  C
  C136     1.0000 0.66840  0.36310  0.19250  Biso   1.000  C
  C137     1.0000 0.22770  0.19300  0.73760  Biso   1.000  C
  C138     1.0000 0.27230  0.69300  0.76240  Biso   1.000  C
  C139     1.0000 0.77230  0.80700  0.26240  Biso   1.000  C
  C140     1.0000 0.72770  0.30700  0.23760  Biso   1.000  C
  H113     1.0000 0.15950  0.22100  0.74400  Biso   1.000  H
  H114     1.0000 0.34050  0.72100  0.75600  Biso   1.000  H
  H115     1.0000 0.84050  0.77900  0.25600  Biso   1.000  H
  H116     1.0000 0.65950  0.27900  0.24400  Biso   1.000  H
  H117     1.0000 0.27840  0.21470  0.70690  Biso   1.000  H
  H118     1.0000 0.22160  0.71470  0.79310  Biso   1.000  H
  H119     1.0000 0.72160  0.78530  0.29310  Biso   1.000  H
  H120     1.0000 0.77840  0.28530  0.20690  Biso   1.000  H
  H121     1.0000 0.28480  0.18100  0.79190  Biso   1.000  H
  H122     1.0000 0.21520  0.68100  0.70810  Biso   1.000  H
  H123     1.0000 0.71520  0.81900  0.20810  Biso   1.000  H
  H124     1.0000 0.78480  0.31900  0.29190  Biso   1.000  H
  C141     1.0000 0.11690  0.41700  0.72970  Biso   1.000  C
  C142     1.0000 0.38310  0.91700  0.77030  Biso   1.000  C
  C143     1.0000 0.88310  0.58300  0.27030  Biso   1.000  C
  C144     1.0000 0.61690  0.08300  0.22970  Biso   1.000  C
  H125     1.0000 0.06100  0.44950  0.69640  Biso   1.000  H
  H126     1.0000 0.43900  0.94950  0.80360  Biso   1.000  H
  H127     1.0000 0.93900  0.55050  0.30360  Biso   1.000  H
  H128     1.0000 0.56100  0.05050  0.19640  Biso   1.000  H
  H129     1.0000 0.17730  0.40180  0.70120  Biso   1.000  H
  H130     1.0000 0.32270  0.90180  0.79880  Biso   1.000  H
  H131     1.0000 0.82270  0.59820  0.29880  Biso   1.000  H
  H132     1.0000 0.67730  0.09820  0.20120  Biso   1.000  H
  H133     1.0000 0.16600  0.43450  0.78320  Biso   1.000  H
  H134     1.0000 0.33400  0.93450  0.71680  Biso   1.000  H
  H135     1.0000 0.83400  0.56550  0.21680  Biso   1.000  H
  H136     1.0000 0.66600  0.06550  0.28320  Biso   1.000  H
  C145     1.0000 0.02930  0.36000  0.74330  Biso   1.000  C
  C146     1.0000 0.47070  0.86000  0.75670  Biso   1.000  C
  C147     1.0000 0.97070  0.64000  0.25670  Biso   1.000  C
  C148     1.0000 0.52930  0.14000  0.24330  Biso   1.000  C
  H137     1.0000 0.97420  0.37270  0.77760  Biso   1.000  H
  H138     1.0000 0.52580  0.87270  0.72240  Biso   1.000  H
  H139     1.0000 0.02580  0.62730  0.22240  Biso   1.000  H
  H140     1.0000 0.47420  0.12730  0.27760  Biso   1.000  H
  H141     1.0000 0.97360  0.34320  0.69020  Biso   1.000  H
  H142     1.0000 0.52640  0.84320  0.80980  Biso   1.000  H
  H143     1.0000 0.02640  0.65680  0.30980  Biso   1.000  H
  H144     1.0000 0.47360  0.15680  0.19020  Biso   1.000  H
  Co1      1.0000 0.45160  0.18973  0.55250  Biso   1.000  Co
  Co2      1.0000 0.04840  0.68973  0.94750  Biso   1.000  Co
  Co3      1.0000 0.54840  0.81027  0.44750  Biso   1.000  Co
  Co4      1.0000 0.95160  0.31027  0.05250  Biso   1.000  Co
  Cu1      1.0000 0.27360  0.10448  0.40941  Biso   1.000  Cu
  Cu2      1.0000 0.22640  0.60448  0.09059  Biso   1.000  Cu
  Cu3      1.0000 0.72640  0.89552  0.59059  Biso   1.000  Cu
  Cu4      1.0000 0.77360  0.39552  0.90941  Biso   1.000  Cu
  N1       1.0000 0.07850  0.10090  0.36230  Biso   1.000  N
  N2       1.0000 0.42150  0.60090  0.13770  Biso   1.000  N
  N3       1.0000 0.92150  0.89910  0.63770  Biso   1.000  N
  N4       1.0000 0.57850  0.39910  0.86230  Biso   1.000  N
  N5       1.0000 0.32050  0.02987  0.35087  Biso   1.000  N
  N6       1.0000 0.17950  0.52987  0.14913  Biso   1.000  N
  N7       1.0000 0.67950  0.97013  0.64913  Biso   1.000  N
  N8       1.0000 0.82050  0.47013  0.85087  Biso   1.000  N
  N9       1.0000 0.12160  0.09510  0.66360  Biso   1.000  N
  N10      1.0000 0.37840  0.59510  0.83640  Biso   1.000  N
  N11      1.0000 0.87840  0.90490  0.33640  Biso   1.000  N
  N12      1.0000 0.62160  0.40490  0.16360  Biso   1.000  N
  O1       1.0000 0.31060  0.26563  0.59255  Biso   1.000  O
  O2       1.0000 0.18940  0.76563  0.90745  Biso   1.000  O
  O3       1.0000 0.68940  0.73437  0.40745  Biso   1.000  O
  O4       1.0000 0.81060  0.23437  0.09255  Biso   1.000  O
  O5       1.0000 0.26020  0.16892  0.49143  Biso   1.000  O
  O6       1.0000 0.23980  0.66892  0.00857  Biso   1.000  O
  O7       1.0000 0.73980  0.83108  0.50857  Biso   1.000  O
  O8       1.0000 0.76020  0.33108  0.99143  Biso   1.000  O
  O9       1.0000 0.45780  0.11537  0.47603  Biso   1.000  O
  O10      1.0000 0.04220  0.61537  0.02397  Biso   1.000  O
  O11      1.0000 0.54220  0.88463  0.52397  Biso   1.000  O
  O12      1.0000 0.95780  0.38463  0.97603  Biso   1.000  O
  O13      1.0000 0.68290  0.15895  0.57054  Biso   1.000  O
  O14      1.0000 0.81710  0.65895  0.92946  Biso   1.000  O
  O15      1.0000 0.31710  0.84105  0.42946  Biso   1.000  O
  O16      1.0000 0.18290  0.34105  0.07054  Biso   1.000  O
  O17      1.0000 0.48060  0.15024  0.66455  Biso   1.000  O
  O18      1.0000 0.01940  0.65024  0.83545  Biso   1.000  O
  O19      1.0000 0.51940  0.84976  0.33545  Biso   1.000  O
  O20      1.0000 0.98060  0.34976  0.16455  Biso   1.000  O
  O21      1.0000 0.61250  0.22962  0.72745  Biso   1.000  O
  O22      1.0000 0.88750  0.72962  0.77255  Biso   1.000  O
  O23      1.0000 0.38750  0.77038  0.27255  Biso   1.000  O
  O24      1.0000 0.11250  0.27038  0.22745  Biso   1.000  O
  O25      1.0000 0.98100  0.75621  0.11068  Biso   1.000  O
  O26      1.0000 0.51900  0.25621  0.38932  Biso   1.000  O
  O27      1.0000 0.01900  0.24379  0.88932  Biso   1.000  O
  O28      1.0000 0.48100  0.74379  0.61068  Biso   1.000  O
  O29      1.0000 0.98530  0.77048  0.97937  Biso   1.000  O
  O30      1.0000 0.51470  0.27048  0.52063  Biso   1.000  O
  O31      1.0000 0.01470  0.22952  0.02063  Biso   1.000  O
  O32      1.0000 0.48530  0.72952  0.47937  Biso   1.000  O
  O33      1.0000 0.70960  0.02878  0.02612  Biso   1.000  O
  O34      1.0000 0.79040  0.52878  0.47388  Biso   1.000  O
  O35      1.0000 0.29040  0.97122  0.97388  Biso   1.000  O
  O36      1.0000 0.20960  0.47122  0.52612  Biso   1.000  O
  O37      1.0000 0.29560  0.18270  0.31710  Biso   1.000  O
  O38      1.0000 0.20440  0.68270  0.18290  Biso   1.000  O
  O39      1.0000 0.70440  0.81730  0.68290  Biso   1.000  O
  O40      1.0000 0.79560  0.31730  0.81710  Biso   1.000  O
  O41      1.0000 0.13150  0.31310  0.78750  Biso   1.000  O
  O42      1.0000 0.36850  0.81310  0.71250  Biso   1.000  O
  O43      1.0000 0.86850  0.68690  0.21250  Biso   1.000  O
  O44      1.0000 0.63150  0.18690  0.28750  Biso   1.000  O
  H145     1.0000 0.09990  0.28840  0.81450  Biso   1.000  H
  H146     1.0000 0.40010  0.78840  0.68550  Biso   1.000  H
  H147     1.0000 0.90010  0.71160  0.18550  Biso   1.000  H
  H148     1.0000 0.59990  0.21160  0.31450  Biso   1.000  H
  H149     1.0000 0.24400  0.20400  0.29400  Biso   1.000  H
  H150     1.0000 0.25600  0.70400  0.20600  Biso   1.000  H
  H151     1.0000 0.75600  0.79600  0.70600  Biso   1.000  H
  H152     1.0000 0.74400  0.29600  0.79400  Biso   1.000  H
  H153     1.0000 0.36000  0.20600  0.34200  Biso   1.000  H
  H154     1.0000 0.14000  0.70600  0.15800  Biso   1.000  H
  H155     1.0000 0.64000  0.79400  0.65800  Biso   1.000  H
  H156     1.0000 0.86000  0.29400  0.84200  Biso   1.000  H
