data_image0
_cell_length_a       9.8331
_cell_length_b       11.3315
_cell_length_c       13.8667
_cell_angle_alpha    99.618
_cell_angle_beta     96.924
_cell_angle_gamma    93.266

_symmetry_space_group_name_H-M    "P 1"
_symmetry_int_tables_number       1

loop_
  _symmetry_equiv_pos_as_xyz
  'x, y, z'

loop_
  _atom_site_label
  _atom_site_occupancy
  _atom_site_fract_x
  _atom_site_fract_y
  _atom_site_fract_z
  _atom_site_thermal_displace_type
  _atom_site_B_iso_or_equiv
  _atom_site_type_symbol
  C1       1.0000 0.06070  0.81720  0.35000  Biso   1.000  C
  C2       1.0000 0.93930  0.18280  0.65000  Biso   1.000  C
  H1       1.0000 0.00810  0.80030  0.40080  Biso   1.000  H
  H2       1.0000 0.99190  0.19970  0.59920  Biso   1.000  H
  H3       1.0000 0.09810  0.89930  0.36540  Biso   1.000  H
  H4       1.0000 0.90190  0.10070  0.63460  Biso   1.000  H
  H5       1.0000 0.13420  0.76510  0.34590  Biso   1.000  H
  H6       1.0000 0.86580  0.23490  0.65410  Biso   1.000  H
  C3       1.0000 0.03000  0.82000  0.17630  Biso   1.000  C
  C4       1.0000 0.97000  0.18000  0.82370  Biso   1.000  C
  C5       1.0000 0.16540  0.85690  0.17420  Biso   1.000  C
  C6       1.0000 0.83460  0.14310  0.82580  Biso   1.000  C
  H7       1.0000 0.22790  0.86810  0.23150  Biso   1.000  H
  H8       1.0000 0.77210  0.13190  0.76850  Biso   1.000  H
  C7       1.0000 0.20790  0.87720  0.08640  Biso   1.000  C
  C8       1.0000 0.79210  0.12280  0.91360  Biso   1.000  C
  H9       1.0000 0.29960  0.90070  0.08460  Biso   1.000  H
  H10      1.0000 0.70040  0.09930  0.91540  Biso   1.000  H
  C9       1.0000 0.11670  0.86300  0.00290  Biso   1.000  C
  C10      1.0000 0.88330  0.13700  0.99710  Biso   1.000  C
  H11      1.0000 0.14620  0.87970  0.94500  Biso   1.000  H
  H12      1.0000 0.85380  0.12030  0.05500  Biso   1.000  H
  C11      1.0000 0.97780  0.82320  0.00240  Biso   1.000  C
  C12      1.0000 0.02220  0.17680  0.99760  Biso   1.000  C
  C13      1.0000 0.93430  0.79980  0.08990  Biso   1.000  C
  C14      1.0000 0.06570  0.20020  0.91010  Biso   1.000  C
  C15      1.0000 0.88580  0.81730  0.91210  Biso   1.000  C
  C16      1.0000 0.11420  0.18270  0.08790  Biso   1.000  C
  H13      1.0000 0.92620  0.83770  0.85930  Biso   1.000  H
  H14      1.0000 0.07380  0.16230  0.14070  Biso   1.000  H
  C17      1.0000 0.69170  0.80390  0.79620  Biso   1.000  C
  C18      1.0000 0.30830  0.19610  0.20380  Biso   1.000  C
  H15      1.0000 0.65280  0.88120  0.80260  Biso   1.000  H
  H16      1.0000 0.34720  0.11880  0.19740  Biso   1.000  H
  H17      1.0000 0.76200  0.80550  0.75290  Biso   1.000  H
  H18      1.0000 0.23800  0.19450  0.24710  Biso   1.000  H
  C19      1.0000 0.58660  0.71370  0.75110  Biso   1.000  C
  C20      1.0000 0.41340  0.28630  0.24890  Biso   1.000  C
  H19      1.0000 0.62720  0.63720  0.74500  Biso   1.000  H
  H20      1.0000 0.37280  0.36280  0.25500  Biso   1.000  H
  H21      1.0000 0.55880  0.72760  0.68470  Biso   1.000  H
  H22      1.0000 0.44120  0.27240  0.31530  Biso   1.000  H
  C21      1.0000 0.46060  0.70080  0.79820  Biso   1.000  C
  C22      1.0000 0.53940  0.29920  0.20180  Biso   1.000  C
  H23      1.0000 0.40110  0.63510  0.75790  Biso   1.000  H
  H24      1.0000 0.59890  0.36490  0.24210  Biso   1.000  H
  H25      1.0000 0.41320  0.77330  0.79670  Biso   1.000  H
  H26      1.0000 0.58680  0.22670  0.20330  Biso   1.000  H
  C23      1.0000 0.37210  0.62560  0.92540  Biso   1.000  C
  C24      1.0000 0.62790  0.37440  0.07460  Biso   1.000  C
  H27      1.0000 0.30060  0.59950  0.87460  Biso   1.000  H
  H28      1.0000 0.69940  0.40050  0.12540  Biso   1.000  H
  C25      1.0000 0.34900  0.60090  0.02050  Biso   1.000  C
  C26      1.0000 0.65100  0.39910  0.97950  Biso   1.000  C
  C27      1.0000 0.21670  0.55130  0.02840  Biso   1.000  C
  C28      1.0000 0.78330  0.44870  0.97160  Biso   1.000  C
  H29      1.0000 0.15240  0.53030  0.97230  Biso   1.000  H
  H30      1.0000 0.84760  0.46970  0.02770  Biso   1.000  H
  C29      1.0000 0.18220  0.53370  0.11750  Biso   1.000  C
  C30      1.0000 0.81780  0.46630  0.88250  Biso   1.000  C
  H31      1.0000 0.09530  0.49970  0.12160  Biso   1.000  H
  H32      1.0000 0.90470  0.50030  0.87840  Biso   1.000  H
  C31      1.0000 0.27700  0.56660  0.20270  Biso   1.000  C
  C32      1.0000 0.72300  0.43340  0.79730  Biso   1.000  C
  H33      1.0000 0.25210  0.55720  0.26370  Biso   1.000  H
  H34      1.0000 0.74790  0.44280  0.73630  Biso   1.000  H
  C33      1.0000 0.40740  0.61310  0.19620  Biso   1.000  C
  C34      1.0000 0.59260  0.38690  0.80380  Biso   1.000  C
  C35      1.0000 0.44670  0.63040  0.10490  Biso   1.000  C
  C36      1.0000 0.55330  0.36960  0.89510  Biso   1.000  C
  C37      1.0000 0.48130  0.63630  0.37050  Biso   1.000  C
  C38      1.0000 0.51870  0.36370  0.62950  Biso   1.000  C
  H35      1.0000 0.56230  0.66230  0.41700  Biso   1.000  H
  H36      1.0000 0.43770  0.33770  0.58300  Biso   1.000  H
  H37      1.0000 0.45370  0.55420  0.37260  Biso   1.000  H
  H38      1.0000 0.54630  0.44580  0.62740  Biso   1.000  H
  H39      1.0000 0.40860  0.68580  0.38710  Biso   1.000  H
  H40      1.0000 0.59140  0.31420  0.61290  Biso   1.000  H
  C39      1.0000 0.58460  0.91860  0.30896  Biso   1.000  C
  C40      1.0000 0.41540  0.08140  0.69104  Biso   1.000  C
  C41      1.0000 0.54330  0.96090  0.40881  Biso   1.000  C
  C42      1.0000 0.45670  0.03910  0.59119  Biso   1.000  C
  C43      1.0000 0.62170  0.94220  0.49626  Biso   1.000  C
  C44      1.0000 0.37830  0.05780  0.50374  Biso   1.000  C
  C45      1.0000 0.42440  0.01870  0.41452  Biso   1.000  C
  C46      1.0000 0.57560  0.98130  0.58548  Biso   1.000  C
  H41      1.0000 0.37360  0.03180  0.35670  Biso   1.000  H
  H42      1.0000 0.62640  0.96820  0.64330  Biso   1.000  H
  C47      1.0000 0.87530  0.54700  0.31120  Biso   1.000  C
  C48      1.0000 0.12470  0.45300  0.68880  Biso   1.000  C
  C49      1.0000 0.93940  0.52130  0.40886  Biso   1.000  C
  C50      1.0000 0.06060  0.47870  0.59114  Biso   1.000  C
  C51      1.0000 0.89770  0.57830  0.49590  Biso   1.000  C
  C52      1.0000 0.10230  0.42170  0.50410  Biso   1.000  C
  H43      1.0000 0.82850  0.63080  0.49310  Biso   1.000  H
  H44      1.0000 0.17150  0.36920  0.50690  Biso   1.000  H
  C53      1.0000 0.04260  0.44180  0.41325  Biso   1.000  C
  C54      1.0000 0.95740  0.55820  0.58675  Biso   1.000  C
  Co1      1.0000 0.72833  0.72071  0.21404  Biso   1.000  Co
  Co2      1.0000 0.27167  0.27929  0.78596  Biso   1.000  Co
  Cu1      1.0000 0.64781  0.73377  0.99198  Biso   1.000  Cu
  Cu2      1.0000 0.35219  0.26623  0.00802  Biso   1.000  Cu
  N1       1.0000 0.75760  0.78830  0.89473  Biso   1.000  N
  N2       1.0000 0.24240  0.21170  0.10527  Biso   1.000  N
  N3       1.0000 0.47720  0.67860  0.90110  Biso   1.000  N
  N4       1.0000 0.52280  0.32140  0.09890  Biso   1.000  N
  O1       1.0000 0.97400  0.79780  0.25781  Biso   1.000  O
  O2       1.0000 0.02600  0.20220  0.74219  Biso   1.000  O
  O3       1.0000 0.80665  0.75770  0.09452  Biso   1.000  O
  O4       1.0000 0.19335  0.24230  0.90548  Biso   1.000  O
  O5       1.0000 0.57449  0.67323  0.10155  Biso   1.000  O
  O6       1.0000 0.42551  0.32677  0.89845  Biso   1.000  O
  O7       1.0000 0.51010  0.64600  0.27383  Biso   1.000  O
  O8       1.0000 0.48990  0.35400  0.72617  Biso   1.000  O
  O9       1.0000 0.69840  0.86690  0.30854  Biso   1.000  O
  O10      1.0000 0.30160  0.13310  0.69146  Biso   1.000  O
  O11      1.0000 0.51130  0.93380  0.23452  Biso   1.000  O
  O12      1.0000 0.48870  0.06620  0.76548  Biso   1.000  O
  O13      1.0000 0.79060  0.62600  0.31369  Biso   1.000  O
  O14      1.0000 0.20940  0.37400  0.68631  Biso   1.000  O
  O15      1.0000 0.90820  0.48910  0.23376  Biso   1.000  O
  O16      1.0000 0.09180  0.51090  0.76624  Biso   1.000  O
  O17      1.0000 0.74030  0.88560  0.49712  Biso   1.000  O
  O18      1.0000 0.25970  0.11440  0.50288  Biso   1.000  O
  H45      1.0000 0.75740  0.86660  0.44040  Biso   1.000  H
  H46      1.0000 0.24260  0.13340  0.55960  Biso   1.000  H
  O19      1.0000 0.08710  0.38360  0.32982  Biso   1.000  O
  O20      1.0000 0.91290  0.61640  0.67018  Biso   1.000  O
  H47      1.0000 0.03910  0.39780  0.28110  Biso   1.000  H
  H48      1.0000 0.96090  0.60220  0.71890  Biso   1.000  H
  O21      1.0000 0.59340  0.93480  0.05501  Biso   1.000  O
  O22      1.0000 0.40660  0.06520  0.94499  Biso   1.000  O
  C55      1.0000 0.19780  0.80380  0.61040  Biso   1.000  C
  C56      1.0000 0.80220  0.19620  0.38960  Biso   1.000  C
  C57      1.0000 0.08000  0.87800  0.63990  Biso   1.000  C
  C58      1.0000 0.92000  0.12200  0.36010  Biso   1.000  C
  N5       1.0000 0.27470  0.75230  0.56680  Biso   1.000  N
  N6       1.0000 0.72530  0.24770  0.43320  Biso   1.000  N
  C59      1.0000 0.54010  0.78610  0.78060  Biso   1.000  C
  C60      1.0000 0.45990  0.21390  0.21940  Biso   1.000  C
  C61      1.0000 0.14090  0.87840  0.70730  Biso   1.000  C
  C62      1.0000 0.85910  0.12160  0.29270  Biso   1.000  C
  C63      1.0000 0.12600  0.84000  0.59550  Biso   1.000  C
  C64      1.0000 0.87400  0.16000  0.40450  Biso   1.000  C
  H49      1.0000 0.50970  0.85870  0.81640  Biso   1.000  H
  H50      1.0000 0.49030  0.14130  0.18360  Biso   1.000  H
  H51      1.0000 0.51450  0.78860  0.71120  Biso   1.000  H
  H52      1.0000 0.48550  0.21140  0.28880  Biso   1.000  H
  H53      1.0000 0.47570  0.62730  0.75500  Biso   1.000  H
  H54      1.0000 0.52430  0.37270  0.24500  Biso   1.000  H
  H55      1.0000 0.36630  0.71830  0.78090  Biso   1.000  H
  H56      1.0000 0.63370  0.28170  0.21910  Biso   1.000  H
  H57      1.0000 0.71830  0.88430  0.78620  Biso   1.000  H
  H58      1.0000 0.28170  0.11570  0.21380  Biso   1.000  H
  H59      1.0000 0.72720  0.74780  0.74640  Biso   1.000  H
  H60      1.0000 0.27280  0.25220  0.25360  Biso   1.000  H
  N7       1.0000 0.17980  0.91830  0.78790  Biso   1.000  N
  N8       1.0000 0.82020  0.08170  0.21210  Biso   1.000  N
