data_image0
_cell_length_a       15.236
_cell_length_b       10.124
_cell_length_c       15.653
_cell_angle_alpha    90
_cell_angle_beta     93.066
_cell_angle_gamma    90

_symmetry_space_group_name_H-M    "P 1"
_symmetry_int_tables_number       1

loop_
  _symmetry_equiv_pos_as_xyz
  'x, y, z'

loop_
  _atom_site_label
  _atom_site_occupancy
  _atom_site_fract_x
  _atom_site_fract_y
  _atom_site_fract_z
  _atom_site_thermal_displace_type
  _atom_site_B_iso_or_equiv
  _atom_site_type_symbol
  C1       1.0000 0.17570  0.98390  0.04060  Biso   1.000  C
  C2       1.0000 0.32430  0.48390  0.45940  Biso   1.000  C
  C3       1.0000 0.82430  0.01610  0.95940  Biso   1.000  C
  C4       1.0000 0.67570  0.51610  0.54060  Biso   1.000  C
  H1       1.0000 0.21390  0.91690  0.06510  Biso   1.000  H
  H2       1.0000 0.28610  0.41690  0.43490  Biso   1.000  H
  H3       1.0000 0.78610  0.08310  0.93490  Biso   1.000  H
  H4       1.0000 0.71390  0.58310  0.56510  Biso   1.000  H
  H5       1.0000 0.21030  0.05340  0.01780  Biso   1.000  H
  H6       1.0000 0.28970  0.55340  0.48220  Biso   1.000  H
  H7       1.0000 0.78970  0.94660  0.98220  Biso   1.000  H
  H8       1.0000 0.71030  0.44660  0.51780  Biso   1.000  H
  H9       1.0000 0.13850  0.94610  0.99550  Biso   1.000  H
  H10      1.0000 0.36150  0.44610  0.50450  Biso   1.000  H
  H11      1.0000 0.86150  0.05390  0.00450  Biso   1.000  H
  H12      1.0000 0.63850  0.55390  0.49550  Biso   1.000  H
  C5       1.0000 0.06376  0.13460  0.07987  Biso   1.000  C
  C6       1.0000 0.43624  0.63460  0.42013  Biso   1.000  C
  C7       1.0000 0.93624  0.86540  0.92013  Biso   1.000  C
  C8       1.0000 0.56376  0.36540  0.57987  Biso   1.000  C
  C9       1.0000 0.04560  0.17430  0.99597  Biso   1.000  C
  C10      1.0000 0.45440  0.67430  0.50403  Biso   1.000  C
  C11      1.0000 0.95440  0.82570  0.00403  Biso   1.000  C
  C12      1.0000 0.54560  0.32570  0.49597  Biso   1.000  C
  H13      1.0000 0.07190  0.13230  0.95110  Biso   1.000  H
  H14      1.0000 0.42810  0.63230  0.54890  Biso   1.000  H
  H15      1.0000 0.92810  0.86770  0.04890  Biso   1.000  H
  H16      1.0000 0.57190  0.36770  0.45110  Biso   1.000  H
  C13      1.0000 0.98660  0.27940  0.98030  Biso   1.000  C
  C14      1.0000 0.51340  0.77940  0.51970  Biso   1.000  C
  C15      1.0000 0.01340  0.72060  0.01970  Biso   1.000  C
  C16      1.0000 0.48660  0.22060  0.48030  Biso   1.000  C
  H17      1.0000 0.97470  0.30880  0.92460  Biso   1.000  H
  H18      1.0000 0.52530  0.80880  0.57540  Biso   1.000  H
  H19      1.0000 0.02530  0.69120  0.07540  Biso   1.000  H
  H20      1.0000 0.47470  0.19120  0.42460  Biso   1.000  H
  C17      1.0000 0.94680  0.33810  0.04570  Biso   1.000  C
  C18      1.0000 0.55320  0.83810  0.45430  Biso   1.000  C
  C19      1.0000 0.05320  0.66190  0.95430  Biso   1.000  C
  C20      1.0000 0.44680  0.16190  0.54570  Biso   1.000  C
  H21      1.0000 0.90740  0.40670  0.03380  Biso   1.000  H
  H22      1.0000 0.59260  0.90670  0.46620  Biso   1.000  H
  H23      1.0000 0.09260  0.59330  0.96620  Biso   1.000  H
  H24      1.0000 0.40740  0.09330  0.53380  Biso   1.000  H
  C21      1.0000 0.96351  0.29820  0.13129  Biso   1.000  C
  C22      1.0000 0.53649  0.79820  0.36871  Biso   1.000  C
  C23      1.0000 0.03649  0.70180  0.86871  Biso   1.000  C
  C24      1.0000 0.46351  0.20180  0.63129  Biso   1.000  C
  C25      1.0000 0.02363  0.19400  0.14915  Biso   1.000  C
  C26      1.0000 0.47637  0.69400  0.35085  Biso   1.000  C
  C27      1.0000 0.97637  0.80600  0.85085  Biso   1.000  C
  C28      1.0000 0.52363  0.30600  0.64915  Biso   1.000  C
  C29      1.0000 0.91392  0.36000  0.19659  Biso   1.000  C
  C30      1.0000 0.58608  0.86000  0.30341  Biso   1.000  C
  C31      1.0000 0.08608  0.64000  0.80341  Biso   1.000  C
  C32      1.0000 0.41392  0.14000  0.69659  Biso   1.000  C
  H25      1.0000 0.87400  0.42480  0.17800  Biso   1.000  H
  H26      1.0000 0.62600  0.92480  0.32200  Biso   1.000  H
  H27      1.0000 0.12600  0.57520  0.82200  Biso   1.000  H
  H28      1.0000 0.37400  0.07520  0.67800  Biso   1.000  H
  C33      1.0000 0.85200  0.40270  0.32700  Biso   1.000  C
  C34      1.0000 0.64800  0.90270  0.17300  Biso   1.000  C
  C35      1.0000 0.14800  0.59730  0.67300  Biso   1.000  C
  C36      1.0000 0.35200  0.09730  0.82700  Biso   1.000  C
  H29      1.0000 0.80580  0.34030  0.33860  Biso   1.000  H
  H30      1.0000 0.69420  0.84030  0.16140  Biso   1.000  H
  H31      1.0000 0.19420  0.65970  0.66140  Biso   1.000  H
  H32      1.0000 0.30580  0.15970  0.83860  Biso   1.000  H
  H33      1.0000 0.82580  0.47400  0.29310  Biso   1.000  H
  H34      1.0000 0.67420  0.97400  0.20690  Biso   1.000  H
  H35      1.0000 0.17420  0.52600  0.70690  Biso   1.000  H
  H36      1.0000 0.32580  0.02600  0.79310  Biso   1.000  H
  C37      1.0000 0.88960  0.45800  0.41080  Biso   1.000  C
  C38      1.0000 0.61040  0.95800  0.08920  Biso   1.000  C
  C39      1.0000 0.11040  0.54200  0.58920  Biso   1.000  C
  C40      1.0000 0.38960  0.04200  0.91080  Biso   1.000  C
  H37      1.0000 0.94450  0.50260  0.40120  Biso   1.000  H
  H38      1.0000 0.55550  0.00260  0.09880  Biso   1.000  H
  H39      1.0000 0.05550  0.49740  0.59880  Biso   1.000  H
  H40      1.0000 0.44450  0.99740  0.90120  Biso   1.000  H
  H41      1.0000 0.84920  0.52280  0.43190  Biso   1.000  H
  H42      1.0000 0.65080  0.02280  0.06810  Biso   1.000  H
  H43      1.0000 0.15080  0.47720  0.56810  Biso   1.000  H
  H44      1.0000 0.34920  0.97720  0.93190  Biso   1.000  H
  C41      1.0000 0.90580  0.35220  0.47760  Biso   1.000  C
  C42      1.0000 0.59420  0.85220  0.02240  Biso   1.000  C
  C43      1.0000 0.09420  0.64780  0.52240  Biso   1.000  C
  C44      1.0000 0.40580  0.14780  0.97760  Biso   1.000  C
  H45      1.0000 0.92090  0.39380  0.53220  Biso   1.000  H
  H46      1.0000 0.57910  0.89380  0.96780  Biso   1.000  H
  H47      1.0000 0.07910  0.60620  0.46780  Biso   1.000  H
  H48      1.0000 0.42090  0.10620  0.03220  Biso   1.000  H
  H49      1.0000 0.85200  0.30250  0.48330  Biso   1.000  H
  H50      1.0000 0.64800  0.80250  0.01670  Biso   1.000  H
  H51      1.0000 0.14800  0.69750  0.51670  Biso   1.000  H
  H52      1.0000 0.35200  0.19750  0.98330  Biso   1.000  H
  C45      1.0000 0.01270  0.19990  0.52204  Biso   1.000  C
  C46      1.0000 0.48730  0.69990  0.97796  Biso   1.000  C
  C47      1.0000 0.98730  0.80010  0.47796  Biso   1.000  C
  C48      1.0000 0.51270  0.30010  0.02204  Biso   1.000  C
  H53      1.0000 0.98920  0.21850  0.57430  Biso   1.000  H
  H54      1.0000 0.51080  0.71850  0.92570  Biso   1.000  H
  H55      1.0000 0.01080  0.78150  0.42570  Biso   1.000  H
  H56      1.0000 0.48920  0.28150  0.07430  Biso   1.000  H
  C49      1.0000 0.08479  0.10760  0.52482  Biso   1.000  C
  C50      1.0000 0.41521  0.60760  0.97518  Biso   1.000  C
  C51      1.0000 0.91521  0.89240  0.47518  Biso   1.000  C
  C52      1.0000 0.58479  0.39240  0.02482  Biso   1.000  C
  C53      1.0000 0.11410  0.05740  0.60580  Biso   1.000  C
  C54      1.0000 0.38590  0.55740  0.89420  Biso   1.000  C
  C55      1.0000 0.88590  0.94260  0.39420  Biso   1.000  C
  C56      1.0000 0.61410  0.44260  0.10580  Biso   1.000  C
  H57      1.0000 0.08460  0.08030  0.65410  Biso   1.000  H
  H58      1.0000 0.41540  0.58030  0.84590  Biso   1.000  H
  H59      1.0000 0.91540  0.91970  0.34590  Biso   1.000  H
  H60      1.0000 0.58460  0.41970  0.15410  Biso   1.000  H
  C57      1.0000 0.18610  0.97470  0.61356  Biso   1.000  C
  C58      1.0000 0.31390  0.47470  0.88644  Biso   1.000  C
  C59      1.0000 0.81390  0.02530  0.38644  Biso   1.000  C
  C60      1.0000 0.68610  0.52530  0.11356  Biso   1.000  C
  H61      1.0000 0.20470  0.94210  0.66700  Biso   1.000  H
  H62      1.0000 0.29530  0.44210  0.83300  Biso   1.000  H
  H63      1.0000 0.79530  0.05790  0.33300  Biso   1.000  H
  H64      1.0000 0.70470  0.55790  0.16700  Biso   1.000  H
  C61      1.0000 0.23110  0.93980  0.54132  Biso   1.000  C
  C62      1.0000 0.26890  0.43980  0.95868  Biso   1.000  C
  C63      1.0000 0.76890  0.06020  0.45868  Biso   1.000  C
  C64      1.0000 0.73110  0.56020  0.04132  Biso   1.000  C
  H65      1.0000 0.28050  0.88590  0.54680  Biso   1.000  H
  H66      1.0000 0.21950  0.38590  0.95320  Biso   1.000  H
  H67      1.0000 0.71950  0.11410  0.45320  Biso   1.000  H
  H68      1.0000 0.78050  0.61410  0.04680  Biso   1.000  H
  C65      1.0000 0.20185  0.98550  0.46232  Biso   1.000  C
  C66      1.0000 0.29815  0.48550  0.03768  Biso   1.000  C
  C67      1.0000 0.79815  0.01450  0.53768  Biso   1.000  C
  C68      1.0000 0.70185  0.51450  0.96232  Biso   1.000  C
  C69      1.0000 0.12860  0.07020  0.45139  Biso   1.000  C
  C70      1.0000 0.37140  0.57020  0.04861  Biso   1.000  C
  C71      1.0000 0.87140  0.92980  0.54861  Biso   1.000  C
  C72      1.0000 0.62860  0.42980  0.95139  Biso   1.000  C
  C73      1.0000 0.32350  0.90480  0.38890  Biso   1.000  C
  C74      1.0000 0.17650  0.40480  0.11110  Biso   1.000  C
  C75      1.0000 0.67650  0.09520  0.61110  Biso   1.000  C
  C76      1.0000 0.82350  0.59520  0.88890  Biso   1.000  C
  H69      1.0000 0.34050  0.88960  0.33160  Biso   1.000  H
  H70      1.0000 0.15950  0.38960  0.16840  Biso   1.000  H
  H71      1.0000 0.65950  0.11040  0.66840  Biso   1.000  H
  H72      1.0000 0.84050  0.61040  0.83160  Biso   1.000  H
  H73      1.0000 0.32480  0.82280  0.41980  Biso   1.000  H
  H74      1.0000 0.17520  0.32280  0.08020  Biso   1.000  H
  H75      1.0000 0.67520  0.17720  0.58020  Biso   1.000  H
  H76      1.0000 0.82480  0.67720  0.91980  Biso   1.000  H
  H77      1.0000 0.36350  0.96620  0.41690  Biso   1.000  H
  H78      1.0000 0.13650  0.46620  0.08310  Biso   1.000  H
  H79      1.0000 0.63650  0.03380  0.58310  Biso   1.000  H
  H80      1.0000 0.86350  0.53380  0.91690  Biso   1.000  H
  C77      1.0000 0.09017  0.74240  0.26420  Biso   1.000  C
  C78      1.0000 0.40983  0.24240  0.23580  Biso   1.000  C
  C79      1.0000 0.90983  0.25760  0.73580  Biso   1.000  C
  C80      1.0000 0.59017  0.75760  0.76420  Biso   1.000  C
  C81      1.0000 0.19046  0.73110  0.24771  Biso   1.000  C
  C82      1.0000 0.30954  0.23110  0.25229  Biso   1.000  C
  C83      1.0000 0.80954  0.26890  0.75229  Biso   1.000  C
  C84      1.0000 0.69046  0.76890  0.74771  Biso   1.000  C
  N1       1.0000 0.91847  0.33590  0.27716  Biso   1.000  N
  N2       1.0000 0.58153  0.83590  0.22284  Biso   1.000  N
  N3       1.0000 0.08153  0.66410  0.72284  Biso   1.000  N
  N4       1.0000 0.41847  0.16410  0.77716  Biso   1.000  N
  N5       1.0000 0.97688  0.25990  0.45698  Biso   1.000  N
  N6       1.0000 0.52312  0.75990  0.04302  Biso   1.000  N
  N7       1.0000 0.02312  0.74010  0.54302  Biso   1.000  N
  N8       1.0000 0.47688  0.24010  0.95698  Biso   1.000  N
  O1       1.0000 0.12251  0.03640  0.10521  Biso   1.000  O
  O2       1.0000 0.37749  0.53640  0.39479  Biso   1.000  O
  O3       1.0000 0.87749  0.96360  0.89479  Biso   1.000  O
  O4       1.0000 0.62251  0.46360  0.60521  Biso   1.000  O
  O5       1.0000 0.04378  0.15083  0.22729  Biso   1.000  O
  O6       1.0000 0.45622  0.65083  0.27271  Biso   1.000  O
  O7       1.0000 0.95622  0.84917  0.77271  Biso   1.000  O
  O8       1.0000 0.54378  0.34917  0.72729  Biso   1.000  O
  O9       1.0000 0.10940  0.40120  0.33840  Biso   1.000  O
  O10      1.0000 0.39060  0.90120  0.16160  Biso   1.000  O
  O11      1.0000 0.89060  0.59880  0.66160  Biso   1.000  O
  O12      1.0000 0.60940  0.09880  0.83840  Biso   1.000  O
  O13      1.0000 0.10425  0.10937  0.37310  Biso   1.000  O
  O14      1.0000 0.39575  0.60937  0.12690  Biso   1.000  O
  O15      1.0000 0.89575  0.89063  0.62690  Biso   1.000  O
  O16      1.0000 0.60425  0.39063  0.87310  Biso   1.000  O
  O17      1.0000 0.86810  0.70450  0.22168  Biso   1.000  O
  O18      1.0000 0.63190  0.20450  0.27832  Biso   1.000  O
  O19      1.0000 0.13190  0.29550  0.77832  Biso   1.000  O
  O20      1.0000 0.36810  0.79550  0.72168  Biso   1.000  O
  O21      1.0000 0.23885  0.95650  0.38666  Biso   1.000  O
  O22      1.0000 0.26115  0.45650  0.11334  Biso   1.000  O
  O23      1.0000 0.76115  0.04350  0.61334  Biso   1.000  O
  O24      1.0000 0.73885  0.54350  0.88666  Biso   1.000  O
  O25      1.0000 0.87732  0.97660  0.17966  Biso   1.000  O
  O26      1.0000 0.62268  0.47660  0.32034  Biso   1.000  O
  O27      1.0000 0.12268  0.02340  0.82034  Biso   1.000  O
  O28      1.0000 0.37732  0.52340  0.67966  Biso   1.000  O
  O29      1.0000 0.22457  0.83499  0.22021  Biso   1.000  O
  O30      1.0000 0.27543  0.33499  0.27979  Biso   1.000  O
  O31      1.0000 0.77543  0.16501  0.77979  Biso   1.000  O
  O32      1.0000 0.72457  0.66501  0.72021  Biso   1.000  O
  O33      1.0000 0.75489  0.18810  0.15523  Biso   1.000  O
  O34      1.0000 0.74511  0.68810  0.34477  Biso   1.000  O
  O35      1.0000 0.24511  0.81190  0.84477  Biso   1.000  O
  O36      1.0000 0.25489  0.31190  0.65523  Biso   1.000  O
  O37      1.0000 0.06106  0.85860  0.26896  Biso   1.000  O
  O38      1.0000 0.43894  0.35860  0.23104  Biso   1.000  O
  O39      1.0000 0.93894  0.14140  0.73104  Biso   1.000  O
  O40      1.0000 0.56106  0.64140  0.76896  Biso   1.000  O
  O41      1.0000 0.04710  0.64010  0.27145  Biso   1.000  O
  O42      1.0000 0.45290  0.14010  0.22855  Biso   1.000  O
  O43      1.0000 0.95290  0.35990  0.72855  Biso   1.000  O
  O44      1.0000 0.54710  0.85990  0.77145  Biso   1.000  O
  O45      1.0000 0.22758  0.62379  0.26284  Biso   1.000  O
  O46      1.0000 0.27242  0.12379  0.23716  Biso   1.000  O
  O47      1.0000 0.77242  0.37621  0.73716  Biso   1.000  O
  O48      1.0000 0.72758  0.87621  0.76284  Biso   1.000  O
  Cu1      1.0000 0.01213  0.23144  0.33711  Biso   1.000  Cu
  Cu2      1.0000 0.48787  0.73144  0.16289  Biso   1.000  Cu
  Cu3      1.0000 0.98787  0.76856  0.66289  Biso   1.000  Cu
  Cu4      1.0000 0.51213  0.26856  0.83711  Biso   1.000  Cu
  Mn1      1.0000 0.15397  0.01868  0.25751  Biso   1.000  Mn
  Mn2      1.0000 0.34603  0.51868  0.24249  Biso   1.000  Mn
  Mn3      1.0000 0.84603  0.98132  0.74249  Biso   1.000  Mn
  Mn4      1.0000 0.65397  0.48132  0.75751  Biso   1.000  Mn
