data_image0
_cell_length_a       8.25
_cell_length_b       9.33
_cell_length_c       11.131
_cell_angle_alpha    67.59
_cell_angle_beta     73.29
_cell_angle_gamma    74.67

_symmetry_space_group_name_H-M    "P 1"
_symmetry_int_tables_number       1

loop_
  _symmetry_equiv_pos_as_xyz
  'x, y, z'

loop_
  _atom_site_label
  _atom_site_occupancy
  _atom_site_fract_x
  _atom_site_fract_y
  _atom_site_fract_z
  _atom_site_thermal_displace_type
  _atom_site_B_iso_or_equiv
  _atom_site_type_symbol
  Cu1      1.0000 0.02290  0.39280  0.65570  Biso   1.000  Cu
  Cu2      1.0000 0.97710  0.60720  0.34430  Biso   1.000  Cu
  Cu3      1.0000 0.00000  0.50000  0.00000  Biso   1.000  Cu
  Cl1      1.0000 0.84480  0.41000  0.84300  Biso   1.000  Cl
  Cl2      1.0000 0.15520  0.59000  0.15700  Biso   1.000  Cl
  Cl3      1.0000 0.20850  0.18280  0.72960  Biso   1.000  Cl
  Cl4      1.0000 0.79150  0.81720  0.27040  Biso   1.000  Cl
  Cl5      1.0000 0.97960  0.65380  0.53450  Biso   1.000  Cl
  Cl6      1.0000 0.02040  0.34620  0.46550  Biso   1.000  Cl
  O1       1.0000 0.14150  0.29170  0.04880  Biso   1.000  O
  O2       1.0000 0.85850  0.70830  0.95120  Biso   1.000  O
  O3       1.0000 0.81740  0.42220  0.15170  Biso   1.000  O
  O4       1.0000 0.18260  0.57780  0.84830  Biso   1.000  O
  S1       1.0000 0.05590  0.14470  0.11010  Biso   1.000  S
  S2       1.0000 0.94410  0.85530  0.88990  Biso   1.000  S
  S3       1.0000 0.62490  0.47390  0.14920  Biso   1.000  S
  S4       1.0000 0.37510  0.52610  0.85080  Biso   1.000  S
  C1       1.0000 0.55100  0.29130  0.19660  Biso   1.000  C
  C2       1.0000 0.44900  0.70870  0.80340  Biso   1.000  C
  C3       1.0000 0.53130  0.21600  0.34650  Biso   1.000  C
  C4       1.0000 0.46870  0.78400  0.65350  Biso   1.000  C
  C5       1.0000 0.56130  0.32160  0.40500  Biso   1.000  C
  C6       1.0000 0.43870  0.67840  0.59500  Biso   1.000  C
  C7       1.0000 0.53330  0.48950  0.31130  Biso   1.000  C
  C8       1.0000 0.46670  0.51050  0.68870  Biso   1.000  C
  C9       1.0000 0.23030  0.99310  0.07950  Biso   1.000  C
  C10      1.0000 0.76970  0.00690  0.92050  Biso   1.000  C
  C11      1.0000 0.33790  0.95620  0.17370  Biso   1.000  C
  C12      1.0000 0.66210  0.04380  0.82630  Biso   1.000  C
  C13      1.0000 0.23430  0.97790  0.29640  Biso   1.000  C
  C14      1.0000 0.76570  0.02210  0.70360  Biso   1.000  C
  C15      1.0000 0.06050  0.07560  0.28240  Biso   1.000  C
  C16      1.0000 0.93950  0.92440  0.71760  Biso   1.000  C
  H1       1.0000 0.63330  0.22280  0.15300  Biso   1.000  H
  H2       1.0000 0.36670  0.77720  0.84700  Biso   1.000  H
  H3       1.0000 0.44230  0.31090  0.17270  Biso   1.000  H
  H4       1.0000 0.55770  0.68910  0.82730  Biso   1.000  H
  H5       1.0000 0.61300  0.11980  0.36570  Biso   1.000  H
  H6       1.0000 0.38700  0.88020  0.63430  Biso   1.000  H
  H7       1.0000 0.41690  0.19350  0.38480  Biso   1.000  H
  H8       1.0000 0.58310  0.80650  0.61520  Biso   1.000  H
  H9       1.0000 0.48250  0.31350  0.48880  Biso   1.000  H
  H10      1.0000 0.51750  0.68650  0.51120  Biso   1.000  H
  H11      1.0000 0.67710  0.29250  0.41830  Biso   1.000  H
  H12      1.0000 0.32290  0.70750  0.58170  Biso   1.000  H
  H13      1.0000 0.41290  0.53280  0.31980  Biso   1.000  H
  H14      1.0000 0.58710  0.46720  0.68020  Biso   1.000  H
  H15      1.0000 0.59070  0.55420  0.32880  Biso   1.000  H
  H16      1.0000 0.40930  0.44580  0.67120  Biso   1.000  H
  H17      1.0000 0.25920  0.02930  0.99030  Biso   1.000  H
  H18      1.0000 0.74080  0.97070  0.00970  Biso   1.000  H
  H19      1.0000 0.18720  0.90130  0.09210  Biso   1.000  H
  H20      1.0000 0.81280  0.09870  0.90790  Biso   1.000  H
  H21      1.0000 0.42140  0.02470  0.13670  Biso   1.000  H
  H22      1.0000 0.57860  0.97530  0.86330  Biso   1.000  H
  H23      1.0000 0.39580  0.84880  0.19110  Biso   1.000  H
  H24      1.0000 0.60420  0.15120  0.80890  Biso   1.000  H
  H25      1.0000 0.21950  0.87630  0.36090  Biso   1.000  H
  H26      1.0000 0.78050  0.12370  0.63910  Biso   1.000  H
  H27      1.0000 0.29370  0.02870  0.32690  Biso   1.000  H
  H28      1.0000 0.70630  0.97130  0.67310  Biso   1.000  H
  H29      1.0000 0.97280  0.01300  0.33300  Biso   1.000  H
  H30      1.0000 0.02720  0.98700  0.66700  Biso   1.000  H
  H31      1.0000 0.04270  0.16310  0.31290  Biso   1.000  H
  H32      1.0000 0.95730  0.83690  0.68710  Biso   1.000  H
