data_image0
_cell_length_a       8.448
_cell_length_b       9.63
_cell_length_c       11.655
_cell_angle_alpha    65.42
_cell_angle_beta     71.59
_cell_angle_gamma    73.52

_symmetry_space_group_name_H-M    "P 1"
_symmetry_int_tables_number       1

loop_
  _symmetry_equiv_pos_as_xyz
  'x, y, z'

loop_
  _atom_site_label
  _atom_site_occupancy
  _atom_site_fract_x
  _atom_site_fract_y
  _atom_site_fract_z
  _atom_site_thermal_displace_type
  _atom_site_B_iso_or_equiv
  _atom_site_type_symbol
  Cu1      1.0000 0.02160  0.38590  0.65670  Biso   1.000  Cu
  Cu2      1.0000 0.97840  0.61410  0.34330  Biso   1.000  Cu
  Cu3      1.0000 0.00000  0.50000  0.00000  Biso   1.000  Cu
  Br1      1.0000 0.83690  0.40550  0.84930  Biso   1.000  Br
  Br2      1.0000 0.16310  0.59450  0.15070  Biso   1.000  Br
  Br3      1.0000 0.21230  0.16290  0.73390  Biso   1.000  Br
  Br4      1.0000 0.78770  0.83710  0.26610  Biso   1.000  Br
  Br5      1.0000 0.00570  0.65840  0.52770  Biso   1.000  Br
  Br6      1.0000 0.99430  0.34160  0.47230  Biso   1.000  Br
  O1       1.0000 0.14340  0.29680  0.04490  Biso   1.000  O
  O2       1.0000 0.85660  0.70320  0.95510  Biso   1.000  O
  O3       1.0000 0.82270  0.41960  0.14910  Biso   1.000  O
  O4       1.0000 0.17730  0.58040  0.85090  Biso   1.000  O
  S1       1.0000 0.06320  0.14880  0.11330  Biso   1.000  S
  S2       1.0000 0.93680  0.85120  0.88670  Biso   1.000  S
  S3       1.0000 0.63270  0.47160  0.15120  Biso   1.000  S
  S4       1.0000 0.36730  0.52840  0.84880  Biso   1.000  S
  C1       1.0000 0.55670  0.29350  0.21160  Biso   1.000  C
  C2       1.0000 0.44330  0.70650  0.78840  Biso   1.000  C
  C3       1.0000 0.53230  0.22900  0.35390  Biso   1.000  C
  C4       1.0000 0.46770  0.77100  0.64610  Biso   1.000  C
  C5       1.0000 0.55530  0.33290  0.40330  Biso   1.000  C
  C6       1.0000 0.44470  0.66710  0.59670  Biso   1.000  C
  C7       1.0000 0.54430  0.49520  0.30460  Biso   1.000  C
  C8       1.0000 0.45570  0.50480  0.69540  Biso   1.000  C
  C9       1.0000 0.23850  0.00280  0.08480  Biso   1.000  C
  C10      1.0000 0.76150  0.99720  0.91520  Biso   1.000  C
  C11      1.0000 0.32750  0.95620  0.18480  Biso   1.000  C
  C12      1.0000 0.67250  0.04380  0.81520  Biso   1.000  C
  C13      1.0000 0.24670  0.00520  0.28870  Biso   1.000  C
  C14      1.0000 0.75330  0.99480  0.71130  Biso   1.000  C
  C15      1.0000 0.07020  0.08620  0.27750  Biso   1.000  C
  C16      1.0000 0.92980  0.91380  0.72250  Biso   1.000  C
  H1       1.0000 0.63820  0.22150  0.17540  Biso   1.000  H
  H2       1.0000 0.36180  0.77850  0.82460  Biso   1.000  H
  H3       1.0000 0.45100  0.31180  0.18870  Biso   1.000  H
  H4       1.0000 0.54900  0.68820  0.81130  Biso   1.000  H
  H5       1.0000 0.61260  0.13480  0.37780  Biso   1.000  H
  H6       1.0000 0.38740  0.86520  0.62220  Biso   1.000  H
  H7       1.0000 0.41930  0.20700  0.39190  Biso   1.000  H
  H8       1.0000 0.58070  0.79300  0.60810  Biso   1.000  H
  H9       1.0000 0.46830  0.33240  0.47990  Biso   1.000  H
  H10      1.0000 0.53170  0.66760  0.52010  Biso   1.000  H
  H11      1.0000 0.66430  0.29960  0.42440  Biso   1.000  H
  H12      1.0000 0.33570  0.70040  0.57560  Biso   1.000  H
  H13      1.0000 0.42870  0.54790  0.31020  Biso   1.000  H
  H14      1.0000 0.57130  0.45210  0.68980  Biso   1.000  H
  H15      1.0000 0.60930  0.55280  0.31720  Biso   1.000  H
  H16      1.0000 0.39070  0.44720  0.68280  Biso   1.000  H
  H17      1.0000 0.31320  0.04640  0.00300  Biso   1.000  H
  H18      1.0000 0.68680  0.95360  0.99700  Biso   1.000  H
  H19      1.0000 0.19900  0.91920  0.08400  Biso   1.000  H
  H20      1.0000 0.80100  0.08080  0.91600  Biso   1.000  H
  H21      1.0000 0.43840  0.98320  0.14740  Biso   1.000  H
  H22      1.0000 0.56160  0.01680  0.85260  Biso   1.000  H
  H23      1.0000 0.33760  0.84530  0.22170  Biso   1.000  H
  H24      1.0000 0.66240  0.15470  0.77830  Biso   1.000  H
  H25      1.0000 0.24550  0.92110  0.37050  Biso   1.000  H
  H26      1.0000 0.75450  0.07890  0.62950  Biso   1.000  H
  H27      1.0000 0.30950  0.07820  0.28210  Biso   1.000  H
  H28      1.0000 0.69050  0.92180  0.71790  Biso   1.000  H
  H29      1.0000 0.99320  0.01510  0.33090  Biso   1.000  H
  H30      1.0000 0.00680  0.98490  0.66910  Biso   1.000  H
  H31      1.0000 0.04010  0.17360  0.30740  Biso   1.000  H
  H32      1.0000 0.95990  0.82640  0.69260  Biso   1.000  H
