data_image0
_cell_length_a       9.6864
_cell_length_b       9.9047
_cell_length_c       10.8332
_cell_angle_alpha    66.933
_cell_angle_beta     77.581
_cell_angle_gamma    64.206

_symmetry_space_group_name_H-M    "P 1"
_symmetry_int_tables_number       1

loop_
  _symmetry_equiv_pos_as_xyz
  'x, y, z'

loop_
  _atom_site_label
  _atom_site_occupancy
  _atom_site_fract_x
  _atom_site_fract_y
  _atom_site_fract_z
  _atom_site_thermal_displace_type
  _atom_site_B_iso_or_equiv
  _atom_site_type_symbol
  Cu1      1.0000 0.20602  0.38133  0.28437  Biso   1.000  Cu
  Cu2      1.0000 0.79398  0.61867  0.71563  Biso   1.000  Cu
  S1       1.0000 0.55033  0.06834  0.25252  Biso   1.000  S
  S2       1.0000 0.44967  0.93166  0.74748  Biso   1.000  S
  N1       1.0000 0.23917  0.43720  0.08402  Biso   1.000  N
  N2       1.0000 0.76083  0.56280  0.91598  Biso   1.000  N
  N3       1.0000 0.08790  0.27040  0.25975  Biso   1.000  N
  N4       1.0000 0.91210  0.72960  0.74025  Biso   1.000  N
  O1       1.0000 0.25624  0.55432  0.27723  Biso   1.000  O
  O2       1.0000 0.74376  0.44568  0.72277  Biso   1.000  O
  O3       1.0000 0.22700  0.53070  0.49445  Biso   1.000  O
  O4       1.0000 0.77300  0.46930  0.50555  Biso   1.000  O
  O5       1.0000 0.68912  0.97375  0.32696  Biso   1.000  O
  O6       1.0000 0.31088  0.02625  0.67304  Biso   1.000  O
  O7       1.0000 0.57830  0.13070  0.10938  Biso   1.000  O
  O8       1.0000 0.42170  0.86930  0.89062  Biso   1.000  O
  O9       1.0000 0.44336  0.19119  0.30901  Biso   1.000  O
  O10      1.0000 0.55664  0.80881  0.69099  Biso   1.000  O
  O11      1.0000 0.16085  0.31496  0.47950  Biso   1.000  O
  O12      1.0000 0.83915  0.68504  0.52050  Biso   1.000  O
  C1       1.0000 0.26450  0.59140  0.37490  Biso   1.000  C
  C2       1.0000 0.73550  0.40860  0.62510  Biso   1.000  C
  C3       1.0000 0.32740  0.71700  0.34060  Biso   1.000  C
  C4       1.0000 0.67260  0.28300  0.65940  Biso   1.000  C
  C5       1.0000 0.34420  0.81200  0.20910  Biso   1.000  C
  C6       1.0000 0.65580  0.18800  0.79090  Biso   1.000  C
  H1       1.0000 0.31170  0.80200  0.13960  Biso   1.000  H
  H2       1.0000 0.68830  0.19800  0.86040  Biso   1.000  H
  C7       1.0000 0.40870  0.92120  0.18070  Biso   1.000  C
  C8       1.0000 0.59130  0.07880  0.81930  Biso   1.000  C
  H3       1.0000 0.41860  0.98520  0.09240  Biso   1.000  H
  H4       1.0000 0.58140  0.01480  0.90760  Biso   1.000  H
  C9       1.0000 0.45890  0.93540  0.28410  Biso   1.000  C
  C10      1.0000 0.54110  0.06460  0.71590  Biso   1.000  C
  C11      1.0000 0.44030  0.84310  0.41640  Biso   1.000  C
  C12      1.0000 0.55970  0.15690  0.58360  Biso   1.000  C
  H5       1.0000 0.47180  0.85420  0.48590  Biso   1.000  H
  H6       1.0000 0.52820  0.14580  0.51410  Biso   1.000  H
  C13      1.0000 0.37490  0.73530  0.44380  Biso   1.000  C
  C14      1.0000 0.62510  0.26470  0.55620  Biso   1.000  C
  H7       1.0000 0.36200  0.67370  0.53250  Biso   1.000  H
  H8       1.0000 0.63800  0.32630  0.46750  Biso   1.000  H
  C15      1.0000 0.31730  0.52130  0.99870  Biso   1.000  C
  C16      1.0000 0.68270  0.47870  0.00130  Biso   1.000  C
  H9       1.0000 0.35220  0.57580  0.02950  Biso   1.000  H
  H10      1.0000 0.64780  0.42420  0.97050  Biso   1.000  H
  C17      1.0000 0.34860  0.53040  0.86410  Biso   1.000  C
  C18      1.0000 0.65140  0.46960  0.13590  Biso   1.000  C
  H11      1.0000 0.40540  0.58850  0.80730  Biso   1.000  H
  H12      1.0000 0.59460  0.41150  0.19270  Biso   1.000  H
  C19      1.0000 0.29580  0.45390  0.81620  Biso   1.000  C
  C20      1.0000 0.70420  0.54610  0.18380  Biso   1.000  C
  H13      1.0000 0.31630  0.45950  0.72680  Biso   1.000  H
  H14      1.0000 0.68370  0.54050  0.27320  Biso   1.000  H
  C21      1.0000 0.20990  0.36670  0.90330  Biso   1.000  C
  C22      1.0000 0.79010  0.63330  0.09670  Biso   1.000  C
  C23      1.0000 0.14410  0.28600  0.86350  Biso   1.000  C
  C24      1.0000 0.85590  0.71400  0.13650  Biso   1.000  C
  H15      1.0000 0.15970  0.28760  0.77520  Biso   1.000  H
  H16      1.0000 0.84030  0.71240  0.22480  Biso   1.000  H
  C25      1.0000 0.05940  0.20740  0.95290  Biso   1.000  C
  C26      1.0000 0.94060  0.79260  0.04710  Biso   1.000  C
  H17      1.0000 0.01570  0.15860  0.92400  Biso   1.000  H
  H18      1.0000 0.98430  0.84140  0.07600  Biso   1.000  H
  C27      1.0000 0.03570  0.19780  0.09050  Biso   1.000  C
  C28      1.0000 0.96430  0.80220  0.90950  Biso   1.000  C
  C29      1.0000 0.94880  0.11940  0.18860  Biso   1.000  C
  C30      1.0000 0.05120  0.88060  0.81140  Biso   1.000  C
  H19      1.0000 0.90190  0.06830  0.16620  Biso   1.000  H
  H20      1.0000 0.09810  0.93170  0.83380  Biso   1.000  H
  C31      1.0000 0.93390  0.11910  0.31680  Biso   1.000  C
  C32      1.0000 0.06610  0.88090  0.68320  Biso   1.000  C
  H21      1.0000 0.87650  0.06760  0.38210  Biso   1.000  H
  H22      1.0000 0.12350  0.93240  0.61790  Biso   1.000  H
  C33      1.0000 0.00440  0.19550  0.35020  Biso   1.000  C
  C34      1.0000 0.99560  0.80450  0.64980  Biso   1.000  C
  H23      1.0000 0.99280  0.19430  0.43810  Biso   1.000  H
  H24      1.0000 0.00720  0.80570  0.56190  Biso   1.000  H
  C35      1.0000 0.18670  0.36070  0.03690  Biso   1.000  C
  C36      1.0000 0.81330  0.63930  0.96310  Biso   1.000  C
  C37      1.0000 0.10120  0.27310  0.13180  Biso   1.000  C
  C38      1.0000 0.89880  0.72690  0.86820  Biso   1.000  C
  H25      1.0000 0.21700  0.22270  0.52600  Biso   1.000  H
  H26      1.0000 0.78300  0.77730  0.47400  Biso   1.000  H
  H27      1.0000 0.18000  0.37800  0.50100  Biso   1.000  H
  H28      1.0000 0.82000  0.62200  0.49900  Biso   1.000  H
