data_image0
_cell_length_a       7.3032
_cell_length_b       14.038
_cell_length_c       24.1952
_cell_angle_alpha    90
_cell_angle_beta     91.812
_cell_angle_gamma    90

_symmetry_space_group_name_H-M    "P 1"
_symmetry_int_tables_number       1

loop_
  _symmetry_equiv_pos_as_xyz
  'x, y, z'

loop_
  _atom_site_label
  _atom_site_occupancy
  _atom_site_fract_x
  _atom_site_fract_y
  _atom_site_fract_z
  _atom_site_thermal_displace_type
  _atom_site_B_iso_or_equiv
  _atom_site_type_symbol
  Cu1      1.0000 0.49565  0.21655  0.25026  Biso   1.000  Cu
  Cu2      1.0000 0.99565  0.28345  0.75026  Biso   1.000  Cu
  Cu3      1.0000 0.50435  0.78345  0.74974  Biso   1.000  Cu
  Cu4      1.0000 0.00435  0.71655  0.24974  Biso   1.000  Cu
  O1       1.0000 0.62070  0.16477  0.31890  Biso   1.000  O
  O2       1.0000 0.12070  0.33523  0.81890  Biso   1.000  O
  O3       1.0000 0.37930  0.83523  0.68110  Biso   1.000  O
  O4       1.0000 0.87930  0.66477  0.18110  Biso   1.000  O
  O5       1.0000 0.84910  0.19458  0.26335  Biso   1.000  O
  O6       1.0000 0.34910  0.30542  0.76335  Biso   1.000  O
  O7       1.0000 0.15090  0.80542  0.73665  Biso   1.000  O
  O8       1.0000 0.65090  0.69458  0.23665  Biso   1.000  O
  O9       1.0000 0.18370  0.17869  0.30168  Biso   1.000  O
  O10      1.0000 0.68370  0.32131  0.80168  Biso   1.000  O
  O11      1.0000 0.81630  0.82131  0.69832  Biso   1.000  O
  O12      1.0000 0.31630  0.67869  0.19832  Biso   1.000  O
  H1       1.0000 0.08670  0.19890  0.28020  Biso   1.000  H
  H2       1.0000 0.58670  0.30110  0.78020  Biso   1.000  H
  H3       1.0000 0.91330  0.80110  0.71980  Biso   1.000  H
  H4       1.0000 0.41330  0.69890  0.21980  Biso   1.000  H
  O13      1.0000 0.41350  0.26405  0.17731  Biso   1.000  O
  O14      1.0000 0.91350  0.23595  0.67731  Biso   1.000  O
  O15      1.0000 0.58650  0.73595  0.82269  Biso   1.000  O
  O16      1.0000 0.08650  0.76405  0.32269  Biso   1.000  O
  O17      1.0000 0.12590  0.28394  0.20165  Biso   1.000  O
  O18      1.0000 0.62590  0.21606  0.70165  Biso   1.000  O
  O19      1.0000 0.87410  0.71606  0.79835  Biso   1.000  O
  O20      1.0000 0.37410  0.78394  0.29835  Biso   1.000  O
  O21      1.0000 0.87440  0.31920  0.12855  Biso   1.000  O
  O22      1.0000 0.37440  0.18080  0.62855  Biso   1.000  O
  O23      1.0000 0.12560  0.68080  0.87145  Biso   1.000  O
  O24      1.0000 0.62560  0.81920  0.37145  Biso   1.000  O
  H5       1.0000 0.93400  0.30310  0.16100  Biso   1.000  H
  H6       1.0000 0.43400  0.19690  0.66100  Biso   1.000  H
  H7       1.0000 0.06600  0.69690  0.83900  Biso   1.000  H
  H8       1.0000 0.56600  0.80310  0.33900  Biso   1.000  H
  N1       1.0000 0.46730  0.92741  0.22141  Biso   1.000  N
  N2       1.0000 0.96730  0.57259  0.72141  Biso   1.000  N
  N3       1.0000 0.53270  0.07259  0.77859  Biso   1.000  N
  N4       1.0000 0.03270  0.42741  0.27859  Biso   1.000  N
  H9       1.0000 0.44570  0.87110  0.23360  Biso   1.000  H
  H10      1.0000 0.94570  0.62890  0.73360  Biso   1.000  H
  H11      1.0000 0.55430  0.12890  0.76640  Biso   1.000  H
  H12      1.0000 0.05430  0.37110  0.26640  Biso   1.000  H
  N5       1.0000 0.49310  0.08398  0.22048  Biso   1.000  N
  N6       1.0000 0.99310  0.41602  0.72048  Biso   1.000  N
  N7       1.0000 0.50690  0.91602  0.77952  Biso   1.000  N
  N8       1.0000 0.00690  0.58398  0.27952  Biso   1.000  N
  N9       1.0000 0.52120  0.50478  0.27998  Biso   1.000  N
  N10      1.0000 0.02120  0.99522  0.77998  Biso   1.000  N
  N11      1.0000 0.47880  0.49522  0.72002  Biso   1.000  N
  N12      1.0000 0.97880  0.00478  0.22002  Biso   1.000  N
  H13      1.0000 0.54020  0.56140  0.26780  Biso   1.000  H
  H14      1.0000 0.04020  0.93860  0.76780  Biso   1.000  H
  H15      1.0000 0.45980  0.43860  0.73220  Biso   1.000  H
  H16      1.0000 0.95980  0.06140  0.23220  Biso   1.000  H
  N13      1.0000 0.49960  0.34802  0.28054  Biso   1.000  N
  N14      1.0000 0.99960  0.15198  0.78054  Biso   1.000  N
  N15      1.0000 0.50040  0.65198  0.71946  Biso   1.000  N
  N16      1.0000 0.00040  0.84802  0.21946  Biso   1.000  N
  C1       1.0000 0.78840  0.16193  0.30773  Biso   1.000  C
  C2       1.0000 0.28840  0.33807  0.80773  Biso   1.000  C
  C3       1.0000 0.21160  0.83807  0.69227  Biso   1.000  C
  C4       1.0000 0.71160  0.66193  0.19227  Biso   1.000  C
  C5       1.0000 0.24600  0.27998  0.16642  Biso   1.000  C
  C6       1.0000 0.74600  0.22002  0.66642  Biso   1.000  C
  C7       1.0000 0.75400  0.72002  0.83358  Biso   1.000  C
  C8       1.0000 0.25400  0.77998  0.33358  Biso   1.000  C
  C9       1.0000 0.91980  0.11529  0.34758  Biso   1.000  C
  C10      1.0000 0.41980  0.38471  0.84758  Biso   1.000  C
  C11      1.0000 0.08020  0.88471  0.65242  Biso   1.000  C
  C12      1.0000 0.58020  0.61529  0.15242  Biso   1.000  C
  C13      1.0000 0.10950  0.12609  0.34239  Biso   1.000  C
  C14      1.0000 0.60950  0.37391  0.84239  Biso   1.000  C
  C15      1.0000 0.89050  0.87391  0.65761  Biso   1.000  C
  C16      1.0000 0.39050  0.62609  0.15761  Biso   1.000  C
  C17      1.0000 0.22980  0.08195  0.38008  Biso   1.000  C
  C18      1.0000 0.72980  0.41805  0.88008  Biso   1.000  C
  C19      1.0000 0.77020  0.91805  0.61992  Biso   1.000  C
  C20      1.0000 0.27020  0.58195  0.11992  Biso   1.000  C
  H17      1.0000 0.35550  0.09070  0.37750  Biso   1.000  H
  H18      1.0000 0.85550  0.40930  0.87750  Biso   1.000  H
  H19      1.0000 0.64450  0.90930  0.62250  Biso   1.000  H
  H20      1.0000 0.14450  0.59070  0.12250  Biso   1.000  H
  C21      1.0000 0.16270  0.02540  0.42109  Biso   1.000  C
  C22      1.0000 0.66270  0.47460  0.92109  Biso   1.000  C
  C23      1.0000 0.83730  0.97460  0.57891  Biso   1.000  C
  C24      1.0000 0.33730  0.52540  0.07891  Biso   1.000  C
  H21      1.0000 0.24350  0.99620  0.44630  Biso   1.000  H
  H22      1.0000 0.74350  0.50380  0.94630  Biso   1.000  H
  H23      1.0000 0.75650  0.00380  0.55370  Biso   1.000  H
  H24      1.0000 0.25650  0.49620  0.05370  Biso   1.000  H
  C25      1.0000 0.97680  0.01150  0.42537  Biso   1.000  C
  C26      1.0000 0.47680  0.48850  0.92537  Biso   1.000  C
  C27      1.0000 0.02320  0.98850  0.57463  Biso   1.000  C
  C28      1.0000 0.52320  0.51150  0.07463  Biso   1.000  C
  H25      1.0000 0.93270  0.97180  0.45270  Biso   1.000  H
  H26      1.0000 0.43270  0.52820  0.95270  Biso   1.000  H
  H27      1.0000 0.06730  0.02820  0.54730  Biso   1.000  H
  H28      1.0000 0.56730  0.47180  0.04730  Biso   1.000  H
  C29      1.0000 0.85720  0.05660  0.38917  Biso   1.000  C
  C30      1.0000 0.35720  0.44340  0.88917  Biso   1.000  C
  C31      1.0000 0.14280  0.94340  0.61083  Biso   1.000  C
  C32      1.0000 0.64280  0.55660  0.11083  Biso   1.000  C
  H29      1.0000 0.73180  0.04770  0.39250  Biso   1.000  H
  H30      1.0000 0.23180  0.45230  0.89250  Biso   1.000  H
  H31      1.0000 0.26820  0.95230  0.60750  Biso   1.000  H
  H32      1.0000 0.76820  0.54770  0.10750  Biso   1.000  H
  C33      1.0000 0.19010  0.29381  0.10707  Biso   1.000  C
  C34      1.0000 0.69010  0.20619  0.60707  Biso   1.000  C
  C35      1.0000 0.80990  0.70619  0.89293  Biso   1.000  C
  C36      1.0000 0.30990  0.79381  0.39293  Biso   1.000  C
  C37      1.0000 0.00740  0.31310  0.09180  Biso   1.000  C
  C38      1.0000 0.50740  0.18690  0.59180  Biso   1.000  C
  C39      1.0000 0.99260  0.68690  0.90820  Biso   1.000  C
  C40      1.0000 0.49260  0.81310  0.40820  Biso   1.000  C
  C41      1.0000 0.96000  0.32540  0.03610  Biso   1.000  C
  C42      1.0000 0.46000  0.17460  0.53610  Biso   1.000  C
  C43      1.0000 0.04000  0.67460  0.96390  Biso   1.000  C
  C44      1.0000 0.54000  0.82540  0.46390  Biso   1.000  C
  H33      1.0000 0.83920  0.33880  0.02550  Biso   1.000  H
  H34      1.0000 0.33920  0.16120  0.52550  Biso   1.000  H
  H35      1.0000 0.16080  0.66120  0.97450  Biso   1.000  H
  H36      1.0000 0.66080  0.83880  0.47450  Biso   1.000  H
  C45      1.0000 0.08790  0.31800  0.99700  Biso   1.000  C
  C46      1.0000 0.58790  0.18200  0.49700  Biso   1.000  C
  C47      1.0000 0.91210  0.68200  0.00300  Biso   1.000  C
  C48      1.0000 0.41210  0.81800  0.50300  Biso   1.000  C
  H37      1.0000 0.05360  0.32700  0.96000  Biso   1.000  H
  H38      1.0000 0.55360  0.17300  0.46000  Biso   1.000  H
  H39      1.0000 0.94640  0.67300  0.04000  Biso   1.000  H
  H40      1.0000 0.44640  0.82700  0.54000  Biso   1.000  H
  C49      1.0000 0.26630  0.29760  0.01085  Biso   1.000  C
  C50      1.0000 0.76630  0.20240  0.51085  Biso   1.000  C
  C51      1.0000 0.73370  0.70240  0.98915  Biso   1.000  C
  C52      1.0000 0.23370  0.79760  0.48915  Biso   1.000  C
  H41      1.0000 0.35240  0.29130  0.98360  Biso   1.000  H
  H42      1.0000 0.85240  0.20870  0.48360  Biso   1.000  H
  H43      1.0000 0.64760  0.70870  0.01640  Biso   1.000  H
  H44      1.0000 0.14760  0.79130  0.51640  Biso   1.000  H
  C53      1.0000 0.31680  0.28640  0.06603  Biso   1.000  C
  C54      1.0000 0.81680  0.21360  0.56603  Biso   1.000  C
  C55      1.0000 0.68320  0.71360  0.93397  Biso   1.000  C
  C56      1.0000 0.18320  0.78640  0.43397  Biso   1.000  C
  H45      1.0000 0.43860  0.27360  0.07570  Biso   1.000  H
  H46      1.0000 0.93860  0.22640  0.57570  Biso   1.000  H
  H47      1.0000 0.56140  0.72640  0.92430  Biso   1.000  H
  H48      1.0000 0.06140  0.77360  0.42430  Biso   1.000  H
  C57      1.0000 0.45020  0.00860  0.24930  Biso   1.000  C
  C58      1.0000 0.95020  0.49140  0.74930  Biso   1.000  C
  C59      1.0000 0.54980  0.99140  0.75070  Biso   1.000  C
  C60      1.0000 0.04980  0.50860  0.25070  Biso   1.000  C
  H49      1.0000 0.41170  0.01150  0.28550  Biso   1.000  H
  H50      1.0000 0.91170  0.48850  0.78550  Biso   1.000  H
  H51      1.0000 0.58830  0.98850  0.71450  Biso   1.000  H
  H52      1.0000 0.08830  0.51150  0.21450  Biso   1.000  H
  C61      1.0000 0.60290  0.09580  0.12218  Biso   1.000  C
  C62      1.0000 0.10290  0.40420  0.62218  Biso   1.000  C
  C63      1.0000 0.39710  0.90420  0.87782  Biso   1.000  C
  C64      1.0000 0.89710  0.59580  0.37782  Biso   1.000  C
  H53      1.0000 0.61870  0.16160  0.12160  Biso   1.000  H
  H54      1.0000 0.11870  0.33840  0.62160  Biso   1.000  H
  H55      1.0000 0.38130  0.83840  0.87840  Biso   1.000  H
  H56      1.0000 0.88130  0.66160  0.37840  Biso   1.000  H
  C65      1.0000 0.63840  0.04000  0.07688  Biso   1.000  C
  C66      1.0000 0.13840  0.46000  0.57688  Biso   1.000  C
  C67      1.0000 0.36160  0.96000  0.92312  Biso   1.000  C
  C68      1.0000 0.86160  0.54000  0.42312  Biso   1.000  C
  H57      1.0000 0.67550  0.06910  0.04460  Biso   1.000  H
  H58      1.0000 0.17550  0.43090  0.54460  Biso   1.000  H
  H59      1.0000 0.32450  0.93090  0.95540  Biso   1.000  H
  H60      1.0000 0.82450  0.56910  0.45540  Biso   1.000  H
  C69      1.0000 0.62040  0.94100  0.07795  Biso   1.000  C
  C70      1.0000 0.12040  0.55900  0.57795  Biso   1.000  C
  C71      1.0000 0.37960  0.05900  0.92205  Biso   1.000  C
  C72      1.0000 0.87960  0.44100  0.42205  Biso   1.000  C
  H61      1.0000 0.64580  0.90620  0.04640  Biso   1.000  H
  H62      1.0000 0.14580  0.59380  0.54640  Biso   1.000  H
  H63      1.0000 0.35420  0.09380  0.95360  Biso   1.000  H
  H64      1.0000 0.85420  0.40620  0.45360  Biso   1.000  H
  C73      1.0000 0.56650  0.89370  0.12417  Biso   1.000  C
  C74      1.0000 0.06650  0.60630  0.62417  Biso   1.000  C
  C75      1.0000 0.43350  0.10630  0.87583  Biso   1.000  C
  C76      1.0000 0.93350  0.39370  0.37583  Biso   1.000  C
  H65      1.0000 0.55740  0.82770  0.12520  Biso   1.000  H
  H66      1.0000 0.05740  0.67230  0.62520  Biso   1.000  H
  H67      1.0000 0.44260  0.17230  0.87480  Biso   1.000  H
  H68      1.0000 0.94260  0.32770  0.37480  Biso   1.000  H
  C77      1.0000 0.52600  0.95012  0.16937  Biso   1.000  C
  C78      1.0000 0.02600  0.54988  0.66937  Biso   1.000  C
  C79      1.0000 0.47400  0.04988  0.83063  Biso   1.000  C
  C80      1.0000 0.97400  0.45012  0.33063  Biso   1.000  C
  C81      1.0000 0.54200  0.04869  0.16892  Biso   1.000  C
  C82      1.0000 0.04200  0.45131  0.66892  Biso   1.000  C
  C83      1.0000 0.45800  0.95131  0.83108  Biso   1.000  C
  C84      1.0000 0.95800  0.54869  0.33108  Biso   1.000  C
  C85      1.0000 0.53710  0.42397  0.25137  Biso   1.000  C
  C86      1.0000 0.03710  0.07603  0.75137  Biso   1.000  C
  C87      1.0000 0.46290  0.57603  0.74863  Biso   1.000  C
  C88      1.0000 0.96290  0.92397  0.24863  Biso   1.000  C
  H69      1.0000 0.57120  0.42180  0.21470  Biso   1.000  H
  H70      1.0000 0.07120  0.07820  0.71470  Biso   1.000  H
  H71      1.0000 0.42880  0.57820  0.78530  Biso   1.000  H
  H72      1.0000 0.92880  0.92180  0.28530  Biso   1.000  H
  C89      1.0000 0.41150  0.33450  0.38109  Biso   1.000  C
  C90      1.0000 0.91150  0.16550  0.88109  Biso   1.000  C
  C91      1.0000 0.58850  0.66550  0.61891  Biso   1.000  C
  C92      1.0000 0.08850  0.83450  0.11891  Biso   1.000  C
  H73      1.0000 0.40520  0.26830  0.38240  Biso   1.000  H
  H74      1.0000 0.90520  0.23170  0.88240  Biso   1.000  H
  H75      1.0000 0.59480  0.73170  0.61760  Biso   1.000  H
  H76      1.0000 0.09480  0.76830  0.11760  Biso   1.000  H
  C93      1.0000 0.37550  0.38940  0.42652  Biso   1.000  C
  C94      1.0000 0.87550  0.11060  0.92652  Biso   1.000  C
  C95      1.0000 0.62450  0.61060  0.57348  Biso   1.000  C
  C96      1.0000 0.12450  0.88940  0.07348  Biso   1.000  C
  H77      1.0000 0.34600  0.35940  0.45930  Biso   1.000  H
  H78      1.0000 0.84600  0.14060  0.95930  Biso   1.000  H
  H79      1.0000 0.65400  0.64060  0.54070  Biso   1.000  H
  H80      1.0000 0.15400  0.85940  0.04070  Biso   1.000  H
  C97      1.0000 0.38180  0.48840  0.42507  Biso   1.000  C
  C98      1.0000 0.88180  0.01160  0.92507  Biso   1.000  C
  C99      1.0000 0.61820  0.51160  0.57493  Biso   1.000  C
  C100     1.0000 0.11820  0.98840  0.07493  Biso   1.000  C
  H81      1.0000 0.35320  0.52280  0.45650  Biso   1.000  H
  H82      1.0000 0.85320  0.97720  0.95650  Biso   1.000  H
  H83      1.0000 0.64680  0.47720  0.54350  Biso   1.000  H
  H84      1.0000 0.14680  0.02280  0.04350  Biso   1.000  H
  C101     1.0000 0.42920  0.53610  0.37842  Biso   1.000  C
  C102     1.0000 0.92920  0.96390  0.87842  Biso   1.000  C
  C103     1.0000 0.57080  0.46390  0.62158  Biso   1.000  C
  C104     1.0000 0.07080  0.03610  0.12158  Biso   1.000  C
  H85      1.0000 0.43490  0.60230  0.37740  Biso   1.000  H
  H86      1.0000 0.93490  0.89770  0.87740  Biso   1.000  H
  H87      1.0000 0.56510  0.39770  0.62260  Biso   1.000  H
  H88      1.0000 0.06510  0.10230  0.12260  Biso   1.000  H
  C105     1.0000 0.46850  0.48120  0.33261  Biso   1.000  C
  C106     1.0000 0.96850  0.01880  0.83261  Biso   1.000  C
  C107     1.0000 0.53150  0.51880  0.66739  Biso   1.000  C
  C108     1.0000 0.03150  0.98120  0.16739  Biso   1.000  C
  C109     1.0000 0.45780  0.38193  0.33303  Biso   1.000  C
  C110     1.0000 0.95780  0.11807  0.83303  Biso   1.000  C
  C111     1.0000 0.54220  0.61807  0.66697  Biso   1.000  C
  C112     1.0000 0.04220  0.88193  0.16697  Biso   1.000  C
