data_image0
_cell_length_a       7.4191
_cell_length_b       27.4874
_cell_length_c       11.5347
_cell_angle_alpha    90
_cell_angle_beta     91.609
_cell_angle_gamma    90

_symmetry_space_group_name_H-M    "P 1"
_symmetry_int_tables_number       1

loop_
  _symmetry_equiv_pos_as_xyz
  'x, y, z'

loop_
  _atom_site_label
  _atom_site_occupancy
  _atom_site_fract_x
  _atom_site_fract_y
  _atom_site_fract_z
  _atom_site_thermal_displace_type
  _atom_site_B_iso_or_equiv
  _atom_site_type_symbol
  C1       1.0000 0.47710  0.19714  0.37270  Biso   1.000  C
  C2       1.0000 0.02290  0.69714  0.12730  Biso   1.000  C
  C3       1.0000 0.52290  0.80286  0.62730  Biso   1.000  C
  C4       1.0000 0.97710  0.30286  0.87270  Biso   1.000  C
  C5       1.0000 0.41150  0.16221  0.27750  Biso   1.000  C
  C6       1.0000 0.08850  0.66221  0.22250  Biso   1.000  C
  C7       1.0000 0.58850  0.83779  0.72250  Biso   1.000  C
  C8       1.0000 0.91150  0.33779  0.77750  Biso   1.000  C
  H1       1.0000 0.28430  0.15460  0.28970  Biso   1.000  H
  H2       1.0000 0.21570  0.65460  0.21030  Biso   1.000  H
  H3       1.0000 0.71570  0.84540  0.71030  Biso   1.000  H
  H4       1.0000 0.78430  0.34540  0.78970  Biso   1.000  H
  C9       1.0000 0.42610  0.18912  0.16200  Biso   1.000  C
  C10      1.0000 0.07390  0.68912  0.33800  Biso   1.000  C
  C11      1.0000 0.57390  0.81088  0.83800  Biso   1.000  C
  C12      1.0000 0.92610  0.31088  0.66200  Biso   1.000  C
  C13      1.0000 0.51880  0.11480  0.28000  Biso   1.000  C
  C14      1.0000 0.98120  0.61480  0.22000  Biso   1.000  C
  C15      1.0000 0.48120  0.88520  0.72000  Biso   1.000  C
  C16      1.0000 0.01880  0.38520  0.78000  Biso   1.000  C
  H5       1.0000 0.47340  0.09350  0.21990  Biso   1.000  H
  H6       1.0000 0.02660  0.59350  0.28010  Biso   1.000  H
  H7       1.0000 0.52660  0.90650  0.78010  Biso   1.000  H
  H8       1.0000 0.97340  0.40650  0.71990  Biso   1.000  H
  H9       1.0000 0.50690  0.09930  0.35400  Biso   1.000  H
  H10      1.0000 0.99310  0.59930  0.14600  Biso   1.000  H
  H11      1.0000 0.49310  0.90070  0.64600  Biso   1.000  H
  H12      1.0000 0.00690  0.40070  0.85400  Biso   1.000  H
  H13      1.0000 0.64370  0.12160  0.26760  Biso   1.000  H
  H14      1.0000 0.85630  0.62160  0.23240  Biso   1.000  H
  H15      1.0000 0.35630  0.87840  0.73240  Biso   1.000  H
  H16      1.0000 0.14370  0.37840  0.76760  Biso   1.000  H
  O1       1.0000 0.64650  0.20014  0.38520  Biso   1.000  O
  O2       1.0000 0.85350  0.70014  0.11480  Biso   1.000  O
  O3       1.0000 0.35350  0.79986  0.61480  Biso   1.000  O
  O4       1.0000 0.14650  0.29986  0.88520  Biso   1.000  O
  O5       1.0000 0.36970  0.22055  0.42920  Biso   1.000  O
  O6       1.0000 0.13030  0.72055  0.07080  Biso   1.000  O
  O7       1.0000 0.63030  0.77945  0.57080  Biso   1.000  O
  O8       1.0000 0.86970  0.27945  0.92920  Biso   1.000  O
  O9       1.0000 0.00340  0.21306  0.42980  Biso   1.000  O
  O10      1.0000 0.49660  0.71306  0.07020  Biso   1.000  O
  O11      1.0000 0.99660  0.78694  0.57020  Biso   1.000  O
  O12      1.0000 0.50340  0.28694  0.92980  Biso   1.000  O
  O13      1.0000 0.56880  0.19027  0.11060  Biso   1.000  O
  O14      1.0000 0.93120  0.69027  0.38940  Biso   1.000  O
  O15      1.0000 0.43120  0.80973  0.88940  Biso   1.000  O
  O16      1.0000 0.06880  0.30973  0.61060  Biso   1.000  O
  O17      1.0000 0.93830  0.16970  0.20280  Biso   1.000  O
  O18      1.0000 0.56170  0.66970  0.29720  Biso   1.000  O
  O19      1.0000 0.06170  0.83030  0.79720  Biso   1.000  O
  O20      1.0000 0.43830  0.33030  0.70280  Biso   1.000  O
  O21      1.0000 0.27960  0.20994  0.12800  Biso   1.000  O
  O22      1.0000 0.22040  0.70994  0.37200  Biso   1.000  O
  O23      1.0000 0.72040  0.79006  0.87200  Biso   1.000  O
  O24      1.0000 0.77960  0.29006  0.62800  Biso   1.000  O
  C17      1.0000 0.70670  0.19705  0.73560  Biso   1.000  C
  C18      1.0000 0.79330  0.69705  0.76440  Biso   1.000  C
  C19      1.0000 0.29330  0.80295  0.26440  Biso   1.000  C
  C20      1.0000 0.20670  0.30295  0.23560  Biso   1.000  C
  H17      1.0000 0.69140  0.22890  0.76050  Biso   1.000  H
  H18      1.0000 0.80860  0.72890  0.73950  Biso   1.000  H
  H19      1.0000 0.30860  0.77110  0.23950  Biso   1.000  H
  H20      1.0000 0.19140  0.27110  0.26050  Biso   1.000  H
  C21      1.0000 0.70490  0.16077  0.81720  Biso   1.000  C
  C22      1.0000 0.79510  0.66077  0.68280  Biso   1.000  C
  C23      1.0000 0.29510  0.83923  0.18280  Biso   1.000  C
  C24      1.0000 0.20490  0.33923  0.31720  Biso   1.000  C
  H21      1.0000 0.68700  0.16830  0.89470  Biso   1.000  H
  H22      1.0000 0.81300  0.66830  0.60530  Biso   1.000  H
  H23      1.0000 0.31300  0.83170  0.10530  Biso   1.000  H
  H24      1.0000 0.18700  0.33170  0.39470  Biso   1.000  H
  C25      1.0000 0.72960  0.11304  0.78440  Biso   1.000  C
  C26      1.0000 0.77040  0.61304  0.71560  Biso   1.000  C
  C27      1.0000 0.27040  0.88696  0.21560  Biso   1.000  C
  C28      1.0000 0.22960  0.38696  0.28440  Biso   1.000  C
  C29      1.0000 0.75000  0.10513  0.66680  Biso   1.000  C
  C30      1.0000 0.75000  0.60513  0.83320  Biso   1.000  C
  C31      1.0000 0.25000  0.89487  0.33320  Biso   1.000  C
  C32      1.0000 0.25000  0.39487  0.16680  Biso   1.000  C
  H25      1.0000 0.76480  0.07350  0.63990  Biso   1.000  H
  H26      1.0000 0.73520  0.57350  0.86010  Biso   1.000  H
  H27      1.0000 0.23520  0.92650  0.36010  Biso   1.000  H
  H28      1.0000 0.26480  0.42650  0.13990  Biso   1.000  H
  C33      1.0000 0.74870  0.14289  0.58940  Biso   1.000  C
  C34      1.0000 0.75130  0.64289  0.91060  Biso   1.000  C
  C35      1.0000 0.25130  0.85711  0.41060  Biso   1.000  C
  C36      1.0000 0.24870  0.35711  0.08940  Biso   1.000  C
  H29      1.0000 0.76190  0.13610  0.51110  Biso   1.000  H
  H30      1.0000 0.73810  0.63610  0.98890  Biso   1.000  H
  H31      1.0000 0.23810  0.86390  0.48890  Biso   1.000  H
  H32      1.0000 0.26190  0.36390  0.01110  Biso   1.000  H
  C37      1.0000 0.73850  0.07263  0.86880  Biso   1.000  C
  C38      1.0000 0.76150  0.57263  0.63120  Biso   1.000  C
  C39      1.0000 0.26150  0.92737  0.13120  Biso   1.000  C
  C40      1.0000 0.23850  0.42737  0.36880  Biso   1.000  C
  C41      1.0000 0.75800  0.08100  0.98760  Biso   1.000  C
  C42      1.0000 0.74200  0.58100  0.51240  Biso   1.000  C
  C43      1.0000 0.24200  0.91900  0.01240  Biso   1.000  C
  C44      1.0000 0.25800  0.41900  0.48760  Biso   1.000  C
  H33      1.0000 0.76250  0.11270  0.01570  Biso   1.000  H
  H34      1.0000 0.73750  0.61270  0.48430  Biso   1.000  H
  H35      1.0000 0.23750  0.88730  0.98430  Biso   1.000  H
  H36      1.0000 0.26250  0.38730  0.51570  Biso   1.000  H
  C45      1.0000 0.77040  0.04260  0.06310  Biso   1.000  C
  C46      1.0000 0.72960  0.54260  0.43690  Biso   1.000  C
  C47      1.0000 0.22960  0.95740  0.93690  Biso   1.000  C
  C48      1.0000 0.27040  0.45740  0.56310  Biso   1.000  C
  H37      1.0000 0.78430  0.04970  0.14160  Biso   1.000  H
  H38      1.0000 0.71570  0.54970  0.35840  Biso   1.000  H
  H39      1.0000 0.21570  0.95030  0.85840  Biso   1.000  H
  H40      1.0000 0.28430  0.45030  0.64160  Biso   1.000  H
  C49      1.0000 0.75080  0.98910  0.92120  Biso   1.000  C
  C50      1.0000 0.74920  0.48910  0.57880  Biso   1.000  C
  C51      1.0000 0.24920  0.01090  0.07880  Biso   1.000  C
  C52      1.0000 0.25080  0.51090  0.42120  Biso   1.000  C
  H41      1.0000 0.75060  0.95690  0.89610  Biso   1.000  H
  H42      1.0000 0.74940  0.45690  0.60390  Biso   1.000  H
  H43      1.0000 0.24940  0.04310  0.10390  Biso   1.000  H
  H44      1.0000 0.25060  0.54310  0.39610  Biso   1.000  H
  C53      1.0000 0.73690  0.02460  0.83810  Biso   1.000  C
  C54      1.0000 0.76310  0.52460  0.66190  Biso   1.000  C
  C55      1.0000 0.26310  0.97540  0.16190  Biso   1.000  C
  C56      1.0000 0.23690  0.47540  0.33810  Biso   1.000  C
  H45      1.0000 0.72630  0.01590  0.76030  Biso   1.000  H
  H46      1.0000 0.77370  0.51590  0.73970  Biso   1.000  H
  H47      1.0000 0.27370  0.98410  0.23970  Biso   1.000  H
  H48      1.0000 0.22630  0.48410  0.26030  Biso   1.000  H
  C57      1.0000 0.74610  0.29171  0.27190  Biso   1.000  C
  C58      1.0000 0.75390  0.79171  0.22810  Biso   1.000  C
  C59      1.0000 0.25390  0.70829  0.72810  Biso   1.000  C
  C60      1.0000 0.24610  0.20829  0.77190  Biso   1.000  C
  H49      1.0000 0.75950  0.25950  0.24880  Biso   1.000  H
  H50      1.0000 0.74050  0.75950  0.25120  Biso   1.000  H
  H51      1.0000 0.24050  0.74050  0.75120  Biso   1.000  H
  H52      1.0000 0.25950  0.24050  0.74880  Biso   1.000  H
  C61      1.0000 0.74500  0.32696  0.18840  Biso   1.000  C
  C62      1.0000 0.75500  0.82696  0.31160  Biso   1.000  C
  C63      1.0000 0.25500  0.67304  0.81160  Biso   1.000  C
  C64      1.0000 0.24500  0.17304  0.68840  Biso   1.000  C
  H53      1.0000 0.75740  0.31840  0.11100  Biso   1.000  H
  H54      1.0000 0.74260  0.81840  0.38900  Biso   1.000  H
  H55      1.0000 0.24260  0.68160  0.88900  Biso   1.000  H
  H56      1.0000 0.25740  0.18160  0.61100  Biso   1.000  H
  C65      1.0000 0.72520  0.37552  0.21880  Biso   1.000  C
  C66      1.0000 0.77480  0.87552  0.28120  Biso   1.000  C
  C67      1.0000 0.27480  0.62448  0.78120  Biso   1.000  C
  C68      1.0000 0.22520  0.12448  0.71880  Biso   1.000  C
  C69      1.0000 0.70780  0.38510  0.33700  Biso   1.000  C
  C70      1.0000 0.79220  0.88510  0.16300  Biso   1.000  C
  C71      1.0000 0.29220  0.61490  0.66300  Biso   1.000  C
  C72      1.0000 0.20780  0.11490  0.83700  Biso   1.000  C
  H57      1.0000 0.69480  0.41690  0.36270  Biso   1.000  H
  H58      1.0000 0.80520  0.91690  0.13730  Biso   1.000  H
  H59      1.0000 0.30520  0.58310  0.63730  Biso   1.000  H
  H60      1.0000 0.19480  0.08310  0.86270  Biso   1.000  H
  C73      1.0000 0.70990  0.34797  0.41410  Biso   1.000  C
  C74      1.0000 0.79010  0.84797  0.08590  Biso   1.000  C
  C75      1.0000 0.29010  0.65203  0.58590  Biso   1.000  C
  C76      1.0000 0.20990  0.15203  0.91410  Biso   1.000  C
  H61      1.0000 0.69730  0.35550  0.49200  Biso   1.000  H
  H62      1.0000 0.80270  0.85550  0.00800  Biso   1.000  H
  H63      1.0000 0.30270  0.64450  0.50800  Biso   1.000  H
  H64      1.0000 0.19730  0.14450  0.99200  Biso   1.000  H
  C77      1.0000 0.72340  0.41461  0.13140  Biso   1.000  C
  C78      1.0000 0.77660  0.91461  0.36860  Biso   1.000  C
  C79      1.0000 0.27660  0.58539  0.86860  Biso   1.000  C
  C80      1.0000 0.22340  0.08539  0.63140  Biso   1.000  C
  C81      1.0000 0.66810  0.40630  0.01680  Biso   1.000  C
  C82      1.0000 0.83190  0.90630  0.48320  Biso   1.000  C
  C83      1.0000 0.33190  0.59370  0.98320  Biso   1.000  C
  C84      1.0000 0.16810  0.09370  0.51680  Biso   1.000  C
  H65      1.0000 0.63000  0.37550  0.99380  Biso   1.000  H
  H66      1.0000 0.87000  0.87550  0.50620  Biso   1.000  H
  H67      1.0000 0.37000  0.62450  0.00620  Biso   1.000  H
  H68      1.0000 0.13000  0.12450  0.49380  Biso   1.000  H
  C85      1.0000 0.66960  0.44340  0.93810  Biso   1.000  C
  C86      1.0000 0.83040  0.94340  0.56190  Biso   1.000  C
  C87      1.0000 0.33040  0.55660  0.06190  Biso   1.000  C
  C88      1.0000 0.16960  0.05660  0.43810  Biso   1.000  C
  H69      1.0000 0.63020  0.43670  0.86250  Biso   1.000  H
  H70      1.0000 0.86980  0.93670  0.63750  Biso   1.000  H
  H71      1.0000 0.36980  0.56330  0.13750  Biso   1.000  H
  H72      1.0000 0.13020  0.06330  0.36250  Biso   1.000  H
  C89      1.0000 0.77580  0.49580  0.07200  Biso   1.000  C
  C90      1.0000 0.72420  0.99580  0.42800  Biso   1.000  C
  C91      1.0000 0.22420  0.50420  0.92800  Biso   1.000  C
  C92      1.0000 0.27580  0.00420  0.57200  Biso   1.000  C
  H73      1.0000 0.81230  0.52710  0.09250  Biso   1.000  H
  H74      1.0000 0.68770  0.02710  0.40750  Biso   1.000  H
  H75      1.0000 0.18770  0.47290  0.90750  Biso   1.000  H
  H76      1.0000 0.31230  0.97290  0.59250  Biso   1.000  H
  C93      1.0000 0.77980  0.46120  0.15670  Biso   1.000  C
  C94      1.0000 0.72020  0.96120  0.34330  Biso   1.000  C
  C95      1.0000 0.22020  0.53880  0.84330  Biso   1.000  C
  C96      1.0000 0.27980  0.03880  0.65670  Biso   1.000  C
  H77      1.0000 0.82070  0.46900  0.23130  Biso   1.000  H
  H78      1.0000 0.67930  0.96900  0.26870  Biso   1.000  H
  H79      1.0000 0.17930  0.53100  0.76870  Biso   1.000  H
  H80      1.0000 0.32070  0.03100  0.73130  Biso   1.000  H
  Cu1      1.0000 0.74396  0.24457  0.50198  Biso   1.000  Cu
  Cu2      1.0000 0.75604  0.74457  0.99802  Biso   1.000  Cu
  Cu3      1.0000 0.25604  0.75543  0.49802  Biso   1.000  Cu
  Cu4      1.0000 0.24396  0.25543  0.00198  Biso   1.000  Cu
  N1       1.0000 0.72900  0.18941  0.62270  Biso   1.000  N
  N2       1.0000 0.77100  0.68941  0.87730  Biso   1.000  N
  N3       1.0000 0.27100  0.81059  0.37730  Biso   1.000  N
  N4       1.0000 0.22900  0.31059  0.12270  Biso   1.000  N
  N5       1.0000 0.76420  0.99670  0.03310  Biso   1.000  N
  N6       1.0000 0.73580  0.49670  0.46690  Biso   1.000  N
  N7       1.0000 0.23580  0.00330  0.96690  Biso   1.000  N
  N8       1.0000 0.26420  0.50330  0.53310  Biso   1.000  N
  N9       1.0000 0.72910  0.30079  0.38540  Biso   1.000  N
  N10      1.0000 0.77090  0.80079  0.11460  Biso   1.000  N
  N11      1.0000 0.27090  0.69921  0.61460  Biso   1.000  N
  N12      1.0000 0.22910  0.19921  0.88540  Biso   1.000  N
  N13      1.0000 0.72330  0.48815  0.96200  Biso   1.000  N
  N14      1.0000 0.77670  0.98815  0.53800  Biso   1.000  N
  N15      1.0000 0.27670  0.51185  0.03800  Biso   1.000  N
  N16      1.0000 0.22330  0.01185  0.46200  Biso   1.000  N
