data_image0
_cell_length_a       6.768
_cell_length_b       19.989
_cell_length_c       9.4923
_cell_angle_alpha    90
_cell_angle_beta     90.717
_cell_angle_gamma    90

_symmetry_space_group_name_H-M    "P 1"
_symmetry_int_tables_number       1

loop_
  _symmetry_equiv_pos_as_xyz
  'x, y, z'

loop_
  _atom_site_label
  _atom_site_occupancy
  _atom_site_fract_x
  _atom_site_fract_y
  _atom_site_fract_z
  _atom_site_thermal_displace_type
  _atom_site_B_iso_or_equiv
  _atom_site_type_symbol
  C1       1.0000 0.43470  0.37862  0.37190  Biso   1.000  C
  C2       1.0000 0.93470  0.12138  0.87190  Biso   1.000  C
  C3       1.0000 0.56530  0.62138  0.62810  Biso   1.000  C
  C4       1.0000 0.06530  0.87862  0.12810  Biso   1.000  C
  H1       1.0000 0.44420  0.42270  0.40250  Biso   1.000  H
  H2       1.0000 0.94420  0.07730  0.90250  Biso   1.000  H
  H3       1.0000 0.55580  0.57730  0.59750  Biso   1.000  H
  H4       1.0000 0.05580  0.92270  0.09750  Biso   1.000  H
  C5       1.0000 0.43800  0.36570  0.22920  Biso   1.000  C
  C6       1.0000 0.93800  0.13430  0.72920  Biso   1.000  C
  C7       1.0000 0.56200  0.63430  0.77080  Biso   1.000  C
  C8       1.0000 0.06200  0.86570  0.27080  Biso   1.000  C
  H5       1.0000 0.46000  0.39980  0.16450  Biso   1.000  H
  H6       1.0000 0.96000  0.10020  0.66450  Biso   1.000  H
  H7       1.0000 0.54000  0.60020  0.83550  Biso   1.000  H
  H8       1.0000 0.04000  0.89980  0.33550  Biso   1.000  H
  C9       1.0000 0.40750  0.30097  0.18570  Biso   1.000  C
  C10      1.0000 0.90750  0.19903  0.68570  Biso   1.000  C
  C11      1.0000 0.59250  0.69903  0.81430  Biso   1.000  C
  C12      1.0000 0.09250  0.80097  0.31430  Biso   1.000  C
  H9       1.0000 0.40350  0.29140  0.08980  Biso   1.000  H
  H10      1.0000 0.90350  0.20860  0.58980  Biso   1.000  H
  H11      1.0000 0.59650  0.70860  0.91020  Biso   1.000  H
  H12      1.0000 0.09650  0.79140  0.41020  Biso   1.000  H
  C13      1.0000 0.38280  0.25003  0.28070  Biso   1.000  C
  C14      1.0000 0.88280  0.24997  0.78070  Biso   1.000  C
  C15      1.0000 0.61720  0.74997  0.71930  Biso   1.000  C
  C16      1.0000 0.11720  0.75003  0.21930  Biso   1.000  C
  C17      1.0000 0.40320  0.26532  0.42430  Biso   1.000  C
  C18      1.0000 0.90320  0.23468  0.92430  Biso   1.000  C
  C19      1.0000 0.59680  0.73468  0.57570  Biso   1.000  C
  C20      1.0000 0.09680  0.76532  0.07570  Biso   1.000  C
  C21      1.0000 0.41620  0.21691  0.54330  Biso   1.000  C
  C22      1.0000 0.91620  0.28309  0.04330  Biso   1.000  C
  C23      1.0000 0.58380  0.78309  0.45670  Biso   1.000  C
  C24      1.0000 0.08380  0.71691  0.95670  Biso   1.000  C
  C25      1.0000 0.48110  0.15095  0.53540  Biso   1.000  C
  C26      1.0000 0.98110  0.34905  0.03540  Biso   1.000  C
  C27      1.0000 0.51890  0.84905  0.46460  Biso   1.000  C
  C28      1.0000 0.01890  0.65095  0.96460  Biso   1.000  C
  C29      1.0000 0.47070  0.11145  0.65580  Biso   1.000  C
  C30      1.0000 0.97070  0.38855  0.15580  Biso   1.000  C
  C31      1.0000 0.52930  0.88855  0.34420  Biso   1.000  C
  C32      1.0000 0.02930  0.61145  0.84420  Biso   1.000  C
  H13      1.0000 0.49910  0.06600  0.65070  Biso   1.000  H
  H14      1.0000 0.99910  0.43400  0.15070  Biso   1.000  H
  H15      1.0000 0.50090  0.93400  0.34930  Biso   1.000  H
  H16      1.0000 0.00090  0.56600  0.84930  Biso   1.000  H
  C33      1.0000 0.41840  0.13941  0.78210  Biso   1.000  C
  C34      1.0000 0.91840  0.36059  0.28210  Biso   1.000  C
  C35      1.0000 0.58160  0.86059  0.21790  Biso   1.000  C
  C36      1.0000 0.08160  0.63941  0.71790  Biso   1.000  C
  H17      1.0000 0.41190  0.11340  0.86320  Biso   1.000  H
  H18      1.0000 0.91190  0.38660  0.36320  Biso   1.000  H
  H19      1.0000 0.58810  0.88660  0.13680  Biso   1.000  H
  H20      1.0000 0.08810  0.61340  0.63680  Biso   1.000  H
  C37      1.0000 0.37570  0.20679  0.78630  Biso   1.000  C
  C38      1.0000 0.87570  0.29321  0.28630  Biso   1.000  C
  C39      1.0000 0.62430  0.79321  0.21370  Biso   1.000  C
  C40      1.0000 0.12430  0.70679  0.71370  Biso   1.000  C
  H21      1.0000 0.35120  0.22680  0.87280  Biso   1.000  H
  H22      1.0000 0.85120  0.27320  0.37280  Biso   1.000  H
  H23      1.0000 0.64880  0.77320  0.12720  Biso   1.000  H
  H24      1.0000 0.14880  0.72680  0.62720  Biso   1.000  H
  C41      1.0000 0.31620  0.18230  0.22370  Biso   1.000  C
  C42      1.0000 0.81620  0.31770  0.72370  Biso   1.000  C
  C43      1.0000 0.68380  0.81770  0.77630  Biso   1.000  C
  C44      1.0000 0.18380  0.68230  0.27630  Biso   1.000  C
  C45      1.0000 0.59040  0.12067  0.41260  Biso   1.000  C
  C46      1.0000 0.09040  0.37933  0.91260  Biso   1.000  C
  C47      1.0000 0.40960  0.87933  0.58740  Biso   1.000  C
  C48      1.0000 0.90960  0.62067  0.08740  Biso   1.000  C
  Cu1      1.0000 0.34847  0.34412  0.67357  Biso   1.000  Cu
  Cu2      1.0000 0.84847  0.15588  0.17357  Biso   1.000  Cu
  Cu3      1.0000 0.65153  0.65589  0.32643  Biso   1.000  Cu
  Cu4      1.0000 0.15153  0.84411  0.82643  Biso   1.000  Cu
  O1       1.0000 0.40240  0.16084  0.11770  Biso   1.000  O
  O2       1.0000 0.90240  0.33916  0.61770  Biso   1.000  O
  O3       1.0000 0.59760  0.83916  0.88230  Biso   1.000  O
  O4       1.0000 0.09760  0.66084  0.38230  Biso   1.000  O
  N1       1.0000 0.36850  0.24435  0.66900  Biso   1.000  N
  N2       1.0000 0.86850  0.25565  0.16900  Biso   1.000  N
  N3       1.0000 0.63150  0.75565  0.33100  Biso   1.000  N
  N4       1.0000 0.13150  0.74435  0.83100  Biso   1.000  N
  O5       1.0000 0.17140  0.15582  0.28370  Biso   1.000  O
  O6       1.0000 0.67140  0.34418  0.78370  Biso   1.000  O
  O7       1.0000 0.82860  0.84418  0.71630  Biso   1.000  O
  O8       1.0000 0.32860  0.65582  0.21630  Biso   1.000  O
  O9       1.0000 0.71410  0.16050  0.35580  Biso   1.000  O
  O10      1.0000 0.21410  0.33950  0.85580  Biso   1.000  O
  O11      1.0000 0.28590  0.83950  0.64420  Biso   1.000  O
  O12      1.0000 0.78590  0.66050  0.14420  Biso   1.000  O
  N5       1.0000 0.41840  0.32980  0.46800  Biso   1.000  N
  N6       1.0000 0.91840  0.17020  0.96800  Biso   1.000  N
  N7       1.0000 0.58160  0.67020  0.53200  Biso   1.000  N
  N8       1.0000 0.08160  0.82980  0.03200  Biso   1.000  N
  O13      1.0000 0.56360  0.06164  0.38440  Biso   1.000  O
  O14      1.0000 0.06360  0.43836  0.88440  Biso   1.000  O
  O15      1.0000 0.43640  0.93836  0.61560  Biso   1.000  O
  O16      1.0000 0.93640  0.56164  0.11560  Biso   1.000  O
  O17      1.0000 0.34390  0.44308  0.66750  Biso   1.000  O
  O18      1.0000 0.84390  0.05692  0.16750  Biso   1.000  O
  O19      1.0000 0.65610  0.55692  0.33250  Biso   1.000  O
  O20      1.0000 0.15610  0.94308  0.83250  Biso   1.000  O
  O21      1.0000 0.81280  0.47346  0.58470  Biso   1.000  O
  O22      1.0000 0.31280  0.02654  0.08470  Biso   1.000  O
  O23      1.0000 0.18720  0.52654  0.41530  Biso   1.000  O
  O24      1.0000 0.68720  0.97346  0.91530  Biso   1.000  O
  O25      1.0000 0.64160  0.47782  0.90440  Biso   1.000  O
  O26      1.0000 0.14160  0.02218  0.40440  Biso   1.000  O
  O27      1.0000 0.35840  0.52218  0.09560  Biso   1.000  O
  O28      1.0000 0.85840  0.97782  0.59560  Biso   1.000  O
