data_image0
_cell_length_a       17.63
_cell_length_b       13.67
_cell_length_c       25.111
_cell_angle_alpha    90
_cell_angle_beta     106.61
_cell_angle_gamma    90

_symmetry_space_group_name_H-M    "P 1"
_symmetry_int_tables_number       1

loop_
  _symmetry_equiv_pos_as_xyz
  'x, y, z'

loop_
  _atom_site_label
  _atom_site_occupancy
  _atom_site_fract_x
  _atom_site_fract_y
  _atom_site_fract_z
  _atom_site_thermal_displace_type
  _atom_site_B_iso_or_equiv
  _atom_site_type_symbol
  Mo1      1.0000 0.92925  0.23382  0.29077  Biso   1.000  Mo
  Mo2      1.0000 0.42925  0.73382  0.29077  Biso   1.000  Mo
  Mo3      1.0000 0.07075  0.23382  0.20923  Biso   1.000  Mo
  Mo4      1.0000 0.57075  0.73382  0.20923  Biso   1.000  Mo
  Mo5      1.0000 0.07075  0.76618  0.70923  Biso   1.000  Mo
  Mo6      1.0000 0.57075  0.26618  0.70923  Biso   1.000  Mo
  Mo7      1.0000 0.92925  0.76618  0.79077  Biso   1.000  Mo
  Mo8      1.0000 0.42925  0.26618  0.79077  Biso   1.000  Mo
  Mo9      1.0000 0.08172  0.99583  0.17263  Biso   1.000  Mo
  Mo10     1.0000 0.58172  0.49583  0.17263  Biso   1.000  Mo
  Mo11     1.0000 0.91828  0.99583  0.32737  Biso   1.000  Mo
  Mo12     1.0000 0.41828  0.49583  0.32737  Biso   1.000  Mo
  Mo13     1.0000 0.91828  0.00417  0.82737  Biso   1.000  Mo
  Mo14     1.0000 0.41828  0.50417  0.82737  Biso   1.000  Mo
  Mo15     1.0000 0.08172  0.00417  0.67263  Biso   1.000  Mo
  Mo16     1.0000 0.58172  0.50417  0.67263  Biso   1.000  Mo
  Mo17     1.0000 0.00000  0.85209  0.25000  Biso   1.000  Mo
  Mo18     1.0000 0.50000  0.35209  0.25000  Biso   1.000  Mo
  Mo19     1.0000 0.00000  0.14791  0.75000  Biso   1.000  Mo
  Mo20     1.0000 0.50000  0.64791  0.75000  Biso   1.000  Mo
  Cu1      1.0000 0.00000  0.00000  0.00000  Biso   1.000  Cu
  Cu2      1.0000 0.50000  0.50000  0.00000  Biso   1.000  Cu
  Cu3      1.0000 0.00000  0.00000  0.50000  Biso   1.000  Cu
  Cu4      1.0000 0.50000  0.50000  0.50000  Biso   1.000  Cu
  P1       1.0000 0.09401  0.06898  0.30927  Biso   1.000  P
  P2       1.0000 0.59401  0.56898  0.30927  Biso   1.000  P
  P3       1.0000 0.90599  0.06898  0.19073  Biso   1.000  P
  P4       1.0000 0.40599  0.56898  0.19073  Biso   1.000  P
  P5       1.0000 0.90599  0.93102  0.69073  Biso   1.000  P
  P6       1.0000 0.40599  0.43102  0.69073  Biso   1.000  P
  P7       1.0000 0.09401  0.93102  0.80927  Biso   1.000  P
  P8       1.0000 0.59401  0.43102  0.80927  Biso   1.000  P
  O1       1.0000 0.98140  0.27820  0.35500  Biso   1.000  O
  O2       1.0000 0.48140  0.77820  0.35500  Biso   1.000  O
  O3       1.0000 0.01860  0.27820  0.14500  Biso   1.000  O
  O4       1.0000 0.51860  0.77820  0.14500  Biso   1.000  O
  O5       1.0000 0.01860  0.72180  0.64500  Biso   1.000  O
  O6       1.0000 0.51860  0.22180  0.64500  Biso   1.000  O
  O7       1.0000 0.98140  0.72180  0.85500  Biso   1.000  O
  O8       1.0000 0.48140  0.22180  0.85500  Biso   1.000  O
  O9       1.0000 0.08990  0.98440  0.26760  Biso   1.000  O
  O10      1.0000 0.58990  0.48440  0.26760  Biso   1.000  O
  O11      1.0000 0.91010  0.98440  0.23240  Biso   1.000  O
  O12      1.0000 0.41010  0.48440  0.23240  Biso   1.000  O
  O13      1.0000 0.91010  0.01560  0.73240  Biso   1.000  O
  O14      1.0000 0.41010  0.51560  0.73240  Biso   1.000  O
  O15      1.0000 0.08990  0.01560  0.76760  Biso   1.000  O
  O16      1.0000 0.58990  0.51560  0.76760  Biso   1.000  O
  O17      1.0000 0.14310  0.03500  0.36906  Biso   1.000  O
  O18      1.0000 0.64310  0.53500  0.36906  Biso   1.000  O
  O19      1.0000 0.85690  0.03500  0.13094  Biso   1.000  O
  O20      1.0000 0.35690  0.53500  0.13094  Biso   1.000  O
  O21      1.0000 0.85690  0.96500  0.63094  Biso   1.000  O
  O22      1.0000 0.35690  0.46500  0.63094  Biso   1.000  O
  O23      1.0000 0.14310  0.96500  0.86906  Biso   1.000  O
  O24      1.0000 0.64310  0.46500  0.86906  Biso   1.000  O
  O25      1.0000 0.85420  0.31720  0.26920  Biso   1.000  O
  O26      1.0000 0.35420  0.81720  0.26920  Biso   1.000  O
  O27      1.0000 0.14580  0.31720  0.23080  Biso   1.000  O
  O28      1.0000 0.64580  0.81720  0.23080  Biso   1.000  O
  O29      1.0000 0.14580  0.68280  0.73080  Biso   1.000  O
  O30      1.0000 0.64580  0.18280  0.73080  Biso   1.000  O
  O31      1.0000 0.85420  0.68280  0.76920  Biso   1.000  O
  O32      1.0000 0.35420  0.18280  0.76920  Biso   1.000  O
  O33      1.0000 0.04690  0.00440  0.10058  Biso   1.000  O
  O34      1.0000 0.54690  0.50440  0.10058  Biso   1.000  O
  O35      1.0000 0.95310  0.00440  0.39942  Biso   1.000  O
  O36      1.0000 0.45310  0.50440  0.39942  Biso   1.000  O
  O37      1.0000 0.95310  0.99560  0.89942  Biso   1.000  O
  O38      1.0000 0.45310  0.49560  0.89942  Biso   1.000  O
  O39      1.0000 0.04690  0.99560  0.60058  Biso   1.000  O
  O40      1.0000 0.54690  0.49560  0.60058  Biso   1.000  O
  O41      1.0000 0.01100  0.09360  0.31355  Biso   1.000  O
  O42      1.0000 0.51100  0.59360  0.31355  Biso   1.000  O
  O43      1.0000 0.98900  0.09360  0.18645  Biso   1.000  O
  O44      1.0000 0.48900  0.59360  0.18645  Biso   1.000  O
  O45      1.0000 0.98900  0.90640  0.68645  Biso   1.000  O
  O46      1.0000 0.48900  0.40640  0.68645  Biso   1.000  O
  O47      1.0000 0.01100  0.90640  0.81355  Biso   1.000  O
  O48      1.0000 0.51100  0.40640  0.81355  Biso   1.000  O
  O49      1.0000 0.07920  0.77510  0.27370  Biso   1.000  O
  O50      1.0000 0.57920  0.27510  0.27370  Biso   1.000  O
  O51      1.0000 0.92080  0.77510  0.22630  Biso   1.000  O
  O52      1.0000 0.42080  0.27510  0.22630  Biso   1.000  O
  O53      1.0000 0.92080  0.22490  0.72630  Biso   1.000  O
  O54      1.0000 0.42080  0.72490  0.72630  Biso   1.000  O
  O55      1.0000 0.07920  0.22490  0.77370  Biso   1.000  O
  O56      1.0000 0.57920  0.72490  0.77370  Biso   1.000  O
  O57      1.0000 0.12940  0.16000  0.29217  Biso   1.000  O
  O58      1.0000 0.62940  0.66000  0.29217  Biso   1.000  O
  O59      1.0000 0.87060  0.16000  0.20783  Biso   1.000  O
  O60      1.0000 0.37060  0.66000  0.20783  Biso   1.000  O
  O61      1.0000 0.87060  0.84000  0.70783  Biso   1.000  O
  O62      1.0000 0.37060  0.34000  0.70783  Biso   1.000  O
  O63      1.0000 0.12940  0.84000  0.79217  Biso   1.000  O
  O64      1.0000 0.62940  0.34000  0.79217  Biso   1.000  O
  O65      1.0000 0.00000  0.27190  0.25000  Biso   1.000  O
  O66      1.0000 0.50000  0.77190  0.25000  Biso   1.000  O
  O67      1.0000 0.00000  0.72810  0.75000  Biso   1.000  O
  O68      1.0000 0.50000  0.22810  0.75000  Biso   1.000  O
  O69      1.0000 0.87150  0.12640  0.31126  Biso   1.000  O
  O70      1.0000 0.37150  0.62640  0.31126  Biso   1.000  O
  O71      1.0000 0.12850  0.12640  0.18874  Biso   1.000  O
  O72      1.0000 0.62850  0.62640  0.18874  Biso   1.000  O
  O73      1.0000 0.12850  0.87360  0.68874  Biso   1.000  O
  O74      1.0000 0.62850  0.37360  0.68874  Biso   1.000  O
  O75      1.0000 0.87150  0.87360  0.81126  Biso   1.000  O
  O76      1.0000 0.37150  0.37360  0.81126  Biso   1.000  O
  O77      1.0000 0.01160  0.89400  0.17994  Biso   1.000  O
  O78      1.0000 0.51160  0.39400  0.17994  Biso   1.000  O
  O79      1.0000 0.98840  0.89400  0.32006  Biso   1.000  O
  O80      1.0000 0.48840  0.39400  0.32006  Biso   1.000  O
  O81      1.0000 0.98840  0.10600  0.82006  Biso   1.000  O
  O82      1.0000 0.48840  0.60600  0.82006  Biso   1.000  O
  O83      1.0000 0.01160  0.10600  0.67994  Biso   1.000  O
  O84      1.0000 0.51160  0.60600  0.67994  Biso   1.000  O
  O85      1.0000 0.16850  0.93410  0.18500  Biso   1.000  O
  O86      1.0000 0.66850  0.43410  0.18500  Biso   1.000  O
  O87      1.0000 0.83150  0.93410  0.31500  Biso   1.000  O
  O88      1.0000 0.33150  0.43410  0.31500  Biso   1.000  O
  O89      1.0000 0.83150  0.06590  0.81500  Biso   1.000  O
  O90      1.0000 0.33150  0.56590  0.81500  Biso   1.000  O
  O91      1.0000 0.16850  0.06590  0.68500  Biso   1.000  O
  O92      1.0000 0.66850  0.56590  0.68500  Biso   1.000  O
  N1       1.0000 0.08220  0.10710  0.99950  Biso   1.000  N
  N2       1.0000 0.58220  0.60710  0.99950  Biso   1.000  N
  N3       1.0000 0.91780  0.10710  0.50050  Biso   1.000  N
  N4       1.0000 0.41780  0.60710  0.50050  Biso   1.000  N
  N5       1.0000 0.91780  0.89290  0.00050  Biso   1.000  N
  N6       1.0000 0.41780  0.39290  0.00050  Biso   1.000  N
  N7       1.0000 0.08220  0.89290  0.49950  Biso   1.000  N
  N8       1.0000 0.58220  0.39290  0.49950  Biso   1.000  N
  N9       1.0000 0.08670  0.89960  0.00260  Biso   1.000  N
  N10      1.0000 0.58670  0.39960  0.00260  Biso   1.000  N
  N11      1.0000 0.91330  0.89960  0.49740  Biso   1.000  N
  N12      1.0000 0.41330  0.39960  0.49740  Biso   1.000  N
  N13      1.0000 0.91330  0.10040  0.99740  Biso   1.000  N
  N14      1.0000 0.41330  0.60040  0.99740  Biso   1.000  N
  N15      1.0000 0.08670  0.10040  0.50260  Biso   1.000  N
  N16      1.0000 0.58670  0.60040  0.50260  Biso   1.000  N
  C1       1.0000 0.10280  0.11920  0.95340  Biso   1.000  C
  C2       1.0000 0.60280  0.61920  0.95340  Biso   1.000  C
  C3       1.0000 0.89720  0.11920  0.54660  Biso   1.000  C
  C4       1.0000 0.39720  0.61920  0.54660  Biso   1.000  C
  C5       1.0000 0.89720  0.88080  0.04660  Biso   1.000  C
  C6       1.0000 0.39720  0.38080  0.04660  Biso   1.000  C
  C7       1.0000 0.10280  0.88080  0.45340  Biso   1.000  C
  C8       1.0000 0.60280  0.38080  0.45340  Biso   1.000  C
  H1       1.0000 0.07310  0.08910  0.92090  Biso   1.000  H
  H2       1.0000 0.57310  0.58910  0.92090  Biso   1.000  H
  H3       1.0000 0.92690  0.08910  0.57910  Biso   1.000  H
  H4       1.0000 0.42690  0.58910  0.57910  Biso   1.000  H
  H5       1.0000 0.92690  0.91090  0.07910  Biso   1.000  H
  H6       1.0000 0.42690  0.41090  0.07910  Biso   1.000  H
  H7       1.0000 0.07310  0.91090  0.42090  Biso   1.000  H
  H8       1.0000 0.57310  0.41090  0.42090  Biso   1.000  H
  C9       1.0000 0.16790  0.17580  0.95210  Biso   1.000  C
  C10      1.0000 0.66790  0.67580  0.95210  Biso   1.000  C
  C11      1.0000 0.83210  0.17580  0.54790  Biso   1.000  C
  C12      1.0000 0.33210  0.67580  0.54790  Biso   1.000  C
  C13      1.0000 0.83210  0.82420  0.04790  Biso   1.000  C
  C14      1.0000 0.33210  0.32420  0.04790  Biso   1.000  C
  C15      1.0000 0.16790  0.82420  0.45210  Biso   1.000  C
  C16      1.0000 0.66790  0.32420  0.45210  Biso   1.000  C
  H9       1.0000 0.18060  0.18330  0.91880  Biso   1.000  H
  H10      1.0000 0.68060  0.68330  0.91880  Biso   1.000  H
  H11      1.0000 0.81940  0.18330  0.58120  Biso   1.000  H
  H12      1.0000 0.31940  0.68330  0.58120  Biso   1.000  H
  H13      1.0000 0.81940  0.81670  0.08120  Biso   1.000  H
  H14      1.0000 0.31940  0.31670  0.08120  Biso   1.000  H
  H15      1.0000 0.18060  0.81670  0.41880  Biso   1.000  H
  H16      1.0000 0.68060  0.31670  0.41880  Biso   1.000  H
  C17      1.0000 0.21410  0.22090  0.99980  Biso   1.000  C
  C18      1.0000 0.71410  0.72090  0.99980  Biso   1.000  C
  C19      1.0000 0.78590  0.22090  0.50020  Biso   1.000  C
  C20      1.0000 0.28590  0.72090  0.50020  Biso   1.000  C
  C21      1.0000 0.78590  0.77910  0.00020  Biso   1.000  C
  C22      1.0000 0.28590  0.27910  0.00020  Biso   1.000  C
  C23      1.0000 0.21410  0.77910  0.49980  Biso   1.000  C
  C24      1.0000 0.71410  0.27910  0.49980  Biso   1.000  C
  C25      1.0000 0.19020  0.20990  0.04690  Biso   1.000  C
  C26      1.0000 0.69020  0.70990  0.04690  Biso   1.000  C
  C27      1.0000 0.80980  0.20990  0.45310  Biso   1.000  C
  C28      1.0000 0.30980  0.70990  0.45310  Biso   1.000  C
  C29      1.0000 0.80980  0.79010  0.95310  Biso   1.000  C
  C30      1.0000 0.30980  0.29010  0.95310  Biso   1.000  C
  C31      1.0000 0.19020  0.79010  0.54690  Biso   1.000  C
  C32      1.0000 0.69020  0.29010  0.54690  Biso   1.000  C
  H17      1.0000 0.21750  0.24110  0.07970  Biso   1.000  H
  H18      1.0000 0.71750  0.74110  0.07970  Biso   1.000  H
  H19      1.0000 0.78250  0.24110  0.42030  Biso   1.000  H
  H20      1.0000 0.28250  0.74110  0.42030  Biso   1.000  H
  H21      1.0000 0.78250  0.75890  0.92030  Biso   1.000  H
  H22      1.0000 0.28250  0.25890  0.92030  Biso   1.000  H
  H23      1.0000 0.21750  0.75890  0.57970  Biso   1.000  H
  H24      1.0000 0.71750  0.25890  0.57970  Biso   1.000  H
  C33      1.0000 0.12560  0.15260  0.04540  Biso   1.000  C
  C34      1.0000 0.62560  0.65260  0.04540  Biso   1.000  C
  C35      1.0000 0.87440  0.15260  0.45460  Biso   1.000  C
  C36      1.0000 0.37440  0.65260  0.45460  Biso   1.000  C
  C37      1.0000 0.87440  0.84740  0.95460  Biso   1.000  C
  C38      1.0000 0.37440  0.34740  0.95460  Biso   1.000  C
  C39      1.0000 0.12560  0.84740  0.54540  Biso   1.000  C
  C40      1.0000 0.62560  0.34740  0.54540  Biso   1.000  C
  H25      1.0000 0.11130  0.14500  0.07800  Biso   1.000  H
  H26      1.0000 0.61130  0.64500  0.07800  Biso   1.000  H
  H27      1.0000 0.88870  0.14500  0.42200  Biso   1.000  H
  H28      1.0000 0.38870  0.64500  0.42200  Biso   1.000  H
  H29      1.0000 0.88870  0.85500  0.92200  Biso   1.000  H
  H30      1.0000 0.38870  0.35500  0.92200  Biso   1.000  H
  H31      1.0000 0.11130  0.85500  0.57800  Biso   1.000  H
  H32      1.0000 0.61130  0.35500  0.57800  Biso   1.000  H
  C41      1.0000 0.15320  0.89490  0.04650  Biso   1.000  C
  C42      1.0000 0.65320  0.39490  0.04650  Biso   1.000  C
  C43      1.0000 0.84680  0.89490  0.45350  Biso   1.000  C
  C44      1.0000 0.34680  0.39490  0.45350  Biso   1.000  C
  C45      1.0000 0.84680  0.10510  0.95350  Biso   1.000  C
  C46      1.0000 0.34680  0.60510  0.95350  Biso   1.000  C
  C47      1.0000 0.15320  0.10510  0.54650  Biso   1.000  C
  C48      1.0000 0.65320  0.60510  0.54650  Biso   1.000  C
  H33      1.0000 0.15540  0.93280  0.07770  Biso   1.000  H
  H34      1.0000 0.65540  0.43280  0.07770  Biso   1.000  H
  H35      1.0000 0.84460  0.93280  0.42230  Biso   1.000  H
  H36      1.0000 0.34460  0.43280  0.42230  Biso   1.000  H
  H37      1.0000 0.84460  0.06720  0.92230  Biso   1.000  H
  H38      1.0000 0.34460  0.56720  0.92230  Biso   1.000  H
  H39      1.0000 0.15540  0.06720  0.57770  Biso   1.000  H
  H40      1.0000 0.65540  0.56720  0.57770  Biso   1.000  H
  C49      1.0000 0.21700  0.83710  0.04690  Biso   1.000  C
  C50      1.0000 0.71700  0.33710  0.04690  Biso   1.000  C
  C51      1.0000 0.78300  0.83710  0.45310  Biso   1.000  C
  C52      1.0000 0.28300  0.33710  0.45310  Biso   1.000  C
  C53      1.0000 0.78300  0.16290  0.95310  Biso   1.000  C
  C54      1.0000 0.28300  0.66290  0.95310  Biso   1.000  C
  C55      1.0000 0.21700  0.16290  0.54690  Biso   1.000  C
  C56      1.0000 0.71700  0.66290  0.54690  Biso   1.000  C
  H41      1.0000 0.26110  0.83600  0.07790  Biso   1.000  H
  H42      1.0000 0.76110  0.33600  0.07790  Biso   1.000  H
  H43      1.0000 0.73890  0.83600  0.42210  Biso   1.000  H
  H44      1.0000 0.23890  0.33600  0.42210  Biso   1.000  H
  H45      1.0000 0.73890  0.16400  0.92210  Biso   1.000  H
  H46      1.0000 0.23890  0.66400  0.92210  Biso   1.000  H
  H47      1.0000 0.26110  0.16400  0.57790  Biso   1.000  H
  H48      1.0000 0.76110  0.66400  0.57790  Biso   1.000  H
  C57      1.0000 0.21550  0.78060  0.00090  Biso   1.000  C
  C58      1.0000 0.71550  0.28060  0.00090  Biso   1.000  C
  C59      1.0000 0.78450  0.78060  0.49910  Biso   1.000  C
  C60      1.0000 0.28450  0.28060  0.49910  Biso   1.000  C
  C61      1.0000 0.78450  0.21940  0.99910  Biso   1.000  C
  C62      1.0000 0.28450  0.71940  0.99910  Biso   1.000  C
  C63      1.0000 0.21550  0.21940  0.50090  Biso   1.000  C
  C64      1.0000 0.71550  0.71940  0.50090  Biso   1.000  C
  C65      1.0000 0.14590  0.78410  0.95640  Biso   1.000  C
  C66      1.0000 0.64590  0.28410  0.95640  Biso   1.000  C
  C67      1.0000 0.85410  0.78410  0.54360  Biso   1.000  C
  C68      1.0000 0.35410  0.28410  0.54360  Biso   1.000  C
  C69      1.0000 0.85410  0.21590  0.04360  Biso   1.000  C
  C70      1.0000 0.35410  0.71590  0.04360  Biso   1.000  C
  C71      1.0000 0.14590  0.21590  0.45640  Biso   1.000  C
  C72      1.0000 0.64590  0.71590  0.45640  Biso   1.000  C
  H49      1.0000 0.14160  0.74570  0.92510  Biso   1.000  H
  H50      1.0000 0.64160  0.24570  0.92510  Biso   1.000  H
  H51      1.0000 0.85840  0.74570  0.57490  Biso   1.000  H
  H52      1.0000 0.35840  0.24570  0.57490  Biso   1.000  H
  H53      1.0000 0.85840  0.25430  0.07490  Biso   1.000  H
  H54      1.0000 0.35840  0.75430  0.07490  Biso   1.000  H
  H55      1.0000 0.14160  0.25430  0.42510  Biso   1.000  H
  H56      1.0000 0.64160  0.75430  0.42510  Biso   1.000  H
  C73      1.0000 0.08450  0.84340  0.95850  Biso   1.000  C
  C74      1.0000 0.58450  0.34340  0.95850  Biso   1.000  C
  C75      1.0000 0.91550  0.84340  0.54150  Biso   1.000  C
  C76      1.0000 0.41550  0.34340  0.54150  Biso   1.000  C
  C77      1.0000 0.91550  0.15660  0.04150  Biso   1.000  C
  C78      1.0000 0.41550  0.65660  0.04150  Biso   1.000  C
  C79      1.0000 0.08450  0.15660  0.45850  Biso   1.000  C
  C80      1.0000 0.58450  0.65660  0.45850  Biso   1.000  C
  H57      1.0000 0.03950  0.84470  0.92820  Biso   1.000  H
  H58      1.0000 0.53950  0.34470  0.92820  Biso   1.000  H
  H59      1.0000 0.96050  0.84470  0.57180  Biso   1.000  H
  H60      1.0000 0.46050  0.34470  0.57180  Biso   1.000  H
  H61      1.0000 0.96050  0.15530  0.07180  Biso   1.000  H
  H62      1.0000 0.46050  0.65530  0.07180  Biso   1.000  H
  H63      1.0000 0.03950  0.15530  0.42820  Biso   1.000  H
  H64      1.0000 0.53950  0.65530  0.42820  Biso   1.000  H
  N17      1.0000 0.71850  0.87050  0.73380  Biso   1.000  N
  N18      1.0000 0.21850  0.37050  0.73380  Biso   1.000  N
  N19      1.0000 0.28150  0.87050  0.76620  Biso   1.000  N
  N20      1.0000 0.78150  0.37050  0.76620  Biso   1.000  N
  N21      1.0000 0.28150  0.12950  0.26620  Biso   1.000  N
  N22      1.0000 0.78150  0.62950  0.26620  Biso   1.000  N
  N23      1.0000 0.71850  0.12950  0.23380  Biso   1.000  N
  N24      1.0000 0.21850  0.62950  0.23380  Biso   1.000  N
  C81      1.0000 0.69250  0.79950  0.69730  Biso   1.000  C
  C82      1.0000 0.19250  0.29950  0.69730  Biso   1.000  C
  C83      1.0000 0.30750  0.79950  0.80270  Biso   1.000  C
  C84      1.0000 0.80750  0.29950  0.80270  Biso   1.000  C
  C85      1.0000 0.30750  0.20050  0.30270  Biso   1.000  C
  C86      1.0000 0.80750  0.70050  0.30270  Biso   1.000  C
  C87      1.0000 0.69250  0.20050  0.19730  Biso   1.000  C
  C88      1.0000 0.19250  0.70050  0.19730  Biso   1.000  C
  H65      1.0000 0.72260  0.74250  0.70240  Biso   1.000  H
  H66      1.0000 0.22260  0.24250  0.70240  Biso   1.000  H
  H67      1.0000 0.27740  0.74250  0.79760  Biso   1.000  H
  H68      1.0000 0.77740  0.24250  0.79760  Biso   1.000  H
  H69      1.0000 0.27740  0.25750  0.29760  Biso   1.000  H
  H70      1.0000 0.77740  0.75750  0.29760  Biso   1.000  H
  H71      1.0000 0.72260  0.25750  0.20240  Biso   1.000  H
  H72      1.0000 0.22260  0.75750  0.20240  Biso   1.000  H
  C89      1.0000 0.62800  0.80110  0.65410  Biso   1.000  C
  C90      1.0000 0.12800  0.30110  0.65410  Biso   1.000  C
  C91      1.0000 0.37200  0.80110  0.84590  Biso   1.000  C
  C92      1.0000 0.87200  0.30110  0.84590  Biso   1.000  C
  C93      1.0000 0.37200  0.19890  0.34590  Biso   1.000  C
  C94      1.0000 0.87200  0.69890  0.34590  Biso   1.000  C
  C95      1.0000 0.62800  0.19890  0.15410  Biso   1.000  C
  C96      1.0000 0.12800  0.69890  0.15410  Biso   1.000  C
  H73      1.0000 0.61540  0.74910  0.62930  Biso   1.000  H
  H74      1.0000 0.11540  0.24910  0.62930  Biso   1.000  H
  H75      1.0000 0.38460  0.74910  0.87070  Biso   1.000  H
  H76      1.0000 0.88460  0.24910  0.87070  Biso   1.000  H
  H77      1.0000 0.38460  0.25090  0.37070  Biso   1.000  H
  H78      1.0000 0.88460  0.75090  0.37070  Biso   1.000  H
  H79      1.0000 0.61540  0.25090  0.12930  Biso   1.000  H
  H80      1.0000 0.11540  0.75090  0.12930  Biso   1.000  H
  C97      1.0000 0.57940  0.88440  0.64740  Biso   1.000  C
  C98      1.0000 0.07940  0.38440  0.64740  Biso   1.000  C
  C99      1.0000 0.42060  0.88440  0.85260  Biso   1.000  C
  C100     1.0000 0.92060  0.38440  0.85260  Biso   1.000  C
  C101     1.0000 0.42060  0.11560  0.35260  Biso   1.000  C
  C102     1.0000 0.92060  0.61560  0.35260  Biso   1.000  C
  C103     1.0000 0.57940  0.11560  0.14740  Biso   1.000  C
  C104     1.0000 0.07940  0.61560  0.14740  Biso   1.000  C
  C105     1.0000 0.60460  0.96260  0.68730  Biso   1.000  C
  C106     1.0000 0.10460  0.46260  0.68730  Biso   1.000  C
  C107     1.0000 0.39540  0.96260  0.81270  Biso   1.000  C
  C108     1.0000 0.89540  0.46260  0.81270  Biso   1.000  C
  C109     1.0000 0.39540  0.03740  0.31270  Biso   1.000  C
  C110     1.0000 0.89540  0.53740  0.31270  Biso   1.000  C
  C111     1.0000 0.60460  0.03740  0.18730  Biso   1.000  C
  C112     1.0000 0.10460  0.53740  0.18730  Biso   1.000  C
  H81      1.0000 0.57500  0.01960  0.68480  Biso   1.000  H
  H82      1.0000 0.07500  0.51960  0.68480  Biso   1.000  H
  H83      1.0000 0.42500  0.01960  0.81520  Biso   1.000  H
  H84      1.0000 0.92500  0.51960  0.81520  Biso   1.000  H
  H85      1.0000 0.42500  0.98040  0.31520  Biso   1.000  H
  H86      1.0000 0.92500  0.48040  0.31520  Biso   1.000  H
  H87      1.0000 0.57500  0.98040  0.18480  Biso   1.000  H
  H88      1.0000 0.07500  0.48040  0.18480  Biso   1.000  H
  C113     1.0000 0.67490  0.94940  0.72980  Biso   1.000  C
  C114     1.0000 0.17490  0.44940  0.72980  Biso   1.000  C
  C115     1.0000 0.32510  0.94940  0.77020  Biso   1.000  C
  C116     1.0000 0.82510  0.44940  0.77020  Biso   1.000  C
  C117     1.0000 0.32510  0.05060  0.27020  Biso   1.000  C
  C118     1.0000 0.82510  0.55060  0.27020  Biso   1.000  C
  C119     1.0000 0.67490  0.05060  0.22980  Biso   1.000  C
  C120     1.0000 0.17490  0.55060  0.22980  Biso   1.000  C
  H89      1.0000 0.69140  0.99830  0.75630  Biso   1.000  H
  H90      1.0000 0.19140  0.49830  0.75630  Biso   1.000  H
  H91      1.0000 0.30860  0.99830  0.74370  Biso   1.000  H
  H92      1.0000 0.80860  0.49830  0.74370  Biso   1.000  H
  H93      1.0000 0.30860  0.00170  0.24370  Biso   1.000  H
  H94      1.0000 0.80860  0.50170  0.24370  Biso   1.000  H
  H95      1.0000 0.69140  0.00170  0.25630  Biso   1.000  H
  H96      1.0000 0.19140  0.50170  0.25630  Biso   1.000  H
  N25      1.0000 0.38510  0.93350  0.50030  Biso   1.000  N
  N26      1.0000 0.88510  0.43350  0.50030  Biso   1.000  N
  N27      1.0000 0.61490  0.93350  0.99970  Biso   1.000  N
  N28      1.0000 0.11490  0.43350  0.99970  Biso   1.000  N
  N29      1.0000 0.61490  0.06650  0.49970  Biso   1.000  N
  N30      1.0000 0.11490  0.56650  0.49970  Biso   1.000  N
  N31      1.0000 0.38510  0.06650  0.00030  Biso   1.000  N
  N32      1.0000 0.88510  0.56650  0.00030  Biso   1.000  N
  C121     1.0000 0.44940  0.88700  0.49920  Biso   1.000  C
  C122     1.0000 0.94940  0.38700  0.49920  Biso   1.000  C
  C123     1.0000 0.55060  0.88700  0.00080  Biso   1.000  C
  C124     1.0000 0.05060  0.38700  0.00080  Biso   1.000  C
  C125     1.0000 0.55060  0.11300  0.50080  Biso   1.000  C
  C126     1.0000 0.05060  0.61300  0.50080  Biso   1.000  C
  C127     1.0000 0.44940  0.11300  0.99920  Biso   1.000  C
  C128     1.0000 0.94940  0.61300  0.99920  Biso   1.000  C
  H97      1.0000 0.45260  0.86550  0.46470  Biso   1.000  H
  H98      1.0000 0.95260  0.36550  0.46470  Biso   1.000  H
  H99      1.0000 0.54740  0.86550  0.03530  Biso   1.000  H
  H100     1.0000 0.04740  0.36550  0.03530  Biso   1.000  H
  H101     1.0000 0.54740  0.13450  0.53530  Biso   1.000  H
  H102     1.0000 0.04740  0.63450  0.53530  Biso   1.000  H
  H103     1.0000 0.45260  0.13450  0.96470  Biso   1.000  H
  H104     1.0000 0.95260  0.63450  0.96470  Biso   1.000  H
  C129     1.0000 0.51400  0.86700  0.54530  Biso   1.000  C
  C130     1.0000 0.01400  0.36700  0.54530  Biso   1.000  C
  C131     1.0000 0.48600  0.86700  0.95470  Biso   1.000  C
  C132     1.0000 0.98600  0.36700  0.95470  Biso   1.000  C
  C133     1.0000 0.48600  0.13300  0.45470  Biso   1.000  C
  C134     1.0000 0.98600  0.63300  0.45470  Biso   1.000  C
  C135     1.0000 0.51400  0.13300  0.04530  Biso   1.000  C
  C136     1.0000 0.01400  0.63300  0.04530  Biso   1.000  C
  H105     1.0000 0.55770  0.83270  0.54160  Biso   1.000  H
  H106     1.0000 0.05770  0.33270  0.54160  Biso   1.000  H
  H107     1.0000 0.44230  0.83270  0.95840  Biso   1.000  H
  H108     1.0000 0.94230  0.33270  0.95840  Biso   1.000  H
  H109     1.0000 0.44230  0.16730  0.45840  Biso   1.000  H
  H110     1.0000 0.94230  0.66730  0.45840  Biso   1.000  H
  H111     1.0000 0.55770  0.16730  0.04160  Biso   1.000  H
  H112     1.0000 0.05770  0.66730  0.04160  Biso   1.000  H
  C137     1.0000 0.51060  0.89970  0.59620  Biso   1.000  C
  C138     1.0000 0.01060  0.39970  0.59620  Biso   1.000  C
  C139     1.0000 0.48940  0.89970  0.90380  Biso   1.000  C
  C140     1.0000 0.98940  0.39970  0.90380  Biso   1.000  C
  C141     1.0000 0.48940  0.10030  0.40380  Biso   1.000  C
  C142     1.0000 0.98940  0.60030  0.40380  Biso   1.000  C
  C143     1.0000 0.51060  0.10030  0.09620  Biso   1.000  C
  C144     1.0000 0.01060  0.60030  0.09620  Biso   1.000  C
  C145     1.0000 0.44200  0.94340  0.59850  Biso   1.000  C
  C146     1.0000 0.94200  0.44340  0.59850  Biso   1.000  C
  C147     1.0000 0.55800  0.94340  0.90150  Biso   1.000  C
  C148     1.0000 0.05800  0.44340  0.90150  Biso   1.000  C
  C149     1.0000 0.55800  0.05660  0.40150  Biso   1.000  C
  C150     1.0000 0.05800  0.55660  0.40150  Biso   1.000  C
  C151     1.0000 0.44200  0.05660  0.09850  Biso   1.000  C
  C152     1.0000 0.94200  0.55660  0.09850  Biso   1.000  C
  H113     1.0000 0.43530  0.96240  0.63240  Biso   1.000  H
  H114     1.0000 0.93530  0.46240  0.63240  Biso   1.000  H
  H115     1.0000 0.56470  0.96240  0.86760  Biso   1.000  H
  H116     1.0000 0.06470  0.46240  0.86760  Biso   1.000  H
  H117     1.0000 0.56470  0.03760  0.36760  Biso   1.000  H
  H118     1.0000 0.06470  0.53760  0.36760  Biso   1.000  H
  H119     1.0000 0.43530  0.03760  0.13240  Biso   1.000  H
  H120     1.0000 0.93530  0.53760  0.13240  Biso   1.000  H
  C153     1.0000 0.38250  0.95900  0.54970  Biso   1.000  C
  C154     1.0000 0.88250  0.45900  0.54970  Biso   1.000  C
  C155     1.0000 0.61750  0.95900  0.95030  Biso   1.000  C
  C156     1.0000 0.11750  0.45900  0.95030  Biso   1.000  C
  C157     1.0000 0.61750  0.04100  0.45030  Biso   1.000  C
  C158     1.0000 0.11750  0.54100  0.45030  Biso   1.000  C
  C159     1.0000 0.38250  0.04100  0.04970  Biso   1.000  C
  C160     1.0000 0.88250  0.54100  0.04970  Biso   1.000  C
  H121     1.0000 0.33690  0.99030  0.55240  Biso   1.000  H
  H122     1.0000 0.83690  0.49030  0.55240  Biso   1.000  H
  H123     1.0000 0.66310  0.99030  0.94760  Biso   1.000  H
  H124     1.0000 0.16310  0.49030  0.94760  Biso   1.000  H
  H125     1.0000 0.66310  0.00970  0.44760  Biso   1.000  H
  H126     1.0000 0.16310  0.50970  0.44760  Biso   1.000  H
  H127     1.0000 0.33690  0.00970  0.05240  Biso   1.000  H
  H128     1.0000 0.83690  0.50970  0.05240  Biso   1.000  H
  C161     1.0000 0.59930  0.81840  0.66760  Biso   1.000  C
  C162     1.0000 0.09930  0.31840  0.66760  Biso   1.000  C
  C163     1.0000 0.40070  0.81840  0.83240  Biso   1.000  C
  C164     1.0000 0.90070  0.31840  0.83240  Biso   1.000  C
  C165     1.0000 0.40070  0.18160  0.33240  Biso   1.000  C
  C166     1.0000 0.90070  0.68160  0.33240  Biso   1.000  C
  C167     1.0000 0.59930  0.18160  0.16760  Biso   1.000  C
  C168     1.0000 0.09930  0.68160  0.16760  Biso   1.000  C
  C169     1.0000 0.56260  0.89780  0.69130  Biso   1.000  C
  C170     1.0000 0.06260  0.39780  0.69130  Biso   1.000  C
  C171     1.0000 0.43740  0.89780  0.80870  Biso   1.000  C
  C172     1.0000 0.93740  0.39780  0.80870  Biso   1.000  C
  C173     1.0000 0.43740  0.10220  0.30870  Biso   1.000  C
  C174     1.0000 0.93740  0.60220  0.30870  Biso   1.000  C
  C175     1.0000 0.56260  0.10220  0.19130  Biso   1.000  C
  C176     1.0000 0.06260  0.60220  0.19130  Biso   1.000  C
  C177     1.0000 0.61000  0.94600  0.73550  Biso   1.000  C
  C178     1.0000 0.11000  0.44600  0.73550  Biso   1.000  C
  C179     1.0000 0.39000  0.94600  0.76450  Biso   1.000  C
  C180     1.0000 0.89000  0.44600  0.76450  Biso   1.000  C
  C181     1.0000 0.39000  0.05400  0.26450  Biso   1.000  C
  C182     1.0000 0.89000  0.55400  0.26450  Biso   1.000  C
  C183     1.0000 0.61000  0.05400  0.23550  Biso   1.000  C
  C184     1.0000 0.11000  0.55400  0.23550  Biso   1.000  C
  H129     1.0000 0.58820  0.00400  0.74400  Biso   1.000  H
  H130     1.0000 0.08820  0.50400  0.74400  Biso   1.000  H
  H131     1.0000 0.41180  0.00400  0.75600  Biso   1.000  H
  H132     1.0000 0.91180  0.50400  0.75600  Biso   1.000  H
  H133     1.0000 0.41180  0.99600  0.25600  Biso   1.000  H
  H134     1.0000 0.91180  0.49600  0.25600  Biso   1.000  H
  H135     1.0000 0.58820  0.99600  0.24400  Biso   1.000  H
  H136     1.0000 0.08820  0.49600  0.24400  Biso   1.000  H
  C185     1.0000 0.68600  0.92600  0.77100  Biso   1.000  C
  C186     1.0000 0.18600  0.42600  0.77100  Biso   1.000  C
  C187     1.0000 0.31400  0.92600  0.72900  Biso   1.000  C
  C188     1.0000 0.81400  0.42600  0.72900  Biso   1.000  C
  C189     1.0000 0.31400  0.07400  0.22900  Biso   1.000  C
  C190     1.0000 0.81400  0.57400  0.22900  Biso   1.000  C
  C191     1.0000 0.68600  0.07400  0.27100  Biso   1.000  C
  C192     1.0000 0.18600  0.57400  0.27100  Biso   1.000  C
  N33      1.0000 0.32500  0.99800  0.62380  Biso   1.000  N
  N34      1.0000 0.82500  0.49800  0.62380  Biso   1.000  N
  N35      1.0000 0.67500  0.99800  0.87620  Biso   1.000  N
  N36      1.0000 0.17500  0.49800  0.87620  Biso   1.000  N
  N37      1.0000 0.67500  0.00200  0.37620  Biso   1.000  N
  N38      1.0000 0.17500  0.50200  0.37620  Biso   1.000  N
  N39      1.0000 0.32500  0.00200  0.12380  Biso   1.000  N
  N40      1.0000 0.82500  0.50200  0.12380  Biso   1.000  N
  H137     1.0000 0.27990  0.02040  0.60430  Biso   1.000  H
  H138     1.0000 0.77990  0.52040  0.60430  Biso   1.000  H
  H139     1.0000 0.72010  0.02040  0.89570  Biso   1.000  H
  H140     1.0000 0.22010  0.52040  0.89570  Biso   1.000  H
  H141     1.0000 0.72010  0.97960  0.39570  Biso   1.000  H
  H142     1.0000 0.22010  0.47960  0.39570  Biso   1.000  H
  H143     1.0000 0.27990  0.97960  0.10430  Biso   1.000  H
  H144     1.0000 0.77990  0.47960  0.10430  Biso   1.000  H
  C193     1.0000 0.34200  0.90900  0.62040  Biso   1.000  C
  C194     1.0000 0.84200  0.40900  0.62040  Biso   1.000  C
  C195     1.0000 0.65800  0.90900  0.87960  Biso   1.000  C
  C196     1.0000 0.15800  0.40900  0.87960  Biso   1.000  C
  C197     1.0000 0.65800  0.09100  0.37960  Biso   1.000  C
  C198     1.0000 0.15800  0.59100  0.37960  Biso   1.000  C
  C199     1.0000 0.34200  0.09100  0.12040  Biso   1.000  C
  C200     1.0000 0.84200  0.59100  0.12040  Biso   1.000  C
  H145     1.0000 0.30120  0.86620  0.60370  Biso   1.000  H
  H146     1.0000 0.80120  0.36620  0.60370  Biso   1.000  H
  H147     1.0000 0.69880  0.86620  0.89630  Biso   1.000  H
  H148     1.0000 0.19880  0.36620  0.89630  Biso   1.000  H
  H149     1.0000 0.69880  0.13380  0.39630  Biso   1.000  H
  H150     1.0000 0.19880  0.63380  0.39630  Biso   1.000  H
  H151     1.0000 0.30120  0.13380  0.10370  Biso   1.000  H
  H152     1.0000 0.80120  0.63380  0.10370  Biso   1.000  H
  C201     1.0000 0.42090  0.86800  0.64030  Biso   1.000  C
  C202     1.0000 0.92090  0.36800  0.64030  Biso   1.000  C
  C203     1.0000 0.57910  0.86800  0.85970  Biso   1.000  C
  C204     1.0000 0.07910  0.36800  0.85970  Biso   1.000  C
  C205     1.0000 0.57910  0.13200  0.35970  Biso   1.000  C
  C206     1.0000 0.07910  0.63200  0.35970  Biso   1.000  C
  C207     1.0000 0.42090  0.13200  0.14030  Biso   1.000  C
  C208     1.0000 0.92090  0.63200  0.14030  Biso   1.000  C
  C209     1.0000 0.47740  0.92790  0.66740  Biso   1.000  C
  C210     1.0000 0.97740  0.42790  0.66740  Biso   1.000  C
  C211     1.0000 0.52260  0.92790  0.83260  Biso   1.000  C
  C212     1.0000 0.02260  0.42790  0.83260  Biso   1.000  C
  C213     1.0000 0.52260  0.07210  0.33260  Biso   1.000  C
  C214     1.0000 0.02260  0.57210  0.33260  Biso   1.000  C
  C215     1.0000 0.47740  0.07210  0.16740  Biso   1.000  C
  C216     1.0000 0.97740  0.57210  0.16740  Biso   1.000  C
  C217     1.0000 0.45580  0.02060  0.68250  Biso   1.000  C
  C218     1.0000 0.95580  0.52060  0.68250  Biso   1.000  C
  C219     1.0000 0.54420  0.02060  0.81750  Biso   1.000  C
  C220     1.0000 0.04420  0.52060  0.81750  Biso   1.000  C
  C221     1.0000 0.54420  0.97940  0.31750  Biso   1.000  C
  C222     1.0000 0.04420  0.47940  0.31750  Biso   1.000  C
  C223     1.0000 0.45580  0.97940  0.18250  Biso   1.000  C
  C224     1.0000 0.95580  0.47940  0.18250  Biso   1.000  C
  H153     1.0000 0.49290  0.05710  0.70880  Biso   1.000  H
  H154     1.0000 0.99290  0.55710  0.70880  Biso   1.000  H
  H155     1.0000 0.50710  0.05710  0.79120  Biso   1.000  H
  H156     1.0000 0.00710  0.55710  0.79120  Biso   1.000  H
  H157     1.0000 0.50710  0.94290  0.29120  Biso   1.000  H
  H158     1.0000 0.00710  0.44290  0.29120  Biso   1.000  H
  H159     1.0000 0.49290  0.94290  0.20880  Biso   1.000  H
  H160     1.0000 0.99290  0.44290  0.20880  Biso   1.000  H
  C225     1.0000 0.37900  0.06000  0.65880  Biso   1.000  C
  C226     1.0000 0.87900  0.56000  0.65880  Biso   1.000  C
  C227     1.0000 0.62100  0.06000  0.84120  Biso   1.000  C
  C228     1.0000 0.12100  0.56000  0.84120  Biso   1.000  C
  C229     1.0000 0.62100  0.94000  0.34120  Biso   1.000  C
  C230     1.0000 0.12100  0.44000  0.34120  Biso   1.000  C
  C231     1.0000 0.37900  0.94000  0.15880  Biso   1.000  C
  C232     1.0000 0.87900  0.44000  0.15880  Biso   1.000  C
  C233     1.0000 0.36220  0.95240  0.39490  Biso   1.000  C
  C234     1.0000 0.86220  0.45240  0.39490  Biso   1.000  C
  C235     1.0000 0.63780  0.95240  0.10510  Biso   1.000  C
  C236     1.0000 0.13780  0.45240  0.10510  Biso   1.000  C
  C237     1.0000 0.63780  0.04760  0.60510  Biso   1.000  C
  C238     1.0000 0.13780  0.54760  0.60510  Biso   1.000  C
  C239     1.0000 0.36220  0.04760  0.89490  Biso   1.000  C
  C240     1.0000 0.86220  0.54760  0.89490  Biso   1.000  C
  C241     1.0000 0.43910  0.94760  0.43170  Biso   1.000  C
  C242     1.0000 0.93910  0.44760  0.43170  Biso   1.000  C
  C243     1.0000 0.56090  0.94760  0.06830  Biso   1.000  C
  C244     1.0000 0.06090  0.44760  0.06830  Biso   1.000  C
  C245     1.0000 0.56090  0.05240  0.56830  Biso   1.000  C
  C246     1.0000 0.06090  0.55240  0.56830  Biso   1.000  C
  C247     1.0000 0.43910  0.05240  0.93170  Biso   1.000  C
  C248     1.0000 0.93910  0.55240  0.93170  Biso   1.000  C
  H161     1.0000 0.47690  0.90860  0.42270  Biso   1.000  H
  H162     1.0000 0.97690  0.40860  0.42270  Biso   1.000  H
  H163     1.0000 0.52310  0.90860  0.07730  Biso   1.000  H
  H164     1.0000 0.02310  0.40860  0.07730  Biso   1.000  H
  H165     1.0000 0.52310  0.09140  0.57730  Biso   1.000  H
  H166     1.0000 0.02310  0.59140  0.57730  Biso   1.000  H
  H167     1.0000 0.47690  0.09140  0.92270  Biso   1.000  H
  H168     1.0000 0.97690  0.59140  0.92270  Biso   1.000  H
  C249     1.0000 0.45910  0.99800  0.47970  Biso   1.000  C
  C250     1.0000 0.95910  0.49800  0.47970  Biso   1.000  C
  C251     1.0000 0.54090  0.99800  0.02030  Biso   1.000  C
  C252     1.0000 0.04090  0.49800  0.02030  Biso   1.000  C
  C253     1.0000 0.54090  0.00200  0.52030  Biso   1.000  C
  C254     1.0000 0.04090  0.50200  0.52030  Biso   1.000  C
  C255     1.0000 0.45910  0.00200  0.97970  Biso   1.000  C
  C256     1.0000 0.95910  0.50200  0.97970  Biso   1.000  C
  C257     1.0000 0.39200  0.03100  0.49650  Biso   1.000  C
  C258     1.0000 0.89200  0.53100  0.49650  Biso   1.000  C
  C259     1.0000 0.60800  0.03100  0.00350  Biso   1.000  C
  C260     1.0000 0.10800  0.53100  0.00350  Biso   1.000  C
  C261     1.0000 0.60800  0.96900  0.50350  Biso   1.000  C
  C262     1.0000 0.10800  0.46900  0.50350  Biso   1.000  C
  C263     1.0000 0.39200  0.96900  0.99650  Biso   1.000  C
  C264     1.0000 0.89200  0.46900  0.99650  Biso   1.000  C
  C265     1.0000 0.32000  0.04000  0.45320  Biso   1.000  C
  C266     1.0000 0.82000  0.54000  0.45320  Biso   1.000  C
  C267     1.0000 0.68000  0.04000  0.04680  Biso   1.000  C
  C268     1.0000 0.18000  0.54000  0.04680  Biso   1.000  C
  C269     1.0000 0.68000  0.96000  0.54680  Biso   1.000  C
  C270     1.0000 0.18000  0.46000  0.54680  Biso   1.000  C
  C271     1.0000 0.32000  0.96000  0.95320  Biso   1.000  C
  C272     1.0000 0.82000  0.46000  0.95320  Biso   1.000  C
  O93      1.0000 0.26050  0.32030  0.17090  Biso   1.000  O
  O94      1.0000 0.76050  0.82030  0.17090  Biso   1.000  O
  O95      1.0000 0.73950  0.32030  0.32910  Biso   1.000  O
  O96      1.0000 0.23950  0.82030  0.32910  Biso   1.000  O
  O97      1.0000 0.73950  0.67970  0.82910  Biso   1.000  O
  O98      1.0000 0.23950  0.17970  0.82910  Biso   1.000  O
  O99      1.0000 0.26050  0.67970  0.67090  Biso   1.000  O
  O100     1.0000 0.76050  0.17970  0.67090  Biso   1.000  O
  H169     1.0000 0.27600  0.30830  0.20660  Biso   1.000  H
  H170     1.0000 0.77600  0.80830  0.20660  Biso   1.000  H
  H171     1.0000 0.72400  0.30830  0.29340  Biso   1.000  H
  H172     1.0000 0.22400  0.80830  0.29340  Biso   1.000  H
  H173     1.0000 0.72400  0.69170  0.79340  Biso   1.000  H
  H174     1.0000 0.22400  0.19170  0.79340  Biso   1.000  H
  H175     1.0000 0.27600  0.69170  0.70660  Biso   1.000  H
  H176     1.0000 0.77600  0.19170  0.70660  Biso   1.000  H
  H177     1.0000 0.29800  0.35350  0.19340  Biso   1.000  H
  H178     1.0000 0.79800  0.85350  0.19340  Biso   1.000  H
  H179     1.0000 0.70200  0.35350  0.30660  Biso   1.000  H
  H180     1.0000 0.20200  0.85350  0.30660  Biso   1.000  H
  H181     1.0000 0.70200  0.64650  0.80660  Biso   1.000  H
  H182     1.0000 0.20200  0.14650  0.80660  Biso   1.000  H
  H183     1.0000 0.29800  0.64650  0.69340  Biso   1.000  H
  H184     1.0000 0.79800  0.14650  0.69340  Biso   1.000  H
  O101     1.0000 0.36730  0.11800  0.66100  Biso   1.000  O
  O102     1.0000 0.86730  0.61800  0.66100  Biso   1.000  O
  O103     1.0000 0.63270  0.11800  0.83900  Biso   1.000  O
  O104     1.0000 0.13270  0.61800  0.83900  Biso   1.000  O
  O105     1.0000 0.63270  0.88200  0.33900  Biso   1.000  O
  O106     1.0000 0.13270  0.38200  0.33900  Biso   1.000  O
  O107     1.0000 0.36730  0.88200  0.16100  Biso   1.000  O
  O108     1.0000 0.86730  0.38200  0.16100  Biso   1.000  O
  O109     1.0000 0.29000  0.99300  0.39710  Biso   1.000  O
  O110     1.0000 0.79000  0.49300  0.39710  Biso   1.000  O
  O111     1.0000 0.71000  0.99300  0.10290  Biso   1.000  O
  O112     1.0000 0.21000  0.49300  0.10290  Biso   1.000  O
  O113     1.0000 0.71000  0.00700  0.60290  Biso   1.000  O
  O114     1.0000 0.21000  0.50700  0.60290  Biso   1.000  O
  O115     1.0000 0.29000  0.00700  0.89710  Biso   1.000  O
  O116     1.0000 0.79000  0.50700  0.89710  Biso   1.000  O
