data_image0
_cell_length_a       14.9245
_cell_length_b       9.5062
_cell_length_c       9.7578
_cell_angle_alpha    90
_cell_angle_beta     90
_cell_angle_gamma    90

_symmetry_space_group_name_H-M    "P 1"
_symmetry_int_tables_number       1

loop_
  _symmetry_equiv_pos_as_xyz
  'x, y, z'

loop_
  _atom_site_label
  _atom_site_occupancy
  _atom_site_fract_x
  _atom_site_fract_y
  _atom_site_fract_z
  _atom_site_thermal_displace_type
  _atom_site_B_iso_or_equiv
  _atom_site_type_symbol
  Cu1      1.0000 0.76650  0.82012  0.85834  Biso   1.000  Cu
  Cu2      1.0000 0.23350  0.17988  0.35834  Biso   1.000  Cu
  Cu3      1.0000 0.26650  0.67988  0.85834  Biso   1.000  Cu
  Cu4      1.0000 0.73350  0.32012  0.35834  Biso   1.000  Cu
  Cl1      1.0000 0.88539  0.71301  0.75745  Biso   1.000  Cl
  Cl2      1.0000 0.11461  0.28699  0.25745  Biso   1.000  Cl
  Cl3      1.0000 0.38539  0.78699  0.75745  Biso   1.000  Cl
  Cl4      1.0000 0.61461  0.21301  0.25745  Biso   1.000  Cl
  Cl5      1.0000 0.63901  0.77696  0.97602  Biso   1.000  Cl
  Cl6      1.0000 0.36099  0.22304  0.47602  Biso   1.000  Cl
  Cl7      1.0000 0.13901  0.72304  0.97602  Biso   1.000  Cl
  Cl8      1.0000 0.86099  0.27696  0.47602  Biso   1.000  Cl
  N1       1.0000 0.70640  0.86180  0.68530  Biso   1.000  N
  N2       1.0000 0.29360  0.13820  0.18530  Biso   1.000  N
  N3       1.0000 0.20640  0.63820  0.68530  Biso   1.000  N
  N4       1.0000 0.79360  0.36180  0.18530  Biso   1.000  N
  N5       1.0000 0.60460  0.90660  0.52850  Biso   1.000  N
  N6       1.0000 0.39540  0.09340  0.02850  Biso   1.000  N
  N7       1.0000 0.10460  0.59340  0.52850  Biso   1.000  N
  N8       1.0000 0.89540  0.40660  0.02850  Biso   1.000  N
  N9       1.0000 0.43770  0.57370  0.17230  Biso   1.000  N
  N10      1.0000 0.56230  0.42630  0.67230  Biso   1.000  N
  N11      1.0000 0.93770  0.92630  0.17230  Biso   1.000  N
  N12      1.0000 0.06230  0.07370  0.67230  Biso   1.000  N
  N13      1.0000 0.33270  0.61640  0.01910  Biso   1.000  N
  N14      1.0000 0.66730  0.38360  0.51910  Biso   1.000  N
  N15      1.0000 0.83270  0.88360  0.01910  Biso   1.000  N
  N16      1.0000 0.16730  0.11640  0.51910  Biso   1.000  N
  C1       1.0000 0.61920  0.86680  0.65880  Biso   1.000  C
  C2       1.0000 0.38080  0.13320  0.15880  Biso   1.000  C
  C3       1.0000 0.11920  0.63320  0.65880  Biso   1.000  C
  C4       1.0000 0.88080  0.36680  0.15880  Biso   1.000  C
  H1       1.0000 0.57340  0.84530  0.72310  Biso   1.000  H
  H2       1.0000 0.42660  0.15470  0.22310  Biso   1.000  H
  H3       1.0000 0.07340  0.65470  0.72310  Biso   1.000  H
  H4       1.0000 0.92660  0.34530  0.22310  Biso   1.000  H
  C5       1.0000 0.74850  0.89750  0.56350  Biso   1.000  C
  C6       1.0000 0.25150  0.10250  0.06350  Biso   1.000  C
  C7       1.0000 0.24850  0.60250  0.56350  Biso   1.000  C
  C8       1.0000 0.75150  0.39750  0.06350  Biso   1.000  C
  H5       1.0000 0.81150  0.90120  0.54990  Biso   1.000  H
  H6       1.0000 0.18850  0.09880  0.04990  Biso   1.000  H
  H7       1.0000 0.31150  0.59880  0.54990  Biso   1.000  H
  H8       1.0000 0.68850  0.40120  0.04990  Biso   1.000  H
  C9       1.0000 0.68680  0.92590  0.46780  Biso   1.000  C
  C10      1.0000 0.31320  0.07410  0.96780  Biso   1.000  C
  C11      1.0000 0.18680  0.57410  0.46780  Biso   1.000  C
  C12      1.0000 0.81320  0.42590  0.96780  Biso   1.000  C
  H9       1.0000 0.69770  0.95380  0.37580  Biso   1.000  H
  H10      1.0000 0.30230  0.04620  0.87580  Biso   1.000  H
  H11      1.0000 0.19770  0.54620  0.37580  Biso   1.000  H
  H12      1.0000 0.80230  0.45380  0.87580  Biso   1.000  H
  C13      1.0000 0.51640  0.92080  0.46330  Biso   1.000  C
  C14      1.0000 0.48360  0.07920  0.96330  Biso   1.000  C
  C15      1.0000 0.01640  0.57920  0.46330  Biso   1.000  C
  C16      1.0000 0.98360  0.42080  0.96330  Biso   1.000  C
  H13      1.0000 0.50700  0.02000  0.43600  Biso   1.000  H
  H14      1.0000 0.49300  0.98000  0.93600  Biso   1.000  H
  H15      1.0000 0.00700  0.48000  0.43600  Biso   1.000  H
  H16      1.0000 0.99300  0.52000  0.93600  Biso   1.000  H
  H17      1.0000 0.46920  0.89540  0.53010  Biso   1.000  H
  H18      1.0000 0.53080  0.10460  0.03010  Biso   1.000  H
  H19      1.0000 0.96920  0.60460  0.53010  Biso   1.000  H
  H20      1.0000 0.03080  0.39540  0.03010  Biso   1.000  H
  C17      1.0000 0.50830  0.82630  0.33720  Biso   1.000  C
  C18      1.0000 0.49170  0.17370  0.83720  Biso   1.000  C
  C19      1.0000 0.00830  0.67370  0.33720  Biso   1.000  C
  C20      1.0000 0.99170  0.32630  0.83720  Biso   1.000  C
  H21      1.0000 0.44850  0.84020  0.29530  Biso   1.000  H
  H22      1.0000 0.55150  0.15980  0.79530  Biso   1.000  H
  H23      1.0000 0.94850  0.65980  0.29530  Biso   1.000  H
  H24      1.0000 0.05150  0.34020  0.79530  Biso   1.000  H
  H25      1.0000 0.55390  0.85500  0.26900  Biso   1.000  H
  H26      1.0000 0.44610  0.14500  0.76900  Biso   1.000  H
  H27      1.0000 0.05390  0.64500  0.26900  Biso   1.000  H
  H28      1.0000 0.94610  0.35500  0.76900  Biso   1.000  H
  C21      1.0000 0.52070  0.67050  0.37010  Biso   1.000  C
  C22      1.0000 0.47930  0.32950  0.87010  Biso   1.000  C
  C23      1.0000 0.02070  0.82950  0.37010  Biso   1.000  C
  C24      1.0000 0.97930  0.17050  0.87010  Biso   1.000  C
  H29      1.0000 0.57730  0.65860  0.42170  Biso   1.000  H
  H30      1.0000 0.42270  0.34140  0.92170  Biso   1.000  H
  H31      1.0000 0.07730  0.84140  0.42170  Biso   1.000  H
  H32      1.0000 0.92270  0.15860  0.92170  Biso   1.000  H
  H33      1.0000 0.47100  0.63950  0.43010  Biso   1.000  H
  H34      1.0000 0.52900  0.36050  0.93010  Biso   1.000  H
  H35      1.0000 0.97100  0.86050  0.43010  Biso   1.000  H
  H36      1.0000 0.02900  0.13950  0.93010  Biso   1.000  H
  C25      1.0000 0.52330  0.57710  0.24500  Biso   1.000  C
  C26      1.0000 0.47670  0.42290  0.74500  Biso   1.000  C
  C27      1.0000 0.02330  0.92290  0.24500  Biso   1.000  C
  C28      1.0000 0.97670  0.07710  0.74500  Biso   1.000  C
  H37      1.0000 0.57050  0.61130  0.18190  Biso   1.000  H
  H38      1.0000 0.42950  0.38870  0.68190  Biso   1.000  H
  H39      1.0000 0.07050  0.88870  0.18190  Biso   1.000  H
  H40      1.0000 0.92950  0.11130  0.68190  Biso   1.000  H
  H41      1.0000 0.53940  0.48030  0.27330  Biso   1.000  H
  H42      1.0000 0.46060  0.51970  0.77330  Biso   1.000  H
  H43      1.0000 0.03940  0.01970  0.27330  Biso   1.000  H
  H44      1.0000 0.96060  0.98030  0.77330  Biso   1.000  H
  C29      1.0000 0.41630  0.64270  0.05600  Biso   1.000  C
  C30      1.0000 0.58370  0.35730  0.55600  Biso   1.000  C
  C31      1.0000 0.91630  0.85730  0.05600  Biso   1.000  C
  C32      1.0000 0.08370  0.14270  0.55600  Biso   1.000  C
  H45      1.0000 0.45600  0.70250  0.00700  Biso   1.000  H
  H46      1.0000 0.54400  0.29750  0.50700  Biso   1.000  H
  H47      1.0000 0.95600  0.79750  0.00700  Biso   1.000  H
  H48      1.0000 0.04400  0.20250  0.50700  Biso   1.000  H
  C33      1.0000 0.36370  0.49760  0.21070  Biso   1.000  C
  C34      1.0000 0.63630  0.50240  0.71070  Biso   1.000  C
  C35      1.0000 0.86370  0.00240  0.21070  Biso   1.000  C
  C36      1.0000 0.13630  0.99760  0.71070  Biso   1.000  C
  H49      1.0000 0.35850  0.43780  0.28830  Biso   1.000  H
  H50      1.0000 0.64150  0.56220  0.78830  Biso   1.000  H
  H51      1.0000 0.85850  0.06220  0.28830  Biso   1.000  H
  H52      1.0000 0.14150  0.93780  0.78830  Biso   1.000  H
  C37      1.0000 0.29970  0.52460  0.11670  Biso   1.000  C
  C38      1.0000 0.70030  0.47540  0.61670  Biso   1.000  C
  C39      1.0000 0.79970  0.97540  0.11670  Biso   1.000  C
  C40      1.0000 0.20030  0.02460  0.61670  Biso   1.000  C
  H53      1.0000 0.24090  0.48630  0.11740  Biso   1.000  H
  H54      1.0000 0.75910  0.51370  0.61740  Biso   1.000  H
  H55      1.0000 0.74090  0.01370  0.11740  Biso   1.000  H
  H56      1.0000 0.25910  0.98630  0.61740  Biso   1.000  H
