data_image0
_cell_length_a       9.6735
_cell_length_b       19.5436
_cell_length_c       7.0889
_cell_angle_alpha    90
_cell_angle_beta     94.4613
_cell_angle_gamma    90

_symmetry_space_group_name_H-M    "P 1"
_symmetry_int_tables_number       1

loop_
  _symmetry_equiv_pos_as_xyz
  'x, y, z'

loop_
  _atom_site_label
  _atom_site_occupancy
  _atom_site_fract_x
  _atom_site_fract_y
  _atom_site_fract_z
  _atom_site_thermal_displace_type
  _atom_site_B_iso_or_equiv
  _atom_site_type_symbol
  Cu1      1.0000 0.51231  0.72563  0.71034  Biso   1.000  Cu
  Cu2      1.0000 0.48769  0.22563  0.78966  Biso   1.000  Cu
  Cu3      1.0000 0.48769  0.27437  0.28966  Biso   1.000  Cu
  Cu4      1.0000 0.51231  0.77437  0.21034  Biso   1.000  Cu
  N1       1.0000 0.37020  0.65240  0.63070  Biso   1.000  N
  N2       1.0000 0.62980  0.15240  0.86930  Biso   1.000  N
  N3       1.0000 0.62980  0.34760  0.36930  Biso   1.000  N
  N4       1.0000 0.37020  0.84760  0.13070  Biso   1.000  N
  N5       1.0000 0.62660  0.64002  0.78020  Biso   1.000  N
  N6       1.0000 0.37340  0.14002  0.71980  Biso   1.000  N
  N7       1.0000 0.37340  0.35998  0.21980  Biso   1.000  N
  N8       1.0000 0.62660  0.85998  0.28020  Biso   1.000  N
  N9       1.0000 0.39310  0.79858  0.60040  Biso   1.000  N
  N10      1.0000 0.60690  0.29858  0.89960  Biso   1.000  N
  N11      1.0000 0.60690  0.20142  0.39960  Biso   1.000  N
  N12      1.0000 0.39310  0.70142  0.10040  Biso   1.000  N
  N13      1.0000 0.41110  0.85800  0.63290  Biso   1.000  N
  N14      1.0000 0.58890  0.35800  0.86710  Biso   1.000  N
  N15      1.0000 0.58890  0.14200  0.36710  Biso   1.000  N
  N16      1.0000 0.41110  0.64200  0.13290  Biso   1.000  N
  N17      1.0000 0.42220  0.91593  0.65660  Biso   1.000  N
  N18      1.0000 0.57780  0.41593  0.84340  Biso   1.000  N
  N19      1.0000 0.57780  0.08407  0.34340  Biso   1.000  N
  N20      1.0000 0.42220  0.58407  0.15660  Biso   1.000  N
  N21      1.0000 0.61040  0.71847  0.40780  Biso   1.000  N
  N22      1.0000 0.38960  0.21847  0.09220  Biso   1.000  N
  N23      1.0000 0.38960  0.28153  0.59220  Biso   1.000  N
  N24      1.0000 0.61040  0.78153  0.90780  Biso   1.000  N
  N25      1.0000 0.69090  0.67252  0.38670  Biso   1.000  N
  N26      1.0000 0.30910  0.17252  0.11330  Biso   1.000  N
  N27      1.0000 0.30910  0.32748  0.61330  Biso   1.000  N
  N28      1.0000 0.69090  0.82748  0.88670  Biso   1.000  N
  N29      1.0000 0.77060  0.62898  0.37780  Biso   1.000  N
  N30      1.0000 0.22940  0.12898  0.12220  Biso   1.000  N
  N31      1.0000 0.22940  0.37102  0.62220  Biso   1.000  N
  N32      1.0000 0.77060  0.87102  0.87780  Biso   1.000  N
  C1       1.0000 0.24300  0.66014  0.55160  Biso   1.000  C
  C2       1.0000 0.75700  0.16014  0.94840  Biso   1.000  C
  C3       1.0000 0.75700  0.33986  0.44840  Biso   1.000  C
  C4       1.0000 0.24300  0.83986  0.05160  Biso   1.000  C
  H1       1.0000 0.21140  0.70420  0.52320  Biso   1.000  H
  H2       1.0000 0.78860  0.20420  0.97680  Biso   1.000  H
  H3       1.0000 0.78860  0.29580  0.47680  Biso   1.000  H
  H4       1.0000 0.21140  0.79580  0.02320  Biso   1.000  H
  C5       1.0000 0.15470  0.60574  0.50930  Biso   1.000  C
  C6       1.0000 0.84530  0.10574  0.99070  Biso   1.000  C
  C7       1.0000 0.84530  0.39426  0.49070  Biso   1.000  C
  C8       1.0000 0.15470  0.89426  0.00930  Biso   1.000  C
  H5       1.0000 0.06540  0.61320  0.45490  Biso   1.000  H
  H6       1.0000 0.93460  0.11320  0.04510  Biso   1.000  H
  H7       1.0000 0.93460  0.38680  0.54510  Biso   1.000  H
  H8       1.0000 0.06540  0.88680  0.95490  Biso   1.000  H
  C9       1.0000 0.20060  0.54091  0.54860  Biso   1.000  C
  C10      1.0000 0.79940  0.04091  0.95140  Biso   1.000  C
  C11      1.0000 0.79940  0.45909  0.45140  Biso   1.000  C
  C12      1.0000 0.20060  0.95909  0.04860  Biso   1.000  C
  H9       1.0000 0.14340  0.50350  0.52000  Biso   1.000  H
  H10      1.0000 0.85660  0.00350  0.98000  Biso   1.000  H
  H11      1.0000 0.85660  0.49650  0.48000  Biso   1.000  H
  H12      1.0000 0.14340  0.99650  0.02000  Biso   1.000  H
  C13      1.0000 0.33370  0.53164  0.63180  Biso   1.000  C
  C14      1.0000 0.66630  0.03164  0.86820  Biso   1.000  C
  C15      1.0000 0.66630  0.46836  0.36820  Biso   1.000  C
  C16      1.0000 0.33370  0.96836  0.13180  Biso   1.000  C
  H13      1.0000 0.36720  0.48800  0.66120  Biso   1.000  H
  H14      1.0000 0.63280  0.98800  0.83880  Biso   1.000  H
  H15      1.0000 0.63280  0.51200  0.33880  Biso   1.000  H
  H16      1.0000 0.36720  0.01200  0.16120  Biso   1.000  H
  C17      1.0000 0.41530  0.58837  0.67010  Biso   1.000  C
  C18      1.0000 0.58470  0.08837  0.82990  Biso   1.000  C
  C19      1.0000 0.58470  0.41163  0.32990  Biso   1.000  C
  C20      1.0000 0.41530  0.91163  0.17010  Biso   1.000  C
  C21      1.0000 0.55880  0.58481  0.75100  Biso   1.000  C
  C22      1.0000 0.44120  0.08481  0.74900  Biso   1.000  C
  C23      1.0000 0.44120  0.41519  0.24900  Biso   1.000  C
  C24      1.0000 0.55880  0.91519  0.25100  Biso   1.000  C
  H17      1.0000 0.60000  0.54280  0.78060  Biso   1.000  H
  H18      1.0000 0.40000  0.04280  0.71940  Biso   1.000  H
  H19      1.0000 0.40000  0.45720  0.21940  Biso   1.000  H
  H20      1.0000 0.60000  0.95720  0.28060  Biso   1.000  H
  C25      1.0000 0.76920  0.63878  0.85150  Biso   1.000  C
  C26      1.0000 0.23080  0.13878  0.64850  Biso   1.000  C
  C27      1.0000 0.23080  0.36122  0.14850  Biso   1.000  C
  C28      1.0000 0.76920  0.86122  0.35150  Biso   1.000  C
  C29      1.0000 0.85360  0.69122  0.79930  Biso   1.000  C
  C30      1.0000 0.14640  0.19122  0.70070  Biso   1.000  C
  C31      1.0000 0.14640  0.30878  0.20070  Biso   1.000  C
  C32      1.0000 0.85360  0.80878  0.29930  Biso   1.000  C
  H21      1.0000 0.81720  0.72590  0.72070  Biso   1.000  H
  H22      1.0000 0.18280  0.22590  0.77930  Biso   1.000  H
  H23      1.0000 0.18280  0.27410  0.27930  Biso   1.000  H
  H24      1.0000 0.81720  0.77410  0.22070  Biso   1.000  H
  C33      1.0000 0.99150  0.69230  0.86330  Biso   1.000  C
  C34      1.0000 0.00850  0.19230  0.63670  Biso   1.000  C
  C35      1.0000 0.00850  0.30770  0.13670  Biso   1.000  C
  C36      1.0000 0.99150  0.80770  0.36330  Biso   1.000  C
  H25      1.0000 0.04830  0.72760  0.82740  Biso   1.000  H
  H26      1.0000 0.95170  0.22760  0.67260  Biso   1.000  H
  H27      1.0000 0.95170  0.27240  0.17260  Biso   1.000  H
  H28      1.0000 0.04830  0.77240  0.32740  Biso   1.000  H
  C37      1.0000 0.04510  0.64120  0.98000  Biso   1.000  C
  C38      1.0000 0.95490  0.14120  0.52000  Biso   1.000  C
  C39      1.0000 0.95490  0.35880  0.02000  Biso   1.000  C
  C40      1.0000 0.04510  0.85880  0.48000  Biso   1.000  C
  H29      1.0000 0.13810  0.64210  0.02420  Biso   1.000  H
  H30      1.0000 0.86190  0.14210  0.47580  Biso   1.000  H
  H31      1.0000 0.86190  0.35790  0.97580  Biso   1.000  H
  H32      1.0000 0.13810  0.85790  0.52420  Biso   1.000  H
  C41      1.0000 0.96190  0.58920  0.03130  Biso   1.000  C
  C42      1.0000 0.03810  0.08920  0.46870  Biso   1.000  C
  C43      1.0000 0.03810  0.41080  0.96870  Biso   1.000  C
  C44      1.0000 0.96190  0.91080  0.53130  Biso   1.000  C
  H33      1.0000 0.99940  0.55460  0.10940  Biso   1.000  H
  H34      1.0000 0.00060  0.05460  0.39060  Biso   1.000  H
  H35      1.0000 0.00060  0.44540  0.89060  Biso   1.000  H
  H36      1.0000 0.99940  0.94540  0.60940  Biso   1.000  H
  C45      1.0000 0.82320  0.58702  0.96940  Biso   1.000  C
  C46      1.0000 0.17680  0.08702  0.53060  Biso   1.000  C
  C47      1.0000 0.17680  0.41298  0.03060  Biso   1.000  C
  C48      1.0000 0.82320  0.91298  0.46940  Biso   1.000  C
  H37      1.0000 0.76700  0.55160  0.00610  Biso   1.000  H
  H38      1.0000 0.23300  0.05160  0.49390  Biso   1.000  H
  H39      1.0000 0.23300  0.44840  0.99390  Biso   1.000  H
  H40      1.0000 0.76700  0.94840  0.50610  Biso   1.000  H
