data_image0
_cell_length_a       18.4371
_cell_length_b       21.3954
_cell_length_c       7.2088
_cell_angle_alpha    90
_cell_angle_beta     90
_cell_angle_gamma    90

_symmetry_space_group_name_H-M    "P 1"
_symmetry_int_tables_number       1

loop_
  _symmetry_equiv_pos_as_xyz
  'x, y, z'

loop_
  _atom_site_label
  _atom_site_occupancy
  _atom_site_fract_x
  _atom_site_fract_y
  _atom_site_fract_z
  _atom_site_thermal_displace_type
  _atom_site_B_iso_or_equiv
  _atom_site_type_symbol
  Cu1      1.0000 0.23025  0.42646  0.40605  Biso   1.000  Cu
  Cu2      1.0000 0.26975  0.07354  0.40605  Biso   1.000  Cu
  Cu3      1.0000 0.76975  0.92646  0.09395  Biso   1.000  Cu
  Cu4      1.0000 0.73025  0.57354  0.09395  Biso   1.000  Cu
  Cu5      1.0000 0.76975  0.57354  0.59395  Biso   1.000  Cu
  Cu6      1.0000 0.73025  0.92646  0.59395  Biso   1.000  Cu
  Cu7      1.0000 0.23025  0.07354  0.90605  Biso   1.000  Cu
  Cu8      1.0000 0.26975  0.42646  0.90605  Biso   1.000  Cu
  N1       1.0000 0.14940  0.36610  0.47350  Biso   1.000  N
  N2       1.0000 0.35060  0.13390  0.47350  Biso   1.000  N
  N3       1.0000 0.85060  0.86610  0.02650  Biso   1.000  N
  N4       1.0000 0.64940  0.63390  0.02650  Biso   1.000  N
  N5       1.0000 0.85060  0.63390  0.52650  Biso   1.000  N
  N6       1.0000 0.64940  0.86610  0.52650  Biso   1.000  N
  N7       1.0000 0.14940  0.13390  0.97350  Biso   1.000  N
  N8       1.0000 0.35060  0.36610  0.97350  Biso   1.000  N
  N9       1.0000 0.14277  0.48002  0.34210  Biso   1.000  N
  N10      1.0000 0.35723  0.01998  0.34210  Biso   1.000  N
  N11      1.0000 0.85723  0.98002  0.15790  Biso   1.000  N
  N12      1.0000 0.64277  0.51998  0.15790  Biso   1.000  N
  N13      1.0000 0.85723  0.51998  0.65790  Biso   1.000  N
  N14      1.0000 0.64277  0.98002  0.65790  Biso   1.000  N
  N15      1.0000 0.14277  0.01998  0.84210  Biso   1.000  N
  N16      1.0000 0.35723  0.48002  0.84210  Biso   1.000  N
  N17      1.0000 0.30292  0.37288  0.51840  Biso   1.000  N
  N18      1.0000 0.19708  0.12712  0.51840  Biso   1.000  N
  N19      1.0000 0.69708  0.87288  0.98160  Biso   1.000  N
  N20      1.0000 0.80292  0.62712  0.98160  Biso   1.000  N
  N21      1.0000 0.69708  0.62712  0.48160  Biso   1.000  N
  N22      1.0000 0.80292  0.87288  0.48160  Biso   1.000  N
  N23      1.0000 0.30292  0.12712  0.01840  Biso   1.000  N
  N24      1.0000 0.19708  0.37288  0.01840  Biso   1.000  N
  N25      1.0000 0.36668  0.37931  0.49580  Biso   1.000  N
  N26      1.0000 0.13332  0.12069  0.49580  Biso   1.000  N
  N27      1.0000 0.63332  0.87931  0.00420  Biso   1.000  N
  N28      1.0000 0.86668  0.62069  0.00420  Biso   1.000  N
  N29      1.0000 0.63332  0.62069  0.50420  Biso   1.000  N
  N30      1.0000 0.86668  0.87931  0.50420  Biso   1.000  N
  N31      1.0000 0.36668  0.12069  0.99580  Biso   1.000  N
  N32      1.0000 0.13332  0.37931  0.99580  Biso   1.000  N
  N33      1.0000 0.42849  0.38368  0.48350  Biso   1.000  N
  N34      1.0000 0.07151  0.11632  0.48350  Biso   1.000  N
  N35      1.0000 0.57151  0.88368  0.01650  Biso   1.000  N
  N36      1.0000 0.92849  0.61632  0.01650  Biso   1.000  N
  N37      1.0000 0.57151  0.61632  0.51650  Biso   1.000  N
  N38      1.0000 0.92849  0.88368  0.51650  Biso   1.000  N
  N39      1.0000 0.42849  0.11632  0.98350  Biso   1.000  N
  N40      1.0000 0.07151  0.38368  0.98350  Biso   1.000  N
  N41      1.0000 0.29209  0.47265  0.23440  Biso   1.000  N
  N42      1.0000 0.20791  0.02735  0.23440  Biso   1.000  N
  N43      1.0000 0.70791  0.97265  0.26560  Biso   1.000  N
  N44      1.0000 0.79209  0.52735  0.26560  Biso   1.000  N
  N45      1.0000 0.70791  0.52735  0.76560  Biso   1.000  N
  N46      1.0000 0.79209  0.97265  0.76560  Biso   1.000  N
  N47      1.0000 0.29209  0.02735  0.73440  Biso   1.000  N
  N48      1.0000 0.20791  0.47265  0.73440  Biso   1.000  N
  N49      1.0000 0.35109  0.49532  0.24970  Biso   1.000  N
  N50      1.0000 0.14891  0.00468  0.24970  Biso   1.000  N
  N51      1.0000 0.64891  0.99532  0.25030  Biso   1.000  N
  N52      1.0000 0.85109  0.50468  0.25030  Biso   1.000  N
  N53      1.0000 0.64891  0.50468  0.75030  Biso   1.000  N
  N54      1.0000 0.85109  0.99532  0.75030  Biso   1.000  N
  N55      1.0000 0.35109  0.00468  0.74970  Biso   1.000  N
  N56      1.0000 0.14891  0.49532  0.74970  Biso   1.000  N
  N57      1.0000 0.40755  0.51863  0.24970  Biso   1.000  N
  N58      1.0000 0.09245  0.98137  0.24970  Biso   1.000  N
  N59      1.0000 0.59245  0.01863  0.25030  Biso   1.000  N
  N60      1.0000 0.90755  0.48137  0.25030  Biso   1.000  N
  N61      1.0000 0.59245  0.48137  0.75030  Biso   1.000  N
  N62      1.0000 0.90755  0.01863  0.75030  Biso   1.000  N
  N63      1.0000 0.40755  0.98137  0.74970  Biso   1.000  N
  N64      1.0000 0.09245  0.51863  0.74970  Biso   1.000  N
  C1       1.0000 0.15516  0.31007  0.55180  Biso   1.000  C
  C2       1.0000 0.34484  0.18993  0.55180  Biso   1.000  C
  C3       1.0000 0.84484  0.81007  0.94820  Biso   1.000  C
  C4       1.0000 0.65516  0.68993  0.94820  Biso   1.000  C
  C5       1.0000 0.84484  0.68993  0.44820  Biso   1.000  C
  C6       1.0000 0.65516  0.81007  0.44820  Biso   1.000  C
  C7       1.0000 0.15516  0.18993  0.05180  Biso   1.000  C
  C8       1.0000 0.34484  0.31007  0.05180  Biso   1.000  C
  H1       1.0000 0.20100  0.29480  0.58040  Biso   1.000  H
  H2       1.0000 0.29900  0.20520  0.58040  Biso   1.000  H
  H3       1.0000 0.79900  0.79480  0.91960  Biso   1.000  H
  H4       1.0000 0.70100  0.70520  0.91960  Biso   1.000  H
  H5       1.0000 0.79900  0.70520  0.41960  Biso   1.000  H
  H6       1.0000 0.70100  0.79480  0.41960  Biso   1.000  H
  H7       1.0000 0.20100  0.20520  0.08040  Biso   1.000  H
  H8       1.0000 0.29900  0.29480  0.08040  Biso   1.000  H
  C9       1.0000 0.09549  0.27392  0.59180  Biso   1.000  C
  C10      1.0000 0.40451  0.22608  0.59180  Biso   1.000  C
  C11      1.0000 0.90451  0.77392  0.90820  Biso   1.000  C
  C12      1.0000 0.59549  0.72608  0.90820  Biso   1.000  C
  C13      1.0000 0.90451  0.72608  0.40820  Biso   1.000  C
  C14      1.0000 0.59549  0.77392  0.40820  Biso   1.000  C
  C15      1.0000 0.09549  0.22608  0.09180  Biso   1.000  C
  C16      1.0000 0.40451  0.27392  0.09180  Biso   1.000  C
  H9       1.0000 0.10120  0.23490  0.64650  Biso   1.000  H
  H10      1.0000 0.39880  0.26510  0.64650  Biso   1.000  H
  H11      1.0000 0.89880  0.73490  0.85350  Biso   1.000  H
  H12      1.0000 0.60120  0.76510  0.85350  Biso   1.000  H
  H13      1.0000 0.89880  0.76510  0.35350  Biso   1.000  H
  H14      1.0000 0.60120  0.73490  0.35350  Biso   1.000  H
  H15      1.0000 0.10120  0.26510  0.14650  Biso   1.000  H
  H16      1.0000 0.39880  0.23490  0.14650  Biso   1.000  H
  C17      1.0000 0.02763  0.29586  0.55070  Biso   1.000  C
  C18      1.0000 0.47237  0.20414  0.55070  Biso   1.000  C
  C19      1.0000 0.97237  0.79586  0.94930  Biso   1.000  C
  C20      1.0000 0.52763  0.70414  0.94930  Biso   1.000  C
  C21      1.0000 0.97237  0.70414  0.44930  Biso   1.000  C
  C22      1.0000 0.52763  0.79586  0.44930  Biso   1.000  C
  C23      1.0000 0.02763  0.20414  0.05070  Biso   1.000  C
  C24      1.0000 0.47237  0.29586  0.05070  Biso   1.000  C
  H17      1.0000 0.98680  0.27190  0.57630  Biso   1.000  H
  H18      1.0000 0.51320  0.22810  0.57630  Biso   1.000  H
  H19      1.0000 0.01320  0.77190  0.92370  Biso   1.000  H
  H20      1.0000 0.48680  0.72810  0.92370  Biso   1.000  H
  H21      1.0000 0.01320  0.72810  0.42370  Biso   1.000  H
  H22      1.0000 0.48680  0.77190  0.42370  Biso   1.000  H
  H23      1.0000 0.98680  0.22810  0.07630  Biso   1.000  H
  H24      1.0000 0.51320  0.27190  0.07630  Biso   1.000  H
  C25      1.0000 0.02071  0.35425  0.47030  Biso   1.000  C
  C26      1.0000 0.47929  0.14575  0.47030  Biso   1.000  C
  C27      1.0000 0.97929  0.85425  0.02970  Biso   1.000  C
  C28      1.0000 0.52071  0.64575  0.02970  Biso   1.000  C
  C29      1.0000 0.97929  0.64575  0.52970  Biso   1.000  C
  C30      1.0000 0.52071  0.85425  0.52970  Biso   1.000  C
  C31      1.0000 0.02071  0.14575  0.97030  Biso   1.000  C
  C32      1.0000 0.47929  0.35425  0.97030  Biso   1.000  C
  H25      1.0000 0.97520  0.37030  0.44130  Biso   1.000  H
  H26      1.0000 0.52480  0.12970  0.44130  Biso   1.000  H
  H27      1.0000 0.02480  0.87030  0.05870  Biso   1.000  H
  H28      1.0000 0.47520  0.62970  0.05870  Biso   1.000  H
  H29      1.0000 0.02480  0.62970  0.55870  Biso   1.000  H
  H30      1.0000 0.47520  0.87030  0.55870  Biso   1.000  H
  H31      1.0000 0.97520  0.12970  0.94130  Biso   1.000  H
  H32      1.0000 0.52480  0.37030  0.94130  Biso   1.000  H
  C33      1.0000 0.08267  0.38809  0.43420  Biso   1.000  C
  C34      1.0000 0.41733  0.11191  0.43420  Biso   1.000  C
  C35      1.0000 0.91733  0.88809  0.06580  Biso   1.000  C
  C36      1.0000 0.58267  0.61191  0.06580  Biso   1.000  C
  C37      1.0000 0.91733  0.61191  0.56580  Biso   1.000  C
  C38      1.0000 0.58267  0.88809  0.56580  Biso   1.000  C
  C39      1.0000 0.08267  0.11191  0.93420  Biso   1.000  C
  C40      1.0000 0.41733  0.38809  0.93420  Biso   1.000  C
  C41      1.0000 0.08221  0.45222  0.36200  Biso   1.000  C
  C42      1.0000 0.41779  0.04778  0.36200  Biso   1.000  C
  C43      1.0000 0.91779  0.95222  0.13800  Biso   1.000  C
  C44      1.0000 0.58221  0.54778  0.13800  Biso   1.000  C
  C45      1.0000 0.91779  0.54778  0.63800  Biso   1.000  C
  C46      1.0000 0.58221  0.95222  0.63800  Biso   1.000  C
  C47      1.0000 0.08221  0.04778  0.86200  Biso   1.000  C
  C48      1.0000 0.41779  0.45222  0.86200  Biso   1.000  C
  H33      1.0000 0.03890  0.47200  0.33160  Biso   1.000  H
  H34      1.0000 0.46110  0.02800  0.33160  Biso   1.000  H
  H35      1.0000 0.96110  0.97200  0.16840  Biso   1.000  H
  H36      1.0000 0.53890  0.52800  0.16840  Biso   1.000  H
  H37      1.0000 0.96110  0.52800  0.66840  Biso   1.000  H
  H38      1.0000 0.53890  0.97200  0.66840  Biso   1.000  H
  H39      1.0000 0.03890  0.02800  0.83160  Biso   1.000  H
  H40      1.0000 0.46110  0.47200  0.83160  Biso   1.000  H
  C49      1.0000 0.14460  0.54461  0.28970  Biso   1.000  C
  C50      1.0000 0.35540  0.95539  0.28970  Biso   1.000  C
  C51      1.0000 0.85540  0.04461  0.21030  Biso   1.000  C
  C52      1.0000 0.64460  0.45539  0.21030  Biso   1.000  C
  C53      1.0000 0.85540  0.45539  0.71030  Biso   1.000  C
  C54      1.0000 0.64460  0.04461  0.71030  Biso   1.000  C
  C55      1.0000 0.14460  0.95539  0.78970  Biso   1.000  C
  C56      1.0000 0.35540  0.54461  0.78970  Biso   1.000  C
  C57      1.0000 0.19654  0.58246  0.37220  Biso   1.000  C
  C58      1.0000 0.30346  0.91754  0.37220  Biso   1.000  C
  C59      1.0000 0.80346  0.08246  0.12780  Biso   1.000  C
  C60      1.0000 0.69654  0.41754  0.12780  Biso   1.000  C
  C61      1.0000 0.80346  0.41754  0.62780  Biso   1.000  C
  C62      1.0000 0.69654  0.08246  0.62780  Biso   1.000  C
  C63      1.0000 0.19654  0.91754  0.87220  Biso   1.000  C
  C64      1.0000 0.30346  0.58246  0.87220  Biso   1.000  C
  H41      1.0000 0.23000  0.56520  0.45400  Biso   1.000  H
  H42      1.0000 0.27000  0.93480  0.45400  Biso   1.000  H
  H43      1.0000 0.77000  0.06520  0.04600  Biso   1.000  H
  H44      1.0000 0.73000  0.43480  0.04600  Biso   1.000  H
  H45      1.0000 0.77000  0.43480  0.54600  Biso   1.000  H
  H46      1.0000 0.73000  0.06520  0.54600  Biso   1.000  H
  H47      1.0000 0.23000  0.93480  0.95400  Biso   1.000  H
  H48      1.0000 0.27000  0.56520  0.95400  Biso   1.000  H
  C65      1.0000 0.19863  0.64531  0.33340  Biso   1.000  C
  C66      1.0000 0.30137  0.85469  0.33340  Biso   1.000  C
  C67      1.0000 0.80137  0.14531  0.16660  Biso   1.000  C
  C68      1.0000 0.69863  0.35469  0.16660  Biso   1.000  C
  C69      1.0000 0.80137  0.35469  0.66660  Biso   1.000  C
  C70      1.0000 0.69863  0.14531  0.66660  Biso   1.000  C
  C71      1.0000 0.19863  0.85469  0.83340  Biso   1.000  C
  C72      1.0000 0.30137  0.64531  0.83340  Biso   1.000  C
  H49      1.0000 0.23320  0.67090  0.38880  Biso   1.000  H
  H50      1.0000 0.26680  0.82910  0.38880  Biso   1.000  H
  H51      1.0000 0.76680  0.17090  0.11120  Biso   1.000  H
  H52      1.0000 0.73320  0.32910  0.11120  Biso   1.000  H
  H53      1.0000 0.76680  0.32910  0.61120  Biso   1.000  H
  H54      1.0000 0.73320  0.17090  0.61120  Biso   1.000  H
  H55      1.0000 0.23320  0.82910  0.88880  Biso   1.000  H
  H56      1.0000 0.26680  0.67090  0.88880  Biso   1.000  H
  C73      1.0000 0.14856  0.67001  0.21060  Biso   1.000  C
  C74      1.0000 0.35144  0.82999  0.21060  Biso   1.000  C
  C75      1.0000 0.85144  0.17001  0.28940  Biso   1.000  C
  C76      1.0000 0.64856  0.32999  0.28940  Biso   1.000  C
  C77      1.0000 0.85144  0.32999  0.78940  Biso   1.000  C
  C78      1.0000 0.64856  0.17001  0.78940  Biso   1.000  C
  C79      1.0000 0.14856  0.82999  0.71060  Biso   1.000  C
  C80      1.0000 0.35144  0.67001  0.71060  Biso   1.000  C
  C81      1.0000 0.09806  0.63313  0.12530  Biso   1.000  C
  C82      1.0000 0.40194  0.86687  0.12530  Biso   1.000  C
  C83      1.0000 0.90194  0.13313  0.37470  Biso   1.000  C
  C84      1.0000 0.59806  0.36687  0.37470  Biso   1.000  C
  C85      1.0000 0.90194  0.36687  0.87470  Biso   1.000  C
  C86      1.0000 0.59806  0.13313  0.87470  Biso   1.000  C
  C87      1.0000 0.09806  0.86687  0.62530  Biso   1.000  C
  C88      1.0000 0.40194  0.63313  0.62530  Biso   1.000  C
  H57      1.0000 0.06560  0.65040  0.04070  Biso   1.000  H
  H58      1.0000 0.43440  0.84960  0.04070  Biso   1.000  H
  H59      1.0000 0.93440  0.15040  0.45930  Biso   1.000  H
  H60      1.0000 0.56560  0.34960  0.45930  Biso   1.000  H
  H61      1.0000 0.93440  0.34960  0.95930  Biso   1.000  H
  H62      1.0000 0.56560  0.15040  0.95930  Biso   1.000  H
  H63      1.0000 0.06560  0.84960  0.54070  Biso   1.000  H
  H64      1.0000 0.43440  0.65040  0.54070  Biso   1.000  H
  C89      1.0000 0.09562  0.56983  0.16570  Biso   1.000  C
  C90      1.0000 0.40438  0.93017  0.16570  Biso   1.000  C
  C91      1.0000 0.90438  0.06983  0.33430  Biso   1.000  C
  C92      1.0000 0.59562  0.43017  0.33430  Biso   1.000  C
  C93      1.0000 0.90438  0.43017  0.83430  Biso   1.000  C
  C94      1.0000 0.59562  0.06983  0.83430  Biso   1.000  C
  C95      1.0000 0.09562  0.93017  0.66570  Biso   1.000  C
  C96      1.0000 0.40438  0.56983  0.66570  Biso   1.000  C
  H65      1.0000 0.06110  0.54440  0.10950  Biso   1.000  H
  H66      1.0000 0.43890  0.95560  0.10950  Biso   1.000  H
  H67      1.0000 0.93890  0.04440  0.39050  Biso   1.000  H
  H68      1.0000 0.56110  0.45560  0.39050  Biso   1.000  H
  H69      1.0000 0.93890  0.45560  0.89050  Biso   1.000  H
  H70      1.0000 0.56110  0.04440  0.89050  Biso   1.000  H
  H71      1.0000 0.06110  0.95560  0.60950  Biso   1.000  H
  H72      1.0000 0.43890  0.54440  0.60950  Biso   1.000  H
  Cl1      1.0000 0.14894  0.75026  0.16755  Biso   1.000  Cl
  Cl2      1.0000 0.35106  0.74974  0.16755  Biso   1.000  Cl
  Cl3      1.0000 0.85106  0.25026  0.33245  Biso   1.000  Cl
  Cl4      1.0000 0.64894  0.24974  0.33245  Biso   1.000  Cl
  Cl5      1.0000 0.85106  0.24974  0.83245  Biso   1.000  Cl
  Cl6      1.0000 0.64894  0.25026  0.83245  Biso   1.000  Cl
  Cl7      1.0000 0.14894  0.74974  0.66755  Biso   1.000  Cl
  Cl8      1.0000 0.35106  0.75026  0.66755  Biso   1.000  Cl
