data_image0
_cell_length_a       12.6554
_cell_length_b       6.9146
_cell_length_c       7.6681
_cell_angle_alpha    90
_cell_angle_beta     103.053
_cell_angle_gamma    90

_symmetry_space_group_name_H-M    "P 1"
_symmetry_int_tables_number       1

loop_
  _symmetry_equiv_pos_as_xyz
  'x, y, z'

loop_
  _atom_site_label
  _atom_site_occupancy
  _atom_site_fract_x
  _atom_site_fract_y
  _atom_site_fract_z
  _atom_site_thermal_displace_type
  _atom_site_B_iso_or_equiv
  _atom_site_type_symbol
  Cu1      1.0000 0.00000  0.00000  0.00000  Biso   1.000  Cu
  Cu2      1.0000 0.00000  0.50000  0.50000  Biso   1.000  Cu
  Br1      1.0000 0.07787  0.21187  0.80933  Biso   1.000  Br
  Br2      1.0000 0.92213  0.71187  0.69067  Biso   1.000  Br
  Br3      1.0000 0.92213  0.78813  0.19067  Biso   1.000  Br
  Br4      1.0000 0.07787  0.28813  0.30933  Biso   1.000  Br
  N1       1.0000 0.86040  0.14340  0.93320  Biso   1.000  N
  N2       1.0000 0.13960  0.64340  0.56680  Biso   1.000  N
  N3       1.0000 0.13960  0.85660  0.06680  Biso   1.000  N
  N4       1.0000 0.86040  0.35660  0.43320  Biso   1.000  N
  N5       1.0000 0.76400  0.06190  0.85960  Biso   1.000  N
  N6       1.0000 0.23600  0.56190  0.64040  Biso   1.000  N
  N7       1.0000 0.23600  0.93810  0.14040  Biso   1.000  N
  N8       1.0000 0.76400  0.43810  0.35960  Biso   1.000  N
  N9       1.0000 0.69060  0.19370  0.83000  Biso   1.000  N
  N10      1.0000 0.30940  0.69370  0.67000  Biso   1.000  N
  N11      1.0000 0.30940  0.80630  0.17000  Biso   1.000  N
  N12      1.0000 0.69060  0.30630  0.33000  Biso   1.000  N
  N13      1.0000 0.74010  0.36260  0.88420  Biso   1.000  N
  N14      1.0000 0.25990  0.86260  0.61580  Biso   1.000  N
  N15      1.0000 0.25990  0.63740  0.11580  Biso   1.000  N
  N16      1.0000 0.74010  0.13740  0.38420  Biso   1.000  N
  C1       1.0000 0.67970  0.54530  0.87800  Biso   1.000  C
  C2       1.0000 0.32030  0.04530  0.62200  Biso   1.000  C
  C3       1.0000 0.32030  0.45470  0.12200  Biso   1.000  C
  C4       1.0000 0.67970  0.95470  0.37800  Biso   1.000  C
  H1       1.0000 0.59200  0.55300  0.91600  Biso   1.000  H
  H2       1.0000 0.40800  0.05300  0.58400  Biso   1.000  H
  H3       1.0000 0.40800  0.44700  0.08400  Biso   1.000  H
  H4       1.0000 0.59200  0.94700  0.41600  Biso   1.000  H
  H5       1.0000 0.73000  0.65200  0.91500  Biso   1.000  H
  H6       1.0000 0.27000  0.15200  0.58500  Biso   1.000  H
  H7       1.0000 0.27000  0.34800  0.08500  Biso   1.000  H
  H8       1.0000 0.73000  0.84800  0.41500  Biso   1.000  H
  C5       1.0000 0.60780  0.57780  0.71620  Biso   1.000  C
  C6       1.0000 0.39220  0.07780  0.78380  Biso   1.000  C
  C7       1.0000 0.39220  0.42220  0.28380  Biso   1.000  C
  C8       1.0000 0.60780  0.92220  0.21620  Biso   1.000  C
  H9       1.0000 0.57210  0.69960  0.72030  Biso   1.000  H
  H10      1.0000 0.42790  0.19960  0.77970  Biso   1.000  H
  H11      1.0000 0.42790  0.30040  0.27970  Biso   1.000  H
  H12      1.0000 0.57210  0.80040  0.22030  Biso   1.000  H
  H13      1.0000 0.55480  0.47610  0.69390  Biso   1.000  H
  H14      1.0000 0.44520  0.97610  0.80610  Biso   1.000  H
  H15      1.0000 0.44520  0.52390  0.30610  Biso   1.000  H
  H16      1.0000 0.55480  0.02390  0.19390  Biso   1.000  H
  H17      1.0000 0.64660  0.58020  0.62210  Biso   1.000  H
  H18      1.0000 0.35340  0.08020  0.87790  Biso   1.000  H
  H19      1.0000 0.35340  0.41980  0.37790  Biso   1.000  H
  H20      1.0000 0.64660  0.91980  0.12210  Biso   1.000  H
  C9       1.0000 0.84320  0.32630  0.94510  Biso   1.000  C
  C10      1.0000 0.15680  0.82630  0.55490  Biso   1.000  C
  C11      1.0000 0.15680  0.67370  0.05490  Biso   1.000  C
  C12      1.0000 0.84320  0.17370  0.44510  Biso   1.000  C
  H21      1.0000 0.88900  0.41900  0.99700  Biso   1.000  H
  H22      1.0000 0.11100  0.91900  0.50300  Biso   1.000  H
  H23      1.0000 0.11100  0.58100  0.00300  Biso   1.000  H
  H24      1.0000 0.88900  0.08100  0.49700  Biso   1.000  H
