data_image0
_cell_length_a       20.076
_cell_length_b       6.943
_cell_length_c       7.675
_cell_angle_alpha    90
_cell_angle_beta     100.344
_cell_angle_gamma    90

_symmetry_space_group_name_H-M    "P 1"
_symmetry_int_tables_number       1

loop_
  _symmetry_equiv_pos_as_xyz
  'x, y, z'

loop_
  _atom_site_label
  _atom_site_occupancy
  _atom_site_fract_x
  _atom_site_fract_y
  _atom_site_fract_z
  _atom_site_thermal_displace_type
  _atom_site_B_iso_or_equiv
  _atom_site_type_symbol
  Cu1      1.0000 0.00000  0.00000  0.00000  Biso   1.000  Cu
  Cu2      1.0000 0.00000  0.50000  0.50000  Biso   1.000  Cu
  Br1      1.0000 0.04909  0.20716  0.24644  Biso   1.000  Br
  Br2      1.0000 0.95091  0.70716  0.25356  Biso   1.000  Br
  Br3      1.0000 0.95091  0.79284  0.75356  Biso   1.000  Br
  Br4      1.0000 0.04909  0.29284  0.74644  Biso   1.000  Br
  C1       1.0000 0.09880  0.67590  0.05410  Biso   1.000  C
  C2       1.0000 0.90120  0.17590  0.44590  Biso   1.000  C
  C3       1.0000 0.90120  0.32410  0.94590  Biso   1.000  C
  C4       1.0000 0.09880  0.82410  0.55410  Biso   1.000  C
  H1       1.0000 0.07200  0.59400  0.08100  Biso   1.000  H
  H2       1.0000 0.92800  0.09400  0.41900  Biso   1.000  H
  H3       1.0000 0.92800  0.40600  0.91900  Biso   1.000  H
  H4       1.0000 0.07200  0.90600  0.58100  Biso   1.000  H
  N1       1.0000 0.08698  0.85870  0.02390  Biso   1.000  N
  N2       1.0000 0.91302  0.35870  0.47610  Biso   1.000  N
  N3       1.0000 0.91302  0.14130  0.97610  Biso   1.000  N
  N4       1.0000 0.08698  0.64130  0.52390  Biso   1.000  N
  N5       1.0000 0.19368  0.81210  0.04050  Biso   1.000  N
  N6       1.0000 0.80632  0.31210  0.45950  Biso   1.000  N
  N7       1.0000 0.80632  0.18790  0.95950  Biso   1.000  N
  N8       1.0000 0.19368  0.68790  0.54050  Biso   1.000  N
  N9       1.0000 0.14680  0.94120  0.01560  Biso   1.000  N
  N10      1.0000 0.85320  0.44120  0.48440  Biso   1.000  N
  N11      1.0000 0.85320  0.05880  0.98440  Biso   1.000  N
  N12      1.0000 0.14680  0.55880  0.51560  Biso   1.000  N
  N13      1.0000 0.16390  0.64350  0.06530  Biso   1.000  N
  N14      1.0000 0.83610  0.14350  0.43470  Biso   1.000  N
  N15      1.0000 0.83610  0.35650  0.93470  Biso   1.000  N
  N16      1.0000 0.16390  0.85650  0.56530  Biso   1.000  N
  C5       1.0000 0.20220  0.46390  0.10350  Biso   1.000  C
  C6       1.0000 0.79780  0.96390  0.39650  Biso   1.000  C
  C7       1.0000 0.79780  0.53610  0.89650  Biso   1.000  C
  C8       1.0000 0.20220  0.03610  0.60350  Biso   1.000  C
  H5       1.0000 0.17500  0.38100  0.12800  Biso   1.000  H
  H6       1.0000 0.82500  0.88100  0.37200  Biso   1.000  H
  H7       1.0000 0.82500  0.61900  0.87200  Biso   1.000  H
  H8       1.0000 0.17500  0.11900  0.62800  Biso   1.000  H
  H9       1.0000 0.23400  0.48500  0.21100  Biso   1.000  H
  H10      1.0000 0.76600  0.98500  0.28900  Biso   1.000  H
  H11      1.0000 0.76600  0.51500  0.78900  Biso   1.000  H
  H12      1.0000 0.23400  0.01500  0.71100  Biso   1.000  H
  C9       1.0000 0.24100  0.40760  0.96380  Biso   1.000  C
  C10      1.0000 0.75900  0.90760  0.53620  Biso   1.000  C
  C11      1.0000 0.75900  0.59240  0.03620  Biso   1.000  C
  C12      1.0000 0.24100  0.09240  0.46380  Biso   1.000  C
  H13      1.0000 0.21300  0.43100  0.85500  Biso   1.000  H
  H14      1.0000 0.78700  0.93100  0.64500  Biso   1.000  H
  H15      1.0000 0.78700  0.56900  0.14500  Biso   1.000  H
  H16      1.0000 0.21300  0.06900  0.35500  Biso   1.000  H
  H17      1.0000 0.25400  0.26600  0.99200  Biso   1.000  H
  H18      1.0000 0.74600  0.76600  0.50800  Biso   1.000  H
  H19      1.0000 0.74600  0.73400  0.00800  Biso   1.000  H
  H20      1.0000 0.25400  0.23400  0.49200  Biso   1.000  H
  C13      1.0000 0.30590  0.51460  0.96030  Biso   1.000  C
  C14      1.0000 0.69410  0.01460  0.53970  Biso   1.000  C
  C15      1.0000 0.69410  0.48540  0.03970  Biso   1.000  C
  C16      1.0000 0.30590  0.98540  0.46030  Biso   1.000  C
  H21      1.0000 0.33800  0.50800  0.08400  Biso   1.000  H
  H22      1.0000 0.66200  0.00800  0.41600  Biso   1.000  H
  H23      1.0000 0.66200  0.49200  0.91600  Biso   1.000  H
  H24      1.0000 0.33800  0.99200  0.58400  Biso   1.000  H
  H25      1.0000 0.30000  0.64800  0.94400  Biso   1.000  H
  H26      1.0000 0.70000  0.14800  0.55600  Biso   1.000  H
  H27      1.0000 0.70000  0.35200  0.05600  Biso   1.000  H
  H28      1.0000 0.30000  0.85200  0.44400  Biso   1.000  H
  C17      1.0000 0.34240  0.44800  0.81510  Biso   1.000  C
  C18      1.0000 0.65760  0.94800  0.68490  Biso   1.000  C
  C19      1.0000 0.65760  0.55200  0.18490  Biso   1.000  C
  C20      1.0000 0.34240  0.05200  0.31510  Biso   1.000  C
  H29      1.0000 0.36200  0.32700  0.85600  Biso   1.000  H
  H30      1.0000 0.63800  0.82700  0.64400  Biso   1.000  H
  H31      1.0000 0.63800  0.67300  0.14400  Biso   1.000  H
  H32      1.0000 0.36200  0.17300  0.35600  Biso   1.000  H
  H33      1.0000 0.30800  0.45200  0.67500  Biso   1.000  H
  H34      1.0000 0.69200  0.95200  0.82500  Biso   1.000  H
  H35      1.0000 0.69200  0.54800  0.32500  Biso   1.000  H
  H36      1.0000 0.30800  0.04800  0.17500  Biso   1.000  H
  C21      1.0000 0.40780  0.54820  0.81330  Biso   1.000  C
  C22      1.0000 0.59220  0.04820  0.68670  Biso   1.000  C
  C23      1.0000 0.59220  0.45180  0.18670  Biso   1.000  C
  C24      1.0000 0.40780  0.95180  0.31330  Biso   1.000  C
  H37      1.0000 0.41200  0.68500  0.80000  Biso   1.000  H
  H38      1.0000 0.58800  0.18500  0.70000  Biso   1.000  H
  H39      1.0000 0.58800  0.31500  0.20000  Biso   1.000  H
  H40      1.0000 0.41200  0.81500  0.30000  Biso   1.000  H
  H41      1.0000 0.44200  0.55000  0.92500  Biso   1.000  H
  H42      1.0000 0.55800  0.05000  0.57500  Biso   1.000  H
  H43      1.0000 0.55800  0.45000  0.07500  Biso   1.000  H
  H44      1.0000 0.44200  0.95000  0.42500  Biso   1.000  H
  C25      1.0000 0.44000  0.47900  0.66000  Biso   1.000  C
  C26      1.0000 0.56000  0.97900  0.84000  Biso   1.000  C
  C27      1.0000 0.56000  0.52100  0.34000  Biso   1.000  C
  C28      1.0000 0.44000  0.02100  0.16000  Biso   1.000  C
  H45      1.0000 0.47100  0.52100  0.66400  Biso   1.000  H
  H46      1.0000 0.52900  0.02100  0.83600  Biso   1.000  H
  H47      1.0000 0.52900  0.47900  0.33600  Biso   1.000  H
  H48      1.0000 0.47100  0.97900  0.16400  Biso   1.000  H
  H49      1.0000 0.40400  0.60000  0.55000  Biso   1.000  H
  H50      1.0000 0.59600  0.10000  0.95000  Biso   1.000  H
  H51      1.0000 0.59600  0.40000  0.45000  Biso   1.000  H
  H52      1.0000 0.40400  0.90000  0.05000  Biso   1.000  H
  H53      1.0000 0.45900  0.35900  0.68700  Biso   1.000  H
  H54      1.0000 0.54100  0.85900  0.81300  Biso   1.000  H
  H55      1.0000 0.54100  0.64100  0.31300  Biso   1.000  H
  H56      1.0000 0.45900  0.14100  0.18700  Biso   1.000  H
