data_image0
_cell_length_a       17.0586
_cell_length_b       8.5289
_cell_length_c       24.8249
_cell_angle_alpha    90
_cell_angle_beta     101.431
_cell_angle_gamma    90

_symmetry_space_group_name_H-M    "P 1"
_symmetry_int_tables_number       1

loop_
  _symmetry_equiv_pos_as_xyz
  'x, y, z'

loop_
  _atom_site_label
  _atom_site_occupancy
  _atom_site_fract_x
  _atom_site_fract_y
  _atom_site_fract_z
  _atom_site_thermal_displace_type
  _atom_site_B_iso_or_equiv
  _atom_site_type_symbol
  Cu1      1.0000 0.49396  0.51736  0.59920  Biso   1.000  Cu
  Cu2      1.0000 0.50604  0.01736  0.90080  Biso   1.000  Cu
  Cu3      1.0000 0.50604  0.48264  0.40080  Biso   1.000  Cu
  Cu4      1.0000 0.49396  0.98264  0.09920  Biso   1.000  Cu
  O1       1.0000 0.38597  0.43390  0.58434  Biso   1.000  O
  O2       1.0000 0.61403  0.93390  0.91566  Biso   1.000  O
  O3       1.0000 0.61403  0.56610  0.41566  Biso   1.000  O
  O4       1.0000 0.38597  0.06610  0.08434  Biso   1.000  O
  O5       1.0000 0.36751  0.60830  0.51632  Biso   1.000  O
  O6       1.0000 0.63249  0.10830  0.98368  Biso   1.000  O
  O7       1.0000 0.63249  0.39170  0.48368  Biso   1.000  O
  O8       1.0000 0.36751  0.89170  0.01632  Biso   1.000  O
  O9       1.0000 0.90749  0.12140  0.49904  Biso   1.000  O
  O10      1.0000 0.09251  0.62140  0.00096  Biso   1.000  O
  O11      1.0000 0.09251  0.87860  0.50096  Biso   1.000  O
  O12      1.0000 0.90749  0.37860  0.99904  Biso   1.000  O
  O13      1.0000 0.78767  0.31940  0.35319  Biso   1.000  O
  O14      1.0000 0.21233  0.81940  0.14681  Biso   1.000  O
  O15      1.0000 0.21233  0.68060  0.64681  Biso   1.000  O
  O16      1.0000 0.78767  0.18060  0.85319  Biso   1.000  O
  O17      1.0000 0.60299  0.59060  0.61634  Biso   1.000  O
  O18      1.0000 0.39701  0.09060  0.88366  Biso   1.000  O
  O19      1.0000 0.39701  0.40940  0.38366  Biso   1.000  O
  O20      1.0000 0.60299  0.90940  0.11634  Biso   1.000  O
  O21      1.0000 0.58603  0.74120  0.54181  Biso   1.000  O
  O22      1.0000 0.41397  0.24120  0.95819  Biso   1.000  O
  O23      1.0000 0.41397  0.25880  0.45819  Biso   1.000  O
  O24      1.0000 0.58603  0.75880  0.04181  Biso   1.000  O
  O25      1.0000 0.06507  0.06170  0.62687  Biso   1.000  O
  O26      1.0000 0.93493  0.56170  0.87313  Biso   1.000  O
  O27      1.0000 0.93493  0.93830  0.37313  Biso   1.000  O
  O28      1.0000 0.06507  0.43830  0.12687  Biso   1.000  O
  O29      1.0000 0.18499  0.86840  0.77257  Biso   1.000  O
  O30      1.0000 0.81501  0.36840  0.72743  Biso   1.000  O
  O31      1.0000 0.81501  0.13160  0.22743  Biso   1.000  O
  O32      1.0000 0.18499  0.63160  0.27257  Biso   1.000  O
  O33      1.0000 0.47008  0.84860  0.81977  Biso   1.000  O
  O34      1.0000 0.52992  0.34860  0.68023  Biso   1.000  O
  O35      1.0000 0.52992  0.15140  0.18023  Biso   1.000  O
  O36      1.0000 0.47008  0.65140  0.31977  Biso   1.000  O
  O37      1.0000 0.52061  0.36390  0.54628  Biso   1.000  O
  O38      1.0000 0.47939  0.86390  0.95372  Biso   1.000  O
  O39      1.0000 0.47939  0.63610  0.45372  Biso   1.000  O
  O40      1.0000 0.52061  0.13610  0.04628  Biso   1.000  O
  H1       1.0000 0.56050  0.38300  0.53220  Biso   1.000  H
  H2       1.0000 0.43950  0.88300  0.96780  Biso   1.000  H
  H3       1.0000 0.43950  0.61700  0.46780  Biso   1.000  H
  H4       1.0000 0.56050  0.11700  0.03220  Biso   1.000  H
  H5       1.0000 0.48400  0.33300  0.52100  Biso   1.000  H
  H6       1.0000 0.51600  0.83300  0.97900  Biso   1.000  H
  H7       1.0000 0.51600  0.66700  0.47900  Biso   1.000  H
  H8       1.0000 0.48400  0.16700  0.02100  Biso   1.000  H
  N1       1.0000 0.02254  0.29330  0.48185  Biso   1.000  N
  N2       1.0000 0.97746  0.79330  0.01815  Biso   1.000  N
  N3       1.0000 0.97746  0.70670  0.51815  Biso   1.000  N
  N4       1.0000 0.02254  0.20670  0.98185  Biso   1.000  N
  H9       1.0000 0.00140  0.23000  0.50280  Biso   1.000  H
  H10      1.0000 0.99860  0.73000  0.99720  Biso   1.000  H
  H11      1.0000 0.99860  0.77000  0.49720  Biso   1.000  H
  H12      1.0000 0.00140  0.27000  0.00280  Biso   1.000  H
  N5       1.0000 0.97372  0.34470  0.43803  Biso   1.000  N
  N6       1.0000 0.02628  0.84470  0.06197  Biso   1.000  N
  N7       1.0000 0.02628  0.65530  0.56197  Biso   1.000  N
  N8       1.0000 0.97372  0.15530  0.93803  Biso   1.000  N
  N9       1.0000 0.94860  0.89590  0.64613  Biso   1.000  N
  N10      1.0000 0.05140  0.39590  0.85387  Biso   1.000  N
  N11      1.0000 0.05140  0.10410  0.35387  Biso   1.000  N
  N12      1.0000 0.94860  0.60410  0.14613  Biso   1.000  N
  H13      1.0000 0.96720  0.96800  0.62700  Biso   1.000  H
  H14      1.0000 0.03280  0.46800  0.87300  Biso   1.000  H
  H15      1.0000 0.03280  0.03200  0.37300  Biso   1.000  H
  H16      1.0000 0.96720  0.53200  0.12700  Biso   1.000  H
  N13      1.0000 0.99542  0.85520  0.69171  Biso   1.000  N
  N14      1.0000 0.00458  0.35520  0.80829  Biso   1.000  N
  N15      1.0000 0.00458  0.14480  0.30829  Biso   1.000  N
  N16      1.0000 0.99542  0.64480  0.19171  Biso   1.000  N
  N17      1.0000 0.45847  0.69680  0.64261  Biso   1.000  N
  N18      1.0000 0.54153  0.19680  0.85739  Biso   1.000  N
  N19      1.0000 0.54153  0.30320  0.35739  Biso   1.000  N
  N20      1.0000 0.45847  0.80320  0.14261  Biso   1.000  N
  N21      1.0000 0.38353  0.64570  0.80156  Biso   1.000  N
  N22      1.0000 0.61647  0.14570  0.69844  Biso   1.000  N
  N23      1.0000 0.61647  0.35430  0.19844  Biso   1.000  N
  N24      1.0000 0.38353  0.85430  0.30156  Biso   1.000  N
  C1       1.0000 0.34316  0.50160  0.54298  Biso   1.000  C
  C2       1.0000 0.65684  0.00160  0.95702  Biso   1.000  C
  C3       1.0000 0.65684  0.49840  0.45702  Biso   1.000  C
  C4       1.0000 0.34316  0.99840  0.04298  Biso   1.000  C
  C5       1.0000 0.25803  0.44820  0.52657  Biso   1.000  C
  C6       1.0000 0.74197  0.94820  0.97343  Biso   1.000  C
  C7       1.0000 0.74197  0.55180  0.47343  Biso   1.000  C
  C8       1.0000 0.25803  0.05180  0.02657  Biso   1.000  C
  C9       1.0000 0.20856  0.51100  0.48070  Biso   1.000  C
  C10      1.0000 0.79144  0.01100  0.01930  Biso   1.000  C
  C11      1.0000 0.79144  0.48900  0.51930  Biso   1.000  C
  C12      1.0000 0.20856  0.98900  0.98070  Biso   1.000  C
  H17      1.0000 0.22870  0.58680  0.46020  Biso   1.000  H
  H18      1.0000 0.77130  0.08680  0.03980  Biso   1.000  H
  H19      1.0000 0.77130  0.41320  0.53980  Biso   1.000  H
  H20      1.0000 0.22870  0.91320  0.96020  Biso   1.000  H
  C13      1.0000 0.13017  0.46390  0.46470  Biso   1.000  C
  C14      1.0000 0.86983  0.96390  0.03530  Biso   1.000  C
  C15      1.0000 0.86983  0.53610  0.53530  Biso   1.000  C
  C16      1.0000 0.13017  0.03610  0.96470  Biso   1.000  C
  H21      1.0000 0.09730  0.50780  0.43400  Biso   1.000  H
  H22      1.0000 0.90270  0.00780  0.06600  Biso   1.000  H
  H23      1.0000 0.90270  0.49220  0.56600  Biso   1.000  H
  H24      1.0000 0.09730  0.99220  0.93400  Biso   1.000  H
  C17      1.0000 0.10120  0.34920  0.49539  Biso   1.000  C
  C18      1.0000 0.89880  0.84920  0.00461  Biso   1.000  C
  C19      1.0000 0.89880  0.65080  0.50461  Biso   1.000  C
  C20      1.0000 0.10120  0.15080  0.99539  Biso   1.000  C
  C21      1.0000 0.14959  0.28530  0.54144  Biso   1.000  C
  C22      1.0000 0.85041  0.78530  0.95856  Biso   1.000  C
  C23      1.0000 0.85041  0.71470  0.45856  Biso   1.000  C
  C24      1.0000 0.14959  0.21470  0.04144  Biso   1.000  C
  H25      1.0000 0.12950  0.20960  0.56200  Biso   1.000  H
  H26      1.0000 0.87050  0.70960  0.93800  Biso   1.000  H
  H27      1.0000 0.87050  0.79040  0.43800  Biso   1.000  H
  H28      1.0000 0.12950  0.29040  0.06200  Biso   1.000  H
  C25      1.0000 0.22789  0.33450  0.55682  Biso   1.000  C
  C26      1.0000 0.77211  0.83450  0.94318  Biso   1.000  C
  C27      1.0000 0.77211  0.66550  0.44318  Biso   1.000  C
  C28      1.0000 0.22789  0.16550  0.05682  Biso   1.000  C
  H29      1.0000 0.26060  0.29100  0.58760  Biso   1.000  H
  H30      1.0000 0.73940  0.79100  0.91240  Biso   1.000  H
  H31      1.0000 0.73940  0.70900  0.41240  Biso   1.000  H
  H32      1.0000 0.26060  0.20900  0.08760  Biso   1.000  H
  C29      1.0000 0.77850  0.13210  0.44365  Biso   1.000  C
  C30      1.0000 0.22150  0.63210  0.05635  Biso   1.000  C
  C31      1.0000 0.22150  0.86790  0.55635  Biso   1.000  C
  C32      1.0000 0.77850  0.36790  0.94365  Biso   1.000  C
  H33      1.0000 0.76570  0.06750  0.47240  Biso   1.000  H
  H34      1.0000 0.23430  0.56750  0.02760  Biso   1.000  H
  H35      1.0000 0.23430  0.93250  0.52760  Biso   1.000  H
  H36      1.0000 0.76570  0.43250  0.97240  Biso   1.000  H
  H37      1.0000 0.76910  0.07430  0.40980  Biso   1.000  H
  H38      1.0000 0.23090  0.57430  0.09020  Biso   1.000  H
  H39      1.0000 0.23090  0.92570  0.59020  Biso   1.000  H
  H40      1.0000 0.76910  0.42570  0.90980  Biso   1.000  H
  H41      1.0000 0.74550  0.22410  0.43950  Biso   1.000  H
  H42      1.0000 0.25450  0.72410  0.06050  Biso   1.000  H
  H43      1.0000 0.25450  0.77590  0.56050  Biso   1.000  H
  H44      1.0000 0.74550  0.27590  0.93950  Biso   1.000  H
  C33      1.0000 0.86473  0.17930  0.45812  Biso   1.000  C
  C34      1.0000 0.13527  0.67930  0.04188  Biso   1.000  C
  C35      1.0000 0.13527  0.82070  0.54188  Biso   1.000  C
  C36      1.0000 0.86473  0.32070  0.95812  Biso   1.000  C
  C37      1.0000 0.89949  0.29320  0.42495  Biso   1.000  C
  C38      1.0000 0.10051  0.79320  0.07505  Biso   1.000  C
  C39      1.0000 0.10051  0.70680  0.57505  Biso   1.000  C
  C40      1.0000 0.89949  0.20680  0.92495  Biso   1.000  C
  C41      1.0000 0.85502  0.36300  0.37323  Biso   1.000  C
  C42      1.0000 0.14498  0.86300  0.12677  Biso   1.000  C
  C43      1.0000 0.14498  0.63700  0.62677  Biso   1.000  C
  C44      1.0000 0.85502  0.13700  0.87323  Biso   1.000  C
  C45      1.0000 0.89570  0.48500  0.34495  Biso   1.000  C
  C46      1.0000 0.10430  0.98500  0.15505  Biso   1.000  C
  C47      1.0000 0.10430  0.51500  0.65505  Biso   1.000  C
  C48      1.0000 0.89570  0.01500  0.84495  Biso   1.000  C
  H45      1.0000 0.86040  0.51780  0.31180  Biso   1.000  H
  H46      1.0000 0.13960  0.01780  0.18820  Biso   1.000  H
  H47      1.0000 0.13960  0.48220  0.68820  Biso   1.000  H
  H48      1.0000 0.86040  0.98220  0.81180  Biso   1.000  H
  H49      1.0000 0.94350  0.44180  0.33610  Biso   1.000  H
  H50      1.0000 0.05650  0.94180  0.16390  Biso   1.000  H
  H51      1.0000 0.05650  0.55820  0.66390  Biso   1.000  H
  H52      1.0000 0.94350  0.05820  0.83610  Biso   1.000  H
  H53      1.0000 0.90920  0.57360  0.36890  Biso   1.000  H
  H54      1.0000 0.09080  0.07360  0.13110  Biso   1.000  H
  H55      1.0000 0.09080  0.42640  0.63110  Biso   1.000  H
  H56      1.0000 0.90920  0.92640  0.86890  Biso   1.000  H
  C49      1.0000 0.62698  0.68840  0.58437  Biso   1.000  C
  C50      1.0000 0.37302  0.18840  0.91563  Biso   1.000  C
  C51      1.0000 0.37302  0.31160  0.41563  Biso   1.000  C
  C52      1.0000 0.62698  0.81160  0.08437  Biso   1.000  C
  C53      1.0000 0.71265  0.74150  0.60170  Biso   1.000  C
  C54      1.0000 0.28735  0.24150  0.89830  Biso   1.000  C
  C55      1.0000 0.28735  0.25850  0.39830  Biso   1.000  C
  C56      1.0000 0.71265  0.75850  0.10170  Biso   1.000  C
  C57      1.0000 0.74303  0.85250  0.57086  Biso   1.000  C
  C58      1.0000 0.25697  0.35250  0.92914  Biso   1.000  C
  C59      1.0000 0.25697  0.14750  0.42914  Biso   1.000  C
  C60      1.0000 0.74303  0.64750  0.07086  Biso   1.000  C
  H57      1.0000 0.71040  0.89390  0.53960  Biso   1.000  H
  H58      1.0000 0.28960  0.39390  0.96040  Biso   1.000  H
  H59      1.0000 0.28960  0.10610  0.46040  Biso   1.000  H
  H60      1.0000 0.71040  0.60610  0.03960  Biso   1.000  H
  C61      1.0000 0.82117  0.90250  0.58593  Biso   1.000  C
  C62      1.0000 0.17883  0.40250  0.91407  Biso   1.000  C
  C63      1.0000 0.17883  0.09750  0.41407  Biso   1.000  C
  C64      1.0000 0.82117  0.59750  0.08593  Biso   1.000  C
  H61      1.0000 0.84130  0.97690  0.56490  Biso   1.000  H
  H62      1.0000 0.15870  0.47690  0.93510  Biso   1.000  H
  H63      1.0000 0.15870  0.02310  0.43510  Biso   1.000  H
  H64      1.0000 0.84130  0.52310  0.06490  Biso   1.000  H
  C65      1.0000 0.86936  0.84120  0.63267  Biso   1.000  C
  C66      1.0000 0.13064  0.34120  0.86733  Biso   1.000  C
  C67      1.0000 0.13064  0.15880  0.36733  Biso   1.000  C
  C68      1.0000 0.86936  0.65880  0.13267  Biso   1.000  C
  C69      1.0000 0.83995  0.72960  0.66377  Biso   1.000  C
  C70      1.0000 0.16005  0.22960  0.83623  Biso   1.000  C
  C71      1.0000 0.16005  0.27040  0.33623  Biso   1.000  C
  C72      1.0000 0.83995  0.77040  0.16377  Biso   1.000  C
  H65      1.0000 0.87260  0.68820  0.69500  Biso   1.000  H
  H66      1.0000 0.12740  0.18820  0.80500  Biso   1.000  H
  H67      1.0000 0.12740  0.31180  0.30500  Biso   1.000  H
  H68      1.0000 0.87260  0.81180  0.19500  Biso   1.000  H
  C73      1.0000 0.76182  0.68020  0.64811  Biso   1.000  C
  C74      1.0000 0.23818  0.18020  0.85189  Biso   1.000  C
  C75      1.0000 0.23818  0.31980  0.35189  Biso   1.000  C
  C76      1.0000 0.76182  0.81980  0.14811  Biso   1.000  C
  H69      1.0000 0.74190  0.60490  0.66890  Biso   1.000  H
  H70      1.0000 0.25810  0.10490  0.83110  Biso   1.000  H
  H71      1.0000 0.25810  0.39510  0.33110  Biso   1.000  H
  H72      1.0000 0.74190  0.89510  0.16890  Biso   1.000  H
  C77      1.0000 0.18795  0.07840  0.68823  Biso   1.000  C
  C78      1.0000 0.81205  0.57840  0.81177  Biso   1.000  C
  C79      1.0000 0.81205  0.92160  0.31177  Biso   1.000  C
  C80      1.0000 0.18795  0.42160  0.18823  Biso   1.000  C
  H73      1.0000 0.19980  0.14890  0.66080  Biso   1.000  H
  H74      1.0000 0.80020  0.64890  0.83920  Biso   1.000  H
  H75      1.0000 0.80020  0.85110  0.33920  Biso   1.000  H
  H76      1.0000 0.19980  0.35110  0.16080  Biso   1.000  H
  H77      1.0000 0.22500  0.99250  0.69270  Biso   1.000  H
  H78      1.0000 0.77500  0.49250  0.80730  Biso   1.000  H
  H79      1.0000 0.77500  0.00750  0.30730  Biso   1.000  H
  H80      1.0000 0.22500  0.50750  0.19270  Biso   1.000  H
  H81      1.0000 0.19240  0.13320  0.72250  Biso   1.000  H
  H82      1.0000 0.80760  0.63320  0.77750  Biso   1.000  H
  H83      1.0000 0.80760  0.86680  0.27750  Biso   1.000  H
  H84      1.0000 0.19240  0.36680  0.22250  Biso   1.000  H
  C81      1.0000 0.10464  0.01720  0.67061  Biso   1.000  C
  C82      1.0000 0.89536  0.51720  0.82939  Biso   1.000  C
  C83      1.0000 0.89536  0.98280  0.32939  Biso   1.000  C
  C84      1.0000 0.10464  0.48280  0.17061  Biso   1.000  C
  C85      1.0000 0.06958  0.90840  0.70478  Biso   1.000  C
  C86      1.0000 0.93042  0.40840  0.79522  Biso   1.000  C
  C87      1.0000 0.93042  0.09160  0.29522  Biso   1.000  C
  C88      1.0000 0.06958  0.59160  0.20478  Biso   1.000  C
  C89      1.0000 0.11461  0.84440  0.75726  Biso   1.000  C
  C90      1.0000 0.88539  0.34440  0.74274  Biso   1.000  C
  C91      1.0000 0.88539  0.15560  0.24274  Biso   1.000  C
  C92      1.0000 0.11461  0.65560  0.25726  Biso   1.000  C
  C93      1.0000 0.07110  0.74740  0.79232  Biso   1.000  C
  C94      1.0000 0.92890  0.24740  0.70768  Biso   1.000  C
  C95      1.0000 0.92890  0.25260  0.20768  Biso   1.000  C
  C96      1.0000 0.07110  0.75260  0.29232  Biso   1.000  C
  H85      1.0000 0.10560  0.72820  0.82720  Biso   1.000  H
  H86      1.0000 0.89440  0.22820  0.67280  Biso   1.000  H
  H87      1.0000 0.89440  0.27180  0.17280  Biso   1.000  H
  H88      1.0000 0.10560  0.77180  0.32720  Biso   1.000  H
  H89      1.0000 0.05570  0.64930  0.77440  Biso   1.000  H
  H90      1.0000 0.94430  0.14930  0.72560  Biso   1.000  H
  H91      1.0000 0.94430  0.35070  0.22560  Biso   1.000  H
  H92      1.0000 0.05570  0.85070  0.27440  Biso   1.000  H
  H93      1.0000 0.02430  0.80260  0.79780  Biso   1.000  H
  H94      1.0000 0.97570  0.30260  0.70220  Biso   1.000  H
  H95      1.0000 0.97570  0.19740  0.20220  Biso   1.000  H
  H96      1.0000 0.02430  0.69740  0.29780  Biso   1.000  H
  C97      1.0000 0.44230  0.83930  0.62092  Biso   1.000  C
  C98      1.0000 0.55770  0.33930  0.87908  Biso   1.000  C
  C99      1.0000 0.55770  0.16070  0.37908  Biso   1.000  C
  C100     1.0000 0.44230  0.66070  0.12092  Biso   1.000  C
  H97      1.0000 0.44710  0.85630  0.58470  Biso   1.000  H
  H98      1.0000 0.55290  0.35630  0.91530  Biso   1.000  H
  H99      1.0000 0.55290  0.14370  0.41530  Biso   1.000  H
  H100     1.0000 0.44710  0.64370  0.08470  Biso   1.000  H
  C101     1.0000 0.41883  0.96190  0.65009  Biso   1.000  C
  C102     1.0000 0.58117  0.46190  0.84991  Biso   1.000  C
  C103     1.0000 0.58117  0.03810  0.34991  Biso   1.000  C
  C104     1.0000 0.41883  0.53810  0.15009  Biso   1.000  C
  H101     1.0000 0.40890  0.06030  0.63400  Biso   1.000  H
  H102     1.0000 0.59110  0.56030  0.86600  Biso   1.000  H
  H103     1.0000 0.59110  0.93970  0.36600  Biso   1.000  H
  H104     1.0000 0.40890  0.43970  0.13400  Biso   1.000  H
  C105     1.0000 0.41020  0.93660  0.70357  Biso   1.000  C
  C106     1.0000 0.58980  0.43660  0.79643  Biso   1.000  C
  C107     1.0000 0.58980  0.06340  0.29643  Biso   1.000  C
  C108     1.0000 0.41020  0.56340  0.20357  Biso   1.000  C
  H105     1.0000 0.39410  0.01760  0.72400  Biso   1.000  H
  H106     1.0000 0.60590  0.51760  0.77600  Biso   1.000  H
  H107     1.0000 0.60590  0.98240  0.27600  Biso   1.000  H
  H108     1.0000 0.39410  0.48240  0.22400  Biso   1.000  H
  C109     1.0000 0.42588  0.78840  0.72654  Biso   1.000  C
  C110     1.0000 0.57412  0.28840  0.77346  Biso   1.000  C
  C111     1.0000 0.57412  0.21160  0.27346  Biso   1.000  C
  C112     1.0000 0.42588  0.71160  0.22654  Biso   1.000  C
  C113     1.0000 0.44957  0.67260  0.69416  Biso   1.000  C
  C114     1.0000 0.55043  0.17260  0.80584  Biso   1.000  C
  C115     1.0000 0.55043  0.32740  0.30584  Biso   1.000  C
  C116     1.0000 0.44957  0.82740  0.19416  Biso   1.000  C
  H109     1.0000 0.45980  0.57290  0.70910  Biso   1.000  H
  H110     1.0000 0.54020  0.07290  0.79090  Biso   1.000  H
  H111     1.0000 0.54020  0.42710  0.29090  Biso   1.000  H
  H112     1.0000 0.45980  0.92710  0.20910  Biso   1.000  H
  C117     1.0000 0.42650  0.76270  0.78670  Biso   1.000  C
  C118     1.0000 0.57350  0.26270  0.71330  Biso   1.000  C
  C119     1.0000 0.57350  0.23730  0.21330  Biso   1.000  C
  C120     1.0000 0.42650  0.73730  0.28670  Biso   1.000  C
  C121     1.0000 0.32376  0.55480  0.76355  Biso   1.000  C
  C122     1.0000 0.67624  0.05480  0.73645  Biso   1.000  C
  C123     1.0000 0.67624  0.44520  0.23645  Biso   1.000  C
  C124     1.0000 0.32376  0.94520  0.26355  Biso   1.000  C
  H113     1.0000 0.31360  0.60600  0.72800  Biso   1.000  H
  H114     1.0000 0.68640  0.10600  0.77200  Biso   1.000  H
  H115     1.0000 0.68640  0.39400  0.27200  Biso   1.000  H
  H116     1.0000 0.31360  0.89400  0.22800  Biso   1.000  H
  H117     1.0000 0.27410  0.55450  0.77700  Biso   1.000  H
  H118     1.0000 0.72590  0.05450  0.72300  Biso   1.000  H
  H119     1.0000 0.72590  0.44550  0.22300  Biso   1.000  H
  H120     1.0000 0.27410  0.94550  0.27700  Biso   1.000  H
  C125     1.0000 0.34910  0.38560  0.75645  Biso   1.000  C
  C126     1.0000 0.65090  0.88560  0.74355  Biso   1.000  C
  C127     1.0000 0.65090  0.61440  0.24355  Biso   1.000  C
  C128     1.0000 0.34910  0.11440  0.25645  Biso   1.000  C
  H121     1.0000 0.30770  0.33250  0.73120  Biso   1.000  H
  H122     1.0000 0.69230  0.83250  0.76880  Biso   1.000  H
  H123     1.0000 0.69230  0.66750  0.26880  Biso   1.000  H
  H124     1.0000 0.30770  0.16750  0.23120  Biso   1.000  H
  H125     1.0000 0.35790  0.33320  0.79130  Biso   1.000  H
  H126     1.0000 0.64210  0.83320  0.70870  Biso   1.000  H
  H127     1.0000 0.64210  0.66680  0.20870  Biso   1.000  H
  H128     1.0000 0.35790  0.16680  0.29130  Biso   1.000  H
  H129     1.0000 0.39760  0.38470  0.74230  Biso   1.000  H
  H130     1.0000 0.60240  0.88470  0.75770  Biso   1.000  H
  H131     1.0000 0.60240  0.61530  0.25770  Biso   1.000  H
  H132     1.0000 0.39760  0.11530  0.24230  Biso   1.000  H
  C129     1.0000 0.38618  0.61950  0.86053  Biso   1.000  C
  C130     1.0000 0.61382  0.11950  0.63947  Biso   1.000  C
  C131     1.0000 0.61382  0.38050  0.13947  Biso   1.000  C
  C132     1.0000 0.38618  0.88050  0.36053  Biso   1.000  C
  H133     1.0000 0.43780  0.65290  0.88120  Biso   1.000  H
  H134     1.0000 0.56220  0.15290  0.61880  Biso   1.000  H
  H135     1.0000 0.56220  0.34710  0.11880  Biso   1.000  H
  H136     1.0000 0.43780  0.84710  0.38120  Biso   1.000  H
  H137     1.0000 0.38070  0.50820  0.86700  Biso   1.000  H
  H138     1.0000 0.61930  0.00820  0.63300  Biso   1.000  H
  H139     1.0000 0.61930  0.49180  0.13300  Biso   1.000  H
  H140     1.0000 0.38070  0.99180  0.36700  Biso   1.000  H
  C133     1.0000 0.32118  0.70690  0.88098  Biso   1.000  C
  C134     1.0000 0.67882  0.20690  0.61902  Biso   1.000  C
  C135     1.0000 0.67882  0.29310  0.11902  Biso   1.000  C
  C136     1.0000 0.32118  0.79310  0.38098  Biso   1.000  C
  H141     1.0000 0.32550  0.68710  0.91950  Biso   1.000  H
  H142     1.0000 0.67450  0.18710  0.58050  Biso   1.000  H
  H143     1.0000 0.67450  0.31290  0.08050  Biso   1.000  H
  H144     1.0000 0.32550  0.81290  0.41950  Biso   1.000  H
  H145     1.0000 0.26990  0.67200  0.86140  Biso   1.000  H
  H146     1.0000 0.73010  0.17200  0.63860  Biso   1.000  H
  H147     1.0000 0.73010  0.32800  0.13860  Biso   1.000  H
  H148     1.0000 0.26990  0.82800  0.36140  Biso   1.000  H
  H149     1.0000 0.32670  0.81720  0.87510  Biso   1.000  H
  H150     1.0000 0.67330  0.31720  0.62490  Biso   1.000  H
  H151     1.0000 0.67330  0.18280  0.12490  Biso   1.000  H
  H152     1.0000 0.32670  0.68280  0.37510  Biso   1.000  H
