data_image0
_cell_length_a       10.839
_cell_length_b       13.208
_cell_length_c       19.75
_cell_angle_alpha    90
_cell_angle_beta     90
_cell_angle_gamma    90

_symmetry_space_group_name_H-M    "P 1"
_symmetry_int_tables_number       1

loop_
  _symmetry_equiv_pos_as_xyz
  'x, y, z'

loop_
  _atom_site_label
  _atom_site_occupancy
  _atom_site_fract_x
  _atom_site_fract_y
  _atom_site_fract_z
  _atom_site_thermal_displace_type
  _atom_site_B_iso_or_equiv
  _atom_site_type_symbol
  Cu1      1.0000 0.19712  0.75000  0.75000  Biso   1.000  Cu
  Cu2      1.0000 0.30288  0.25000  0.75000  Biso   1.000  Cu
  Cu3      1.0000 0.80288  0.25000  0.25000  Biso   1.000  Cu
  Cu4      1.0000 0.69712  0.75000  0.25000  Biso   1.000  Cu
  N1       1.0000 0.33230  0.71640  0.68060  Biso   1.000  N
  N2       1.0000 0.16770  0.28360  0.68060  Biso   1.000  N
  N3       1.0000 0.33230  0.78360  0.81940  Biso   1.000  N
  N4       1.0000 0.16770  0.21640  0.81940  Biso   1.000  N
  N5       1.0000 0.66770  0.28360  0.31940  Biso   1.000  N
  N6       1.0000 0.83230  0.71640  0.31940  Biso   1.000  N
  N7       1.0000 0.66770  0.21640  0.18060  Biso   1.000  N
  N8       1.0000 0.83230  0.78360  0.18060  Biso   1.000  N
  C1       1.0000 0.32980  0.62390  0.65140  Biso   1.000  C
  C2       1.0000 0.17020  0.37610  0.65140  Biso   1.000  C
  C3       1.0000 0.32980  0.87610  0.84860  Biso   1.000  C
  C4       1.0000 0.17020  0.12390  0.84860  Biso   1.000  C
  C5       1.0000 0.67020  0.37610  0.34860  Biso   1.000  C
  C6       1.0000 0.82980  0.62390  0.34860  Biso   1.000  C
  C7       1.0000 0.67020  0.12390  0.15140  Biso   1.000  C
  C8       1.0000 0.82980  0.87610  0.15140  Biso   1.000  C
  H1       1.0000 0.26240  0.58210  0.65930  Biso   1.000  H
  H2       1.0000 0.23760  0.41790  0.65930  Biso   1.000  H
  H3       1.0000 0.26240  0.91790  0.84070  Biso   1.000  H
  H4       1.0000 0.23760  0.08210  0.84070  Biso   1.000  H
  H5       1.0000 0.73760  0.41790  0.34070  Biso   1.000  H
  H6       1.0000 0.76240  0.58210  0.34070  Biso   1.000  H
  H7       1.0000 0.73760  0.08210  0.15930  Biso   1.000  H
  H8       1.0000 0.76240  0.91790  0.15930  Biso   1.000  H
  C9       1.0000 0.42320  0.58940  0.61060  Biso   1.000  C
  C10      1.0000 0.07680  0.41060  0.61060  Biso   1.000  C
  C11      1.0000 0.42320  0.91060  0.88940  Biso   1.000  C
  C12      1.0000 0.07680  0.08940  0.88940  Biso   1.000  C
  C13      1.0000 0.57680  0.41060  0.38940  Biso   1.000  C
  C14      1.0000 0.92320  0.58940  0.38940  Biso   1.000  C
  C15      1.0000 0.57680  0.08940  0.11060  Biso   1.000  C
  C16      1.0000 0.92320  0.91060  0.11060  Biso   1.000  C
  H9       1.0000 0.41790  0.52550  0.59110  Biso   1.000  H
  H10      1.0000 0.08210  0.47450  0.59110  Biso   1.000  H
  H11      1.0000 0.41790  0.97450  0.90890  Biso   1.000  H
  H12      1.0000 0.08210  0.02550  0.90890  Biso   1.000  H
  H13      1.0000 0.58210  0.47450  0.40890  Biso   1.000  H
  H14      1.0000 0.91790  0.52550  0.40890  Biso   1.000  H
  H15      1.0000 0.58210  0.02550  0.09110  Biso   1.000  H
  H16      1.0000 0.91790  0.97450  0.09110  Biso   1.000  H
  C17      1.0000 0.52420  0.64900  0.59850  Biso   1.000  C
  C18      1.0000 0.97580  0.35100  0.59850  Biso   1.000  C
  C19      1.0000 0.52420  0.85100  0.90150  Biso   1.000  C
  C20      1.0000 0.97580  0.14900  0.90150  Biso   1.000  C
  C21      1.0000 0.47580  0.35100  0.40150  Biso   1.000  C
  C22      1.0000 0.02420  0.64900  0.40150  Biso   1.000  C
  C23      1.0000 0.47580  0.14900  0.09850  Biso   1.000  C
  C24      1.0000 0.02420  0.85100  0.09850  Biso   1.000  C
  C25      1.0000 0.52810  0.74460  0.62840  Biso   1.000  C
  C26      1.0000 0.97190  0.25540  0.62840  Biso   1.000  C
  C27      1.0000 0.52810  0.75540  0.87160  Biso   1.000  C
  C28      1.0000 0.97190  0.24460  0.87160  Biso   1.000  C
  C29      1.0000 0.47190  0.25540  0.37160  Biso   1.000  C
  C30      1.0000 0.02810  0.74460  0.37160  Biso   1.000  C
  C31      1.0000 0.47190  0.24460  0.12840  Biso   1.000  C
  C32      1.0000 0.02810  0.75540  0.12840  Biso   1.000  C
  H17      1.0000 0.59510  0.78730  0.62130  Biso   1.000  H
  H18      1.0000 0.90490  0.21270  0.62130  Biso   1.000  H
  H19      1.0000 0.59510  0.71270  0.87870  Biso   1.000  H
  H20      1.0000 0.90490  0.28730  0.87870  Biso   1.000  H
  H21      1.0000 0.40490  0.21270  0.37870  Biso   1.000  H
  H22      1.0000 0.09510  0.78730  0.37870  Biso   1.000  H
  H23      1.0000 0.40490  0.28730  0.12130  Biso   1.000  H
  H24      1.0000 0.09510  0.71270  0.12130  Biso   1.000  H
  C33      1.0000 0.43050  0.77490  0.66890  Biso   1.000  C
  C34      1.0000 0.06950  0.22510  0.66890  Biso   1.000  C
  C35      1.0000 0.43050  0.72510  0.83110  Biso   1.000  C
  C36      1.0000 0.06950  0.27490  0.83110  Biso   1.000  C
  C37      1.0000 0.56950  0.22510  0.33110  Biso   1.000  C
  C38      1.0000 0.93050  0.77490  0.33110  Biso   1.000  C
  C39      1.0000 0.56950  0.27490  0.16890  Biso   1.000  C
  C40      1.0000 0.93050  0.72510  0.16890  Biso   1.000  C
  H25      1.0000 0.43350  0.83870  0.68870  Biso   1.000  H
  H26      1.0000 0.06650  0.16130  0.68870  Biso   1.000  H
  H27      1.0000 0.43350  0.66130  0.81130  Biso   1.000  H
  H28      1.0000 0.06650  0.33870  0.81130  Biso   1.000  H
  H29      1.0000 0.56650  0.16130  0.31130  Biso   1.000  H
  H30      1.0000 0.93350  0.83870  0.31130  Biso   1.000  H
  H31      1.0000 0.56650  0.33870  0.18870  Biso   1.000  H
  H32      1.0000 0.93350  0.66130  0.18870  Biso   1.000  H
  S1       1.0000 0.63984  0.59771  0.54553  Biso   1.000  S
  S2       1.0000 0.86016  0.40229  0.54553  Biso   1.000  S
  S3       1.0000 0.63984  0.90229  0.95447  Biso   1.000  S
  S4       1.0000 0.86016  0.09771  0.95447  Biso   1.000  S
  S5       1.0000 0.36016  0.40229  0.45447  Biso   1.000  S
  S6       1.0000 0.13984  0.59771  0.45447  Biso   1.000  S
  S7       1.0000 0.36016  0.09771  0.04553  Biso   1.000  S
  S8       1.0000 0.13984  0.90229  0.04553  Biso   1.000  S
  S9       1.0000 0.75454  0.71398  0.52256  Biso   1.000  S
  S10      1.0000 0.74546  0.28602  0.52256  Biso   1.000  S
  S11      1.0000 0.75454  0.78602  0.97744  Biso   1.000  S
  S12      1.0000 0.74546  0.21398  0.97744  Biso   1.000  S
  S13      1.0000 0.24546  0.28602  0.47744  Biso   1.000  S
  S14      1.0000 0.25454  0.71398  0.47744  Biso   1.000  S
  S15      1.0000 0.24546  0.21398  0.02256  Biso   1.000  S
  S16      1.0000 0.25454  0.78602  0.02256  Biso   1.000  S
  C41      1.0000 0.87280  0.71120  0.58470  Biso   1.000  C
  C42      1.0000 0.62720  0.28880  0.58470  Biso   1.000  C
  C43      1.0000 0.87280  0.78880  0.91530  Biso   1.000  C
  C44      1.0000 0.62720  0.21120  0.91530  Biso   1.000  C
  C45      1.0000 0.12720  0.28880  0.41530  Biso   1.000  C
  C46      1.0000 0.37280  0.71120  0.41530  Biso   1.000  C
  C47      1.0000 0.12720  0.21120  0.08470  Biso   1.000  C
  C48      1.0000 0.37280  0.78880  0.08470  Biso   1.000  C
  C49      1.0000 0.87110  0.65490  0.64420  Biso   1.000  C
  C50      1.0000 0.62890  0.34510  0.64420  Biso   1.000  C
  C51      1.0000 0.87110  0.84510  0.85580  Biso   1.000  C
  C52      1.0000 0.62890  0.15490  0.85580  Biso   1.000  C
  C53      1.0000 0.12890  0.34510  0.35580  Biso   1.000  C
  C54      1.0000 0.37110  0.65490  0.35580  Biso   1.000  C
  C55      1.0000 0.12890  0.15490  0.14420  Biso   1.000  C
  C56      1.0000 0.37110  0.84510  0.14420  Biso   1.000  C
  H33      1.0000 0.80560  0.61170  0.65370  Biso   1.000  H
  H34      1.0000 0.69440  0.38830  0.65370  Biso   1.000  H
  H35      1.0000 0.80560  0.88830  0.84630  Biso   1.000  H
  H36      1.0000 0.69440  0.11170  0.84630  Biso   1.000  H
  H37      1.0000 0.19440  0.38830  0.34630  Biso   1.000  H
  H38      1.0000 0.30560  0.61170  0.34630  Biso   1.000  H
  H39      1.0000 0.19440  0.11170  0.15370  Biso   1.000  H
  H40      1.0000 0.30560  0.88830  0.15370  Biso   1.000  H
  C57      1.0000 0.96810  0.66420  0.68880  Biso   1.000  C
  C58      1.0000 0.53190  0.33580  0.68880  Biso   1.000  C
  C59      1.0000 0.96810  0.83580  0.81120  Biso   1.000  C
  C60      1.0000 0.53190  0.16420  0.81120  Biso   1.000  C
  C61      1.0000 0.03190  0.33580  0.31120  Biso   1.000  C
  C62      1.0000 0.46810  0.66420  0.31120  Biso   1.000  C
  C63      1.0000 0.03190  0.16420  0.18880  Biso   1.000  C
  C64      1.0000 0.46810  0.83580  0.18880  Biso   1.000  C
  H41      1.0000 0.96640  0.62590  0.72830  Biso   1.000  H
  H42      1.0000 0.53360  0.37410  0.72830  Biso   1.000  H
  H43      1.0000 0.96640  0.87410  0.77170  Biso   1.000  H
  H44      1.0000 0.53360  0.12590  0.77170  Biso   1.000  H
  H45      1.0000 0.03360  0.37410  0.27170  Biso   1.000  H
  H46      1.0000 0.46640  0.62590  0.27170  Biso   1.000  H
  H47      1.0000 0.03360  0.12590  0.22830  Biso   1.000  H
  H48      1.0000 0.46640  0.87410  0.22830  Biso   1.000  H
  N9       1.0000 0.06430  0.72510  0.67840  Biso   1.000  N
  N10      1.0000 0.43570  0.27490  0.67840  Biso   1.000  N
  N11      1.0000 0.06430  0.77490  0.82160  Biso   1.000  N
  N12      1.0000 0.43570  0.22510  0.82160  Biso   1.000  N
  N13      1.0000 0.93570  0.27490  0.32160  Biso   1.000  N
  N14      1.0000 0.56430  0.72510  0.32160  Biso   1.000  N
  N15      1.0000 0.93570  0.22510  0.17840  Biso   1.000  N
  N16      1.0000 0.56430  0.77490  0.17840  Biso   1.000  N
  C65      1.0000 0.06600  0.77890  0.61980  Biso   1.000  C
  C66      1.0000 0.43400  0.22110  0.61980  Biso   1.000  C
  C67      1.0000 0.06600  0.72110  0.88020  Biso   1.000  C
  C68      1.0000 0.43400  0.27890  0.88020  Biso   1.000  C
  C69      1.0000 0.93400  0.22110  0.38020  Biso   1.000  C
  C70      1.0000 0.56600  0.77890  0.38020  Biso   1.000  C
  C71      1.0000 0.93400  0.27890  0.11980  Biso   1.000  C
  C72      1.0000 0.56600  0.72110  0.11980  Biso   1.000  C
  H49      1.0000 0.13260  0.82150  0.61160  Biso   1.000  H
  H50      1.0000 0.36740  0.17850  0.61160  Biso   1.000  H
  H51      1.0000 0.13260  0.67850  0.88840  Biso   1.000  H
  H52      1.0000 0.36740  0.32150  0.88840  Biso   1.000  H
  H53      1.0000 0.86740  0.17850  0.38840  Biso   1.000  H
  H54      1.0000 0.63260  0.82150  0.38840  Biso   1.000  H
  H55      1.0000 0.86740  0.32150  0.11160  Biso   1.000  H
  H56      1.0000 0.63260  0.67850  0.11160  Biso   1.000  H
  C73      1.0000 0.97410  0.77320  0.57220  Biso   1.000  C
  C74      1.0000 0.52590  0.22680  0.57220  Biso   1.000  C
  C75      1.0000 0.97410  0.72680  0.92780  Biso   1.000  C
  C76      1.0000 0.52590  0.27320  0.92780  Biso   1.000  C
  C77      1.0000 0.02590  0.22680  0.42780  Biso   1.000  C
  C78      1.0000 0.47410  0.77320  0.42780  Biso   1.000  C
  C79      1.0000 0.02590  0.27320  0.07220  Biso   1.000  C
  C80      1.0000 0.47410  0.72680  0.07220  Biso   1.000  C
  H57      1.0000 0.97930  0.81030  0.53230  Biso   1.000  H
  H58      1.0000 0.52070  0.18970  0.53230  Biso   1.000  H
  H59      1.0000 0.97930  0.68970  0.96770  Biso   1.000  H
  H60      1.0000 0.52070  0.31030  0.96770  Biso   1.000  H
  H61      1.0000 0.02070  0.18970  0.46770  Biso   1.000  H
  H62      1.0000 0.47930  0.81030  0.46770  Biso   1.000  H
  H63      1.0000 0.02070  0.31030  0.03230  Biso   1.000  H
  H64      1.0000 0.47930  0.68970  0.03230  Biso   1.000  H
  N17      1.0000 0.25000  0.00000  0.71470  Biso   1.000  N
  N18      1.0000 0.25000  0.50000  0.78530  Biso   1.000  N
  N19      1.0000 0.75000  0.00000  0.28530  Biso   1.000  N
  N20      1.0000 0.75000  0.50000  0.21470  Biso   1.000  N
  N21      1.0000 0.18840  0.92780  0.71550  Biso   1.000  N
  N22      1.0000 0.31160  0.07220  0.71550  Biso   1.000  N
  N23      1.0000 0.18840  0.57220  0.78450  Biso   1.000  N
  N24      1.0000 0.31160  0.42780  0.78450  Biso   1.000  N
  N25      1.0000 0.81160  0.07220  0.28450  Biso   1.000  N
  N26      1.0000 0.68840  0.92780  0.28450  Biso   1.000  N
  N27      1.0000 0.81160  0.42780  0.21550  Biso   1.000  N
  N28      1.0000 0.68840  0.57220  0.21550  Biso   1.000  N
  Cl1      1.0000 0.75000  0.50000  0.81300  Biso   1.000  Cl
  Cl2      1.0000 0.75000  0.00000  0.68700  Biso   1.000  Cl
  Cl3      1.0000 0.25000  0.50000  0.18700  Biso   1.000  Cl
  Cl4      1.0000 0.25000  0.00000  0.31300  Biso   1.000  Cl
  O1       1.0000 0.82020  0.45390  0.76330  Biso   1.000  O
  O2       1.0000 0.67980  0.54610  0.76330  Biso   1.000  O
  O3       1.0000 0.82020  0.04610  0.73670  Biso   1.000  O
  O4       1.0000 0.67980  0.95390  0.73670  Biso   1.000  O
  O5       1.0000 0.17980  0.54610  0.23670  Biso   1.000  O
  O6       1.0000 0.32020  0.45390  0.23670  Biso   1.000  O
  O7       1.0000 0.17980  0.95390  0.26330  Biso   1.000  O
  O8       1.0000 0.32020  0.04610  0.26330  Biso   1.000  O
  O9       1.0000 0.79270  0.58900  0.83460  Biso   1.000  O
  O10      1.0000 0.70730  0.41100  0.83460  Biso   1.000  O
  O11      1.0000 0.79270  0.91100  0.66540  Biso   1.000  O
  O12      1.0000 0.70730  0.08900  0.66540  Biso   1.000  O
  O13      1.0000 0.20730  0.41100  0.16540  Biso   1.000  O
  O14      1.0000 0.29270  0.58900  0.16540  Biso   1.000  O
  O15      1.0000 0.20730  0.08900  0.33460  Biso   1.000  O
  O16      1.0000 0.29270  0.91100  0.33460  Biso   1.000  O
  O17      1.0000 0.87710  0.50300  0.82200  Biso   1.000  O
  O18      1.0000 0.62290  0.49700  0.82200  Biso   1.000  O
  O19      1.0000 0.87710  0.99700  0.67800  Biso   1.000  O
  O20      1.0000 0.62290  0.00300  0.67800  Biso   1.000  O
  O21      1.0000 0.12290  0.49700  0.17800  Biso   1.000  O
  O22      1.0000 0.37710  0.50300  0.17800  Biso   1.000  O
  O23      1.0000 0.12290  0.00300  0.32200  Biso   1.000  O
  O24      1.0000 0.37710  0.99700  0.32200  Biso   1.000  O
  O25      1.0000 0.68700  0.52500  0.87100  Biso   1.000  O
  O26      1.0000 0.81300  0.47500  0.87100  Biso   1.000  O
  O27      1.0000 0.68700  0.97500  0.62900  Biso   1.000  O
  O28      1.0000 0.81300  0.02500  0.62900  Biso   1.000  O
  O29      1.0000 0.31300  0.47500  0.12900  Biso   1.000  O
  O30      1.0000 0.18700  0.52500  0.12900  Biso   1.000  O
  O31      1.0000 0.31300  0.02500  0.37100  Biso   1.000  O
  O32      1.0000 0.18700  0.97500  0.37100  Biso   1.000  O
  O33      1.0000 0.88100  0.97300  0.44710  Biso   1.000  O
  O34      1.0000 0.61900  0.02700  0.44710  Biso   1.000  O
  O35      1.0000 0.88100  0.52700  0.05290  Biso   1.000  O
  O36      1.0000 0.61900  0.47300  0.05290  Biso   1.000  O
  O37      1.0000 0.11900  0.02700  0.55290  Biso   1.000  O
  O38      1.0000 0.38100  0.97300  0.55290  Biso   1.000  O
  O39      1.0000 0.11900  0.47300  0.94710  Biso   1.000  O
  O40      1.0000 0.38100  0.52700  0.94710  Biso   1.000  O
  O41      1.0000 0.98900  0.02800  0.54840  Biso   1.000  O
  O42      1.0000 0.51100  0.97200  0.54840  Biso   1.000  O
  O43      1.0000 0.98900  0.47200  0.95160  Biso   1.000  O
  O44      1.0000 0.51100  0.52800  0.95160  Biso   1.000  O
  O45      1.0000 0.01100  0.97200  0.45160  Biso   1.000  O
  O46      1.0000 0.48900  0.02800  0.45160  Biso   1.000  O
  O47      1.0000 0.01100  0.52800  0.04840  Biso   1.000  O
  O48      1.0000 0.48900  0.47200  0.04840  Biso   1.000  O
  O49      1.0000 0.75000  0.00000  0.47500  Biso   1.000  O
  O50      1.0000 0.75000  0.50000  0.02500  Biso   1.000  O
  O51      1.0000 0.25000  0.00000  0.52500  Biso   1.000  O
  O52      1.0000 0.25000  0.50000  0.97500  Biso   1.000  O
