data_image0
_cell_length_a       22.276
_cell_length_b       8.0625
_cell_length_c       15.773
_cell_angle_alpha    90
_cell_angle_beta     123.757
_cell_angle_gamma    90

_symmetry_space_group_name_H-M    "P 1"
_symmetry_int_tables_number       1

loop_
  _symmetry_equiv_pos_as_xyz
  'x, y, z'

loop_
  _atom_site_label
  _atom_site_occupancy
  _atom_site_fract_x
  _atom_site_fract_y
  _atom_site_fract_z
  _atom_site_thermal_displace_type
  _atom_site_B_iso_or_equiv
  _atom_site_type_symbol
  Cu1      1.0000 0.50000  0.74249  0.25000  Biso   1.000  Cu
  Cu2      1.0000 0.00000  0.24249  0.25000  Biso   1.000  Cu
  Cu3      1.0000 0.50000  0.25751  0.75000  Biso   1.000  Cu
  Cu4      1.0000 0.00000  0.75751  0.75000  Biso   1.000  Cu
  F1       1.0000 0.41305  0.25470  0.15265  Biso   1.000  F
  F2       1.0000 0.58695  0.25470  0.34735  Biso   1.000  F
  F3       1.0000 0.91305  0.75470  0.15265  Biso   1.000  F
  F4       1.0000 0.08695  0.75470  0.34735  Biso   1.000  F
  F5       1.0000 0.58695  0.74530  0.84735  Biso   1.000  F
  F6       1.0000 0.41305  0.74530  0.65265  Biso   1.000  F
  F7       1.0000 0.08695  0.24530  0.84735  Biso   1.000  F
  F8       1.0000 0.91305  0.24530  0.65265  Biso   1.000  F
  F9       1.0000 0.50000  0.46460  0.25000  Biso   1.000  F
  F10      1.0000 0.00000  0.96460  0.25000  Biso   1.000  F
  F11      1.0000 0.50000  0.53540  0.75000  Biso   1.000  F
  F12      1.0000 0.00000  0.03540  0.75000  Biso   1.000  F
  F13      1.0000 0.52519  0.25362  0.16853  Biso   1.000  F
  F14      1.0000 0.47481  0.25362  0.33147  Biso   1.000  F
  F15      1.0000 0.02519  0.75362  0.16853  Biso   1.000  F
  F16      1.0000 0.97481  0.75362  0.33147  Biso   1.000  F
  F17      1.0000 0.47481  0.74638  0.83147  Biso   1.000  F
  F18      1.0000 0.52519  0.74638  0.66853  Biso   1.000  F
  F19      1.0000 0.97481  0.24638  0.83147  Biso   1.000  F
  F20      1.0000 0.02519  0.24638  0.66853  Biso   1.000  F
  F21      1.0000 0.50000  0.04030  0.25000  Biso   1.000  F
  F22      1.0000 0.00000  0.54030  0.25000  Biso   1.000  F
  F23      1.0000 0.50000  0.95970  0.75000  Biso   1.000  F
  F24      1.0000 0.00000  0.45970  0.75000  Biso   1.000  F
  O1       1.0000 0.28725  0.39870  0.25902  Biso   1.000  O
  O2       1.0000 0.71275  0.39870  0.24098  Biso   1.000  O
  O3       1.0000 0.78725  0.89870  0.25902  Biso   1.000  O
  O4       1.0000 0.21275  0.89870  0.24098  Biso   1.000  O
  O5       1.0000 0.71275  0.60130  0.74098  Biso   1.000  O
  O6       1.0000 0.28725  0.60130  0.75902  Biso   1.000  O
  O7       1.0000 0.21275  0.10130  0.74098  Biso   1.000  O
  O8       1.0000 0.78725  0.10130  0.75902  Biso   1.000  O
  N1       1.0000 0.44068  0.74550  0.31189  Biso   1.000  N
  N2       1.0000 0.55932  0.74550  0.18811  Biso   1.000  N
  N3       1.0000 0.94068  0.24550  0.31189  Biso   1.000  N
  N4       1.0000 0.05932  0.24550  0.18811  Biso   1.000  N
  N5       1.0000 0.55932  0.25450  0.68811  Biso   1.000  N
  N6       1.0000 0.44068  0.25450  0.81189  Biso   1.000  N
  N7       1.0000 0.05932  0.75450  0.68811  Biso   1.000  N
  N8       1.0000 0.94068  0.75450  0.81189  Biso   1.000  N
  N9       1.0000 0.40850  0.25340  0.60639  Biso   1.000  N
  N10      1.0000 0.59150  0.25340  0.89361  Biso   1.000  N
  N11      1.0000 0.90850  0.75340  0.60639  Biso   1.000  N
  N12      1.0000 0.09150  0.75340  0.89361  Biso   1.000  N
  N13      1.0000 0.59150  0.74660  0.39361  Biso   1.000  N
  N14      1.0000 0.40850  0.74660  0.10639  Biso   1.000  N
  N15      1.0000 0.09150  0.24660  0.39361  Biso   1.000  N
  N16      1.0000 0.90850  0.24660  0.10639  Biso   1.000  N
  C1       1.0000 0.44339  0.87520  0.36825  Biso   1.000  C
  C2       1.0000 0.55661  0.87520  0.13175  Biso   1.000  C
  C3       1.0000 0.94339  0.37520  0.36825  Biso   1.000  C
  C4       1.0000 0.05661  0.37520  0.13175  Biso   1.000  C
  C5       1.0000 0.55661  0.12480  0.63175  Biso   1.000  C
  C6       1.0000 0.44339  0.12480  0.86825  Biso   1.000  C
  C7       1.0000 0.05661  0.62480  0.63175  Biso   1.000  C
  C8       1.0000 0.94339  0.62480  0.86825  Biso   1.000  C
  H1       1.0000 0.46560  0.97280  0.36810  Biso   1.000  H
  H2       1.0000 0.53440  0.97280  0.13190  Biso   1.000  H
  H3       1.0000 0.96560  0.47280  0.36810  Biso   1.000  H
  H4       1.0000 0.03440  0.47280  0.13190  Biso   1.000  H
  H5       1.0000 0.53440  0.02720  0.63190  Biso   1.000  H
  H6       1.0000 0.46560  0.02720  0.86810  Biso   1.000  H
  H7       1.0000 0.03440  0.52720  0.63190  Biso   1.000  H
  H8       1.0000 0.96560  0.52720  0.86810  Biso   1.000  H
  C9       1.0000 0.41460  0.86790  0.42560  Biso   1.000  C
  C10      1.0000 0.58540  0.86790  0.07440  Biso   1.000  C
  C11      1.0000 0.91460  0.36790  0.42560  Biso   1.000  C
  C12      1.0000 0.08540  0.36790  0.07440  Biso   1.000  C
  C13      1.0000 0.58540  0.13210  0.57440  Biso   1.000  C
  C14      1.0000 0.41460  0.13210  0.92560  Biso   1.000  C
  C15      1.0000 0.08540  0.63210  0.57440  Biso   1.000  C
  C16      1.0000 0.91460  0.63210  0.92560  Biso   1.000  C
  H9       1.0000 0.41800  0.95910  0.46410  Biso   1.000  H
  H10      1.0000 0.58200  0.95910  0.03590  Biso   1.000  H
  H11      1.0000 0.91800  0.45910  0.46410  Biso   1.000  H
  H12      1.0000 0.08200  0.45910  0.03590  Biso   1.000  H
  H13      1.0000 0.58200  0.04090  0.53590  Biso   1.000  H
  H14      1.0000 0.41800  0.04090  0.96410  Biso   1.000  H
  H15      1.0000 0.08200  0.54090  0.53590  Biso   1.000  H
  H16      1.0000 0.91800  0.54090  0.96410  Biso   1.000  H
  C17      1.0000 0.38056  0.72520  0.42640  Biso   1.000  C
  C18      1.0000 0.61944  0.72520  0.07360  Biso   1.000  C
  C19      1.0000 0.88056  0.22520  0.42640  Biso   1.000  C
  C20      1.0000 0.11944  0.22520  0.07360  Biso   1.000  C
  C21      1.0000 0.61944  0.27480  0.57360  Biso   1.000  C
  C22      1.0000 0.38056  0.27480  0.92640  Biso   1.000  C
  C23      1.0000 0.11944  0.77480  0.57360  Biso   1.000  C
  C24      1.0000 0.88056  0.77480  0.92640  Biso   1.000  C
  H17      1.0000 0.36270  0.71660  0.46740  Biso   1.000  H
  H18      1.0000 0.63730  0.71660  0.03260  Biso   1.000  H
  H19      1.0000 0.86270  0.21660  0.46740  Biso   1.000  H
  H20      1.0000 0.13730  0.21660  0.03260  Biso   1.000  H
  H21      1.0000 0.63730  0.28340  0.53260  Biso   1.000  H
  H22      1.0000 0.36270  0.28340  0.96740  Biso   1.000  H
  H23      1.0000 0.13730  0.78340  0.53260  Biso   1.000  H
  H24      1.0000 0.86270  0.78340  0.96740  Biso   1.000  H
  C25      1.0000 0.37380  0.59480  0.36396  Biso   1.000  C
  C26      1.0000 0.62620  0.59480  0.13604  Biso   1.000  C
  C27      1.0000 0.87380  0.09480  0.36396  Biso   1.000  C
  C28      1.0000 0.12620  0.09480  0.13604  Biso   1.000  C
  C29      1.0000 0.62620  0.40520  0.63604  Biso   1.000  C
  C30      1.0000 0.37380  0.40520  0.86396  Biso   1.000  C
  C31      1.0000 0.12620  0.90520  0.63604  Biso   1.000  C
  C32      1.0000 0.87380  0.90520  0.86396  Biso   1.000  C
  C33      1.0000 0.40448  0.60950  0.30803  Biso   1.000  C
  C34      1.0000 0.59552  0.60950  0.19197  Biso   1.000  C
  C35      1.0000 0.90448  0.10950  0.30803  Biso   1.000  C
  C36      1.0000 0.09552  0.10950  0.19197  Biso   1.000  C
  C37      1.0000 0.59552  0.39050  0.69197  Biso   1.000  C
  C38      1.0000 0.40448  0.39050  0.80803  Biso   1.000  C
  C39      1.0000 0.09552  0.89050  0.69197  Biso   1.000  C
  C40      1.0000 0.90448  0.89050  0.80803  Biso   1.000  C
  H25      1.0000 0.39980  0.52190  0.26640  Biso   1.000  H
  H26      1.0000 0.60020  0.52190  0.23360  Biso   1.000  H
  H27      1.0000 0.89980  0.02190  0.26640  Biso   1.000  H
  H28      1.0000 0.10020  0.02190  0.23360  Biso   1.000  H
  H29      1.0000 0.60020  0.47810  0.73360  Biso   1.000  H
  H30      1.0000 0.39980  0.47810  0.76640  Biso   1.000  H
  H31      1.0000 0.10020  0.97810  0.73360  Biso   1.000  H
  H32      1.0000 0.89980  0.97810  0.76640  Biso   1.000  H
  C41      1.0000 0.33971  0.34060  0.43201  Biso   1.000  C
  C42      1.0000 0.66029  0.34060  0.06799  Biso   1.000  C
  C43      1.0000 0.83971  0.84060  0.43201  Biso   1.000  C
  C44      1.0000 0.16029  0.84060  0.06799  Biso   1.000  C
  C45      1.0000 0.66029  0.65940  0.56799  Biso   1.000  C
  C46      1.0000 0.33971  0.65940  0.93201  Biso   1.000  C
  C47      1.0000 0.16029  0.15940  0.56799  Biso   1.000  C
  C48      1.0000 0.83971  0.15940  0.93201  Biso   1.000  C
  C49      1.0000 0.29023  0.21360  0.40819  Biso   1.000  C
  C50      1.0000 0.70977  0.21360  0.09181  Biso   1.000  C
  C51      1.0000 0.79023  0.71360  0.40819  Biso   1.000  C
  C52      1.0000 0.20977  0.71360  0.09181  Biso   1.000  C
  C53      1.0000 0.70977  0.78640  0.59181  Biso   1.000  C
  C54      1.0000 0.29023  0.78640  0.90819  Biso   1.000  C
  C55      1.0000 0.20977  0.28640  0.59181  Biso   1.000  C
  C56      1.0000 0.79023  0.28640  0.90819  Biso   1.000  C
  H33      1.0000 0.25070  0.19950  0.34150  Biso   1.000  H
  H34      1.0000 0.74930  0.19950  0.15850  Biso   1.000  H
  H35      1.0000 0.75070  0.69950  0.34150  Biso   1.000  H
  H36      1.0000 0.24930  0.69950  0.15850  Biso   1.000  H
  H37      1.0000 0.74930  0.80050  0.65850  Biso   1.000  H
  H38      1.0000 0.25070  0.80050  0.84150  Biso   1.000  H
  H39      1.0000 0.24930  0.30050  0.65850  Biso   1.000  H
  H40      1.0000 0.75070  0.30050  0.84150  Biso   1.000  H
  C57      1.0000 0.30047  0.10930  0.48437  Biso   1.000  C
  C58      1.0000 0.69953  0.10930  0.01563  Biso   1.000  C
  C59      1.0000 0.80047  0.60930  0.48437  Biso   1.000  C
  C60      1.0000 0.19953  0.60930  0.01563  Biso   1.000  C
  C61      1.0000 0.69953  0.89070  0.51563  Biso   1.000  C
  C62      1.0000 0.30047  0.89070  0.98437  Biso   1.000  C
  C63      1.0000 0.19953  0.39070  0.51563  Biso   1.000  C
  C64      1.0000 0.80047  0.39070  0.98437  Biso   1.000  C
  H41      1.0000 0.26780  0.02470  0.47010  Biso   1.000  H
  H42      1.0000 0.73220  0.02470  0.02990  Biso   1.000  H
  H43      1.0000 0.76780  0.52470  0.47010  Biso   1.000  H
  H44      1.0000 0.23220  0.52470  0.02990  Biso   1.000  H
  H45      1.0000 0.73220  0.97530  0.52990  Biso   1.000  H
  H46      1.0000 0.26780  0.97530  0.97010  Biso   1.000  H
  H47      1.0000 0.23220  0.47530  0.52990  Biso   1.000  H
  H48      1.0000 0.76780  0.47530  0.97010  Biso   1.000  H
  C65      1.0000 0.36008  0.13270  0.58208  Biso   1.000  C
  C66      1.0000 0.63992  0.13270  0.91792  Biso   1.000  C
  C67      1.0000 0.86008  0.63270  0.58208  Biso   1.000  C
  C68      1.0000 0.13992  0.63270  0.91792  Biso   1.000  C
  C69      1.0000 0.63992  0.86730  0.41792  Biso   1.000  C
  C70      1.0000 0.36008  0.86730  0.08208  Biso   1.000  C
  C71      1.0000 0.13992  0.36730  0.41792  Biso   1.000  C
  C72      1.0000 0.86008  0.36730  0.08208  Biso   1.000  C
  H49      1.0000 0.36700  0.06180  0.63330  Biso   1.000  H
  H50      1.0000 0.63300  0.06180  0.86670  Biso   1.000  H
  H51      1.0000 0.86700  0.56180  0.63330  Biso   1.000  H
  H52      1.0000 0.13300  0.56180  0.86670  Biso   1.000  H
  H53      1.0000 0.63300  0.93820  0.36670  Biso   1.000  H
  H54      1.0000 0.36700  0.93820  0.13330  Biso   1.000  H
  H55      1.0000 0.13300  0.43820  0.36670  Biso   1.000  H
  H56      1.0000 0.86700  0.43820  0.13330  Biso   1.000  H
  C73      1.0000 0.39803  0.35740  0.53214  Biso   1.000  C
  C74      1.0000 0.60197  0.35740  0.96786  Biso   1.000  C
  C75      1.0000 0.89803  0.85740  0.53214  Biso   1.000  C
  C76      1.0000 0.10197  0.85740  0.96786  Biso   1.000  C
  C77      1.0000 0.60197  0.64260  0.46786  Biso   1.000  C
  C78      1.0000 0.39803  0.64260  0.03214  Biso   1.000  C
  C79      1.0000 0.10197  0.14260  0.46786  Biso   1.000  C
  C80      1.0000 0.89803  0.14260  0.03214  Biso   1.000  C
  H57      1.0000 0.43090  0.44270  0.54870  Biso   1.000  H
  H58      1.0000 0.56910  0.44270  0.95130  Biso   1.000  H
  H59      1.0000 0.93090  0.94270  0.54870  Biso   1.000  H
  H60      1.0000 0.06910  0.94270  0.95130  Biso   1.000  H
  H61      1.0000 0.56910  0.55730  0.45130  Biso   1.000  H
  H62      1.0000 0.43090  0.55730  0.04870  Biso   1.000  H
  H63      1.0000 0.06910  0.05730  0.45130  Biso   1.000  H
  H64      1.0000 0.93090  0.05730  0.04870  Biso   1.000  H
  C81      1.0000 0.33011  0.44260  0.34617  Biso   1.000  C
  C82      1.0000 0.66989  0.44260  0.15383  Biso   1.000  C
  C83      1.0000 0.83011  0.94260  0.34617  Biso   1.000  C
  C84      1.0000 0.16989  0.94260  0.15383  Biso   1.000  C
  C85      1.0000 0.66989  0.55740  0.65383  Biso   1.000  C
  C86      1.0000 0.33011  0.55740  0.84617  Biso   1.000  C
  C87      1.0000 0.16989  0.05740  0.65383  Biso   1.000  C
  C88      1.0000 0.83011  0.05740  0.84617  Biso   1.000  C
  Si1      1.0000 0.50000  0.25199  0.25000  Biso   1.000  Si
  Si2      1.0000 0.00000  0.75199  0.25000  Biso   1.000  Si
  Si3      1.0000 0.50000  0.74801  0.75000  Biso   1.000  Si
  Si4      1.0000 0.00000  0.24801  0.75000  Biso   1.000  Si
  O9       1.0000 0.28080  0.16570  0.11830  Biso   1.000  O
  O10      1.0000 0.71920  0.16570  0.38170  Biso   1.000  O
  O11      1.0000 0.78080  0.66570  0.11830  Biso   1.000  O
  O12      1.0000 0.21920  0.66570  0.38170  Biso   1.000  O
  O13      1.0000 0.71920  0.83430  0.88170  Biso   1.000  O
  O14      1.0000 0.28080  0.83430  0.61830  Biso   1.000  O
  O15      1.0000 0.21920  0.33430  0.88170  Biso   1.000  O
  O16      1.0000 0.78080  0.33430  0.61830  Biso   1.000  O
  H65      1.0000 0.27770  0.20890  0.16760  Biso   1.000  H
  H66      1.0000 0.72230  0.20890  0.33240  Biso   1.000  H
  H67      1.0000 0.77770  0.70890  0.16760  Biso   1.000  H
  H68      1.0000 0.22230  0.70890  0.33240  Biso   1.000  H
  H69      1.0000 0.72230  0.79110  0.83240  Biso   1.000  H
  H70      1.0000 0.27770  0.79110  0.66760  Biso   1.000  H
  H71      1.0000 0.22230  0.29110  0.83240  Biso   1.000  H
  H72      1.0000 0.77770  0.29110  0.66760  Biso   1.000  H
  H73      1.0000 0.32440  0.18560  0.13080  Biso   1.000  H
  H74      1.0000 0.67560  0.18560  0.36920  Biso   1.000  H
  H75      1.0000 0.82440  0.68560  0.13080  Biso   1.000  H
  H76      1.0000 0.17560  0.68560  0.36920  Biso   1.000  H
  H77      1.0000 0.67560  0.81440  0.86920  Biso   1.000  H
  H78      1.0000 0.32440  0.81440  0.63080  Biso   1.000  H
  H79      1.0000 0.17560  0.31440  0.86920  Biso   1.000  H
  H80      1.0000 0.82440  0.31440  0.63080  Biso   1.000  H
