data_image0
_cell_length_a       10.1288
_cell_length_b       8.4847
_cell_length_c       24.2302
_cell_angle_alpha    90
_cell_angle_beta     98.3843
_cell_angle_gamma    90

_symmetry_space_group_name_H-M    "P 1"
_symmetry_int_tables_number       1

loop_
  _symmetry_equiv_pos_as_xyz
  'x, y, z'

loop_
  _atom_site_label
  _atom_site_occupancy
  _atom_site_fract_x
  _atom_site_fract_y
  _atom_site_fract_z
  _atom_site_thermal_displace_type
  _atom_site_B_iso_or_equiv
  _atom_site_type_symbol
  Cu1      1.0000 0.70259  0.19198  0.10765  Biso   1.000  Cu
  Cu2      1.0000 0.29741  0.69198  0.39235  Biso   1.000  Cu
  Cu3      1.0000 0.29741  0.80802  0.89235  Biso   1.000  Cu
  Cu4      1.0000 0.70259  0.30802  0.60765  Biso   1.000  Cu
  Cu5      1.0000 0.50000  0.00000  0.00000  Biso   1.000  Cu
  Cu6      1.0000 0.50000  0.50000  0.50000  Biso   1.000  Cu
  Cl1      1.0000 0.63145  0.21056  0.00113  Biso   1.000  Cl
  Cl2      1.0000 0.36855  0.71056  0.49887  Biso   1.000  Cl
  Cl3      1.0000 0.36855  0.78944  0.99887  Biso   1.000  Cl
  Cl4      1.0000 0.63145  0.28944  0.50113  Biso   1.000  Cl
  Cl5      1.0000 0.59820  0.94302  0.08922  Biso   1.000  Cl
  Cl6      1.0000 0.40180  0.44302  0.41078  Biso   1.000  Cl
  Cl7      1.0000 0.40180  0.05698  0.91078  Biso   1.000  Cl
  Cl8      1.0000 0.59820  0.55698  0.58922  Biso   1.000  Cl
  Cl9      1.0000 0.79893  0.42687  0.12969  Biso   1.000  Cl
  Cl10     1.0000 0.20107  0.92687  0.37031  Biso   1.000  Cl
  Cl11     1.0000 0.20107  0.57313  0.87031  Biso   1.000  Cl
  Cl12     1.0000 0.79893  0.07313  0.62969  Biso   1.000  Cl
  C1       1.0000 0.33508  0.20794  0.24521  Biso   1.000  C
  C2       1.0000 0.66492  0.70794  0.25479  Biso   1.000  C
  C3       1.0000 0.66492  0.79206  0.75479  Biso   1.000  C
  C4       1.0000 0.33508  0.29206  0.74521  Biso   1.000  C
  C5       1.0000 0.21892  0.09759  0.22323  Biso   1.000  C
  C6       1.0000 0.78108  0.59759  0.27677  Biso   1.000  C
  C7       1.0000 0.78108  0.90241  0.77677  Biso   1.000  C
  C8       1.0000 0.21892  0.40241  0.72323  Biso   1.000  C
  H1       1.0000 0.17430  0.06410  0.25500  Biso   1.000  H
  H2       1.0000 0.82570  0.56410  0.24500  Biso   1.000  H
  H3       1.0000 0.82570  0.93590  0.74500  Biso   1.000  H
  H4       1.0000 0.17430  0.43590  0.75500  Biso   1.000  H
  H5       1.0000 0.15300  0.15770  0.19720  Biso   1.000  H
  H6       1.0000 0.84700  0.65770  0.30280  Biso   1.000  H
  H7       1.0000 0.84700  0.84230  0.80280  Biso   1.000  H
  H8       1.0000 0.15300  0.34230  0.69720  Biso   1.000  H
  C9       1.0000 0.25879  0.95047  0.19324  Biso   1.000  C
  C10      1.0000 0.74121  0.45047  0.30676  Biso   1.000  C
  C11      1.0000 0.74121  0.04953  0.80676  Biso   1.000  C
  C12      1.0000 0.25879  0.54953  0.69324  Biso   1.000  C
  H9       1.0000 0.31870  0.88560  0.22010  Biso   1.000  H
  H10      1.0000 0.68130  0.38560  0.27990  Biso   1.000  H
  H11      1.0000 0.68130  0.11440  0.77990  Biso   1.000  H
  H12      1.0000 0.31870  0.61440  0.72010  Biso   1.000  H
  H13      1.0000 0.30990  0.98330  0.16330  Biso   1.000  H
  H14      1.0000 0.69010  0.48330  0.33670  Biso   1.000  H
  H15      1.0000 0.69010  0.01670  0.83670  Biso   1.000  H
  H16      1.0000 0.30990  0.51670  0.66330  Biso   1.000  H
  C13      1.0000 0.14035  0.84810  0.16738  Biso   1.000  C
  C14      1.0000 0.85965  0.34810  0.33262  Biso   1.000  C
  C15      1.0000 0.85965  0.15190  0.83262  Biso   1.000  C
  C16      1.0000 0.14035  0.65190  0.66738  Biso   1.000  C
  C17      1.0000 0.43696  0.13054  0.28921  Biso   1.000  C
  C18      1.0000 0.56304  0.63054  0.21079  Biso   1.000  C
  C19      1.0000 0.56304  0.86946  0.71079  Biso   1.000  C
  C20      1.0000 0.43696  0.36946  0.78921  Biso   1.000  C
  H17      1.0000 0.47620  0.03910  0.27290  Biso   1.000  H
  H18      1.0000 0.52380  0.53910  0.22710  Biso   1.000  H
  H19      1.0000 0.52380  0.96090  0.72710  Biso   1.000  H
  H20      1.0000 0.47620  0.46090  0.77290  Biso   1.000  H
  H21      1.0000 0.39290  0.09620  0.32060  Biso   1.000  H
  H22      1.0000 0.60710  0.59620  0.17940  Biso   1.000  H
  H23      1.0000 0.60710  0.90380  0.67940  Biso   1.000  H
  H24      1.0000 0.39290  0.40380  0.82060  Biso   1.000  H
  H25      1.0000 0.50740  0.20650  0.30250  Biso   1.000  H
  H26      1.0000 0.49260  0.70650  0.19750  Biso   1.000  H
  H27      1.0000 0.49260  0.79350  0.69750  Biso   1.000  H
  H28      1.0000 0.50740  0.29350  0.80250  Biso   1.000  H
  C21      1.0000 0.28074  0.35869  0.26775  Biso   1.000  C
  C22      1.0000 0.71926  0.85869  0.23225  Biso   1.000  C
  C23      1.0000 0.71926  0.64131  0.73225  Biso   1.000  C
  C24      1.0000 0.28074  0.14131  0.76775  Biso   1.000  C
  H29      1.0000 0.35450  0.43180  0.27930  Biso   1.000  H
  H30      1.0000 0.64550  0.93180  0.22070  Biso   1.000  H
  H31      1.0000 0.64550  0.56820  0.72070  Biso   1.000  H
  H32      1.0000 0.35450  0.06820  0.77930  Biso   1.000  H
  H33      1.0000 0.23600  0.33330  0.29990  Biso   1.000  H
  H34      1.0000 0.76400  0.83330  0.20010  Biso   1.000  H
  H35      1.0000 0.76400  0.66670  0.70010  Biso   1.000  H
  H36      1.0000 0.23600  0.16670  0.79990  Biso   1.000  H
  H37      1.0000 0.21680  0.40790  0.23850  Biso   1.000  H
  H38      1.0000 0.78320  0.90790  0.26150  Biso   1.000  H
  H39      1.0000 0.78320  0.59210  0.76150  Biso   1.000  H
  H40      1.0000 0.21680  0.09210  0.73850  Biso   1.000  H
  C25      1.0000 0.06542  0.77479  0.21130  Biso   1.000  C
  C26      1.0000 0.93458  0.27479  0.28870  Biso   1.000  C
  C27      1.0000 0.93458  0.22521  0.78870  Biso   1.000  C
  C28      1.0000 0.06542  0.72521  0.71130  Biso   1.000  C
  H41      1.0000 0.03200  0.85850  0.23350  Biso   1.000  H
  H42      1.0000 0.96800  0.35850  0.26650  Biso   1.000  H
  H43      1.0000 0.96800  0.14150  0.76650  Biso   1.000  H
  H44      1.0000 0.03200  0.64150  0.73350  Biso   1.000  H
  H45      1.0000 0.12600  0.70630  0.23580  Biso   1.000  H
  H46      1.0000 0.87400  0.20630  0.26420  Biso   1.000  H
  H47      1.0000 0.87400  0.29370  0.76420  Biso   1.000  H
  H48      1.0000 0.12600  0.79370  0.73580  Biso   1.000  H
  H49      1.0000 0.99020  0.71260  0.19280  Biso   1.000  H
  H50      1.0000 0.00980  0.21260  0.30720  Biso   1.000  H
  H51      1.0000 0.00980  0.28740  0.80720  Biso   1.000  H
  H52      1.0000 0.99020  0.78740  0.69280  Biso   1.000  H
  C29      1.0000 0.18747  0.72107  0.13021  Biso   1.000  C
  C30      1.0000 0.81253  0.22107  0.36979  Biso   1.000  C
  C31      1.0000 0.81253  0.27893  0.86979  Biso   1.000  C
  C32      1.0000 0.18747  0.77893  0.63021  Biso   1.000  C
  H53      1.0000 0.11070  0.65900  0.11300  Biso   1.000  H
  H54      1.0000 0.88930  0.15900  0.38700  Biso   1.000  H
  H55      1.0000 0.88930  0.34100  0.88700  Biso   1.000  H
  H56      1.0000 0.11070  0.84100  0.61300  Biso   1.000  H
  H57      1.0000 0.25150  0.65180  0.15270  Biso   1.000  H
  H58      1.0000 0.74850  0.15180  0.34730  Biso   1.000  H
  H59      1.0000 0.74850  0.34820  0.84730  Biso   1.000  H
  H60      1.0000 0.25150  0.84820  0.65270  Biso   1.000  H
  H61      1.0000 0.23050  0.77080  0.10100  Biso   1.000  H
  H62      1.0000 0.76950  0.27080  0.39900  Biso   1.000  H
  H63      1.0000 0.76950  0.22920  0.89900  Biso   1.000  H
  H64      1.0000 0.23050  0.72920  0.60100  Biso   1.000  H
  C33      1.0000 0.41060  0.43983  0.06729  Biso   1.000  C
  C34      1.0000 0.58940  0.93983  0.43271  Biso   1.000  C
  C35      1.0000 0.58940  0.56017  0.93271  Biso   1.000  C
  C36      1.0000 0.41060  0.06017  0.56729  Biso   1.000  C
  H65      1.0000 0.49800  0.45380  0.05420  Biso   1.000  H
  H66      1.0000 0.50200  0.95380  0.44580  Biso   1.000  H
  H67      1.0000 0.50200  0.54620  0.94580  Biso   1.000  H
  H68      1.0000 0.49800  0.04620  0.55420  Biso   1.000  H
  H69      1.0000 0.37580  0.54570  0.07460  Biso   1.000  H
  H70      1.0000 0.62420  0.04570  0.42540  Biso   1.000  H
  H71      1.0000 0.62420  0.45430  0.92540  Biso   1.000  H
  H72      1.0000 0.37580  0.95430  0.57460  Biso   1.000  H
  C37      1.0000 0.31459  0.35987  0.02177  Biso   1.000  C
  C38      1.0000 0.68541  0.85987  0.47823  Biso   1.000  C
  C39      1.0000 0.68541  0.64013  0.97823  Biso   1.000  C
  C40      1.0000 0.31459  0.14013  0.52177  Biso   1.000  C
  H73      1.0000 0.30850  0.42130  0.98670  Biso   1.000  H
  H74      1.0000 0.69150  0.92130  0.51330  Biso   1.000  H
  H75      1.0000 0.69150  0.57870  0.01330  Biso   1.000  H
  H76      1.0000 0.30850  0.07870  0.48670  Biso   1.000  H
  H77      1.0000 0.34730  0.25290  0.01470  Biso   1.000  H
  H78      1.0000 0.65270  0.75290  0.48530  Biso   1.000  H
  H79      1.0000 0.65270  0.74710  0.98530  Biso   1.000  H
  H80      1.0000 0.34730  0.24710  0.51470  Biso   1.000  H
  O1       1.0000 0.18736  0.35015  0.03915  Biso   1.000  O
  O2       1.0000 0.81264  0.85015  0.46085  Biso   1.000  O
  O3       1.0000 0.81264  0.64985  0.96085  Biso   1.000  O
  O4       1.0000 0.18736  0.14985  0.53915  Biso   1.000  O
  C41      1.0000 0.09739  0.26178  0.00062  Biso   1.000  C
  C42      1.0000 0.90261  0.76178  0.49938  Biso   1.000  C
  C43      1.0000 0.90261  0.73822  0.99938  Biso   1.000  C
  C44      1.0000 0.09739  0.23822  0.50062  Biso   1.000  C
  H81      1.0000 0.13700  0.15810  0.99390  Biso   1.000  H
  H82      1.0000 0.86300  0.65810  0.50610  Biso   1.000  H
  H83      1.0000 0.86300  0.84190  0.00610  Biso   1.000  H
  H84      1.0000 0.13700  0.34190  0.49390  Biso   1.000  H
  H85      1.0000 0.07930  0.31860  0.96460  Biso   1.000  H
  H86      1.0000 0.92070  0.81860  0.53540  Biso   1.000  H
  H87      1.0000 0.92070  0.68140  0.03540  Biso   1.000  H
  H88      1.0000 0.07930  0.18140  0.46460  Biso   1.000  H
  C45      1.0000 0.96890  0.23879  0.02447  Biso   1.000  C
  C46      1.0000 0.03110  0.73879  0.47553  Biso   1.000  C
  C47      1.0000 0.03110  0.76121  0.97553  Biso   1.000  C
  C48      1.0000 0.96890  0.26121  0.52447  Biso   1.000  C
  H89      1.0000 0.93940  0.34210  0.03730  Biso   1.000  H
  H90      1.0000 0.06060  0.84210  0.46270  Biso   1.000  H
  H91      1.0000 0.06060  0.65790  0.96270  Biso   1.000  H
  H92      1.0000 0.93940  0.15790  0.53730  Biso   1.000  H
  H93      1.0000 0.89930  0.20070  0.99450  Biso   1.000  H
  H94      1.0000 0.10070  0.70070  0.50550  Biso   1.000  H
  H95      1.0000 0.10070  0.79930  0.00550  Biso   1.000  H
  H96      1.0000 0.89930  0.29930  0.49450  Biso   1.000  H
  N1       1.0000 0.34320  0.34632  0.15634  Biso   1.000  N
  N2       1.0000 0.65680  0.84632  0.34366  Biso   1.000  N
  N3       1.0000 0.65680  0.65368  0.84366  Biso   1.000  N
  N4       1.0000 0.34320  0.15368  0.65634  Biso   1.000  N
  N5       1.0000 0.40260  0.25289  0.19653  Biso   1.000  N
  N6       1.0000 0.59740  0.75289  0.30347  Biso   1.000  N
  N7       1.0000 0.59740  0.74711  0.80347  Biso   1.000  N
  N8       1.0000 0.40260  0.24711  0.69653  Biso   1.000  N
  N9       1.0000 0.51812  0.19652  0.18737  Biso   1.000  N
  N10      1.0000 0.48188  0.69652  0.31263  Biso   1.000  N
  N11      1.0000 0.48188  0.80348  0.81263  Biso   1.000  N
  N12      1.0000 0.51812  0.30348  0.68737  Biso   1.000  N
  N13      1.0000 0.53689  0.25675  0.13840  Biso   1.000  N
  N14      1.0000 0.46311  0.75675  0.36160  Biso   1.000  N
  N15      1.0000 0.46311  0.74325  0.86160  Biso   1.000  N
  N16      1.0000 0.53689  0.24325  0.63840  Biso   1.000  N
  C49      1.0000 0.42989  0.34804  0.12004  Biso   1.000  C
  C50      1.0000 0.57011  0.84804  0.37996  Biso   1.000  C
  C51      1.0000 0.57011  0.65196  0.87996  Biso   1.000  C
  C52      1.0000 0.42989  0.15196  0.62004  Biso   1.000  C
  N17      1.0000 0.08568  0.03529  0.08888  Biso   1.000  N
  N18      1.0000 0.91432  0.53529  0.41112  Biso   1.000  N
  N19      1.0000 0.91432  0.96471  0.91112  Biso   1.000  N
  N20      1.0000 0.08568  0.46471  0.58888  Biso   1.000  N
  N21      1.0000 0.04700  0.95427  0.13109  Biso   1.000  N
  N22      1.0000 0.95300  0.45427  0.36891  Biso   1.000  N
  N23      1.0000 0.95300  0.04573  0.86891  Biso   1.000  N
  N24      1.0000 0.04700  0.54573  0.63109  Biso   1.000  N
  N25      1.0000 0.92654  0.98873  0.14092  Biso   1.000  N
  N26      1.0000 0.07346  0.48873  0.35908  Biso   1.000  N
  N27      1.0000 0.07346  0.01127  0.85908  Biso   1.000  N
  N28      1.0000 0.92654  0.51127  0.64092  Biso   1.000  N
  N29      1.0000 0.88182  0.09691  0.10333  Biso   1.000  N
  N30      1.0000 0.11818  0.59691  0.39667  Biso   1.000  N
  N31      1.0000 0.11818  0.90309  0.89667  Biso   1.000  N
  N32      1.0000 0.88182  0.40309  0.60333  Biso   1.000  N
  C53      1.0000 0.97998  0.12542  0.07195  Biso   1.000  C
  C54      1.0000 0.02002  0.62542  0.42805  Biso   1.000  C
  C55      1.0000 0.02002  0.87458  0.92805  Biso   1.000  C
  C56      1.0000 0.97998  0.37458  0.57195  Biso   1.000  C
