data_image0
_cell_length_a       9.6895
_cell_length_b       11.6247
_cell_length_c       19.8471
_cell_angle_alpha    82.0486
_cell_angle_beta     86.6245
_cell_angle_gamma    75.1389

_symmetry_space_group_name_H-M    "P 1"
_symmetry_int_tables_number       1

loop_
  _symmetry_equiv_pos_as_xyz
  'x, y, z'

loop_
  _atom_site_label
  _atom_site_occupancy
  _atom_site_fract_x
  _atom_site_fract_y
  _atom_site_fract_z
  _atom_site_thermal_displace_type
  _atom_site_B_iso_or_equiv
  _atom_site_type_symbol
  Cu1      1.0000 0.37167  0.13939  0.76210  Biso   1.000  Cu
  Cu2      1.0000 0.62833  0.86061  0.23790  Biso   1.000  Cu
  C1       1.0000 0.96349  0.51142  0.84008  Biso   1.000  C
  C2       1.0000 0.03651  0.48858  0.15992  Biso   1.000  C
  C3       1.0000 0.03612  0.60715  0.85584  Biso   1.000  C
  C4       1.0000 0.96388  0.39285  0.14416  Biso   1.000  C
  H1       1.0000 0.06160  0.65090  0.81240  Biso   1.000  H
  H2       1.0000 0.93840  0.34910  0.18760  Biso   1.000  H
  H3       1.0000 0.96720  0.66570  0.88100  Biso   1.000  H
  H4       1.0000 0.03280  0.33430  0.11900  Biso   1.000  H
  C5       1.0000 0.17044  0.55588  0.89763  Biso   1.000  C
  C6       1.0000 0.82956  0.44412  0.10237  Biso   1.000  C
  H5       1.0000 0.23280  0.48900  0.87570  Biso   1.000  H
  H6       1.0000 0.76720  0.51100  0.12430  Biso   1.000  H
  H7       1.0000 0.14240  0.52210  0.94340  Biso   1.000  H
  H8       1.0000 0.85760  0.47790  0.05660  Biso   1.000  H
  C7       1.0000 0.25690  0.64580  0.90594  Biso   1.000  C
  C8       1.0000 0.74310  0.35420  0.09406  Biso   1.000  C
  C9       1.0000 0.82550  0.56924  0.80179  Biso   1.000  C
  C10      1.0000 0.17450  0.43076  0.19821  Biso   1.000  C
  H9       1.0000 0.84580  0.62090  0.76110  Biso   1.000  H
  H10      1.0000 0.15420  0.37910  0.23890  Biso   1.000  H
  H11      1.0000 0.75630  0.61750  0.83140  Biso   1.000  H
  H12      1.0000 0.24370  0.38250  0.16860  Biso   1.000  H
  H13      1.0000 0.78590  0.50650  0.78840  Biso   1.000  H
  H14      1.0000 0.21410  0.49350  0.21160  Biso   1.000  H
  C11      1.0000 0.93580  0.42904  0.90335  Biso   1.000  C
  C12      1.0000 0.06420  0.57096  0.09665  Biso   1.000  C
  H15      1.0000 0.89100  0.36910  0.89030  Biso   1.000  H
  H16      1.0000 0.10900  0.63090  0.10970  Biso   1.000  H
  H17      1.0000 0.87220  0.47660  0.93510  Biso   1.000  H
  H18      1.0000 0.12780  0.52340  0.06490  Biso   1.000  H
  H19      1.0000 0.02650  0.38850  0.92530  Biso   1.000  H
  H20      1.0000 0.97350  0.61150  0.07470  Biso   1.000  H
  C13      1.0000 0.38200  0.58596  0.95236  Biso   1.000  C
  C14      1.0000 0.61800  0.41404  0.04764  Biso   1.000  C
  H21      1.0000 0.43820  0.51310  0.93470  Biso   1.000  H
  H22      1.0000 0.56180  0.48690  0.06530  Biso   1.000  H
  H23      1.0000 0.34560  0.56490  0.99830  Biso   1.000  H
  H24      1.0000 0.65440  0.43510  0.00170  Biso   1.000  H
  H25      1.0000 0.44240  0.64140  0.95390  Biso   1.000  H
  H26      1.0000 0.55760  0.35860  0.04610  Biso   1.000  H
  C15      1.0000 0.16550  0.75906  0.93224  Biso   1.000  C
  C16      1.0000 0.83450  0.24094  0.06776  Biso   1.000  C
  H27      1.0000 0.22690  0.81020  0.94110  Biso   1.000  H
  H28      1.0000 0.77310  0.18980  0.05890  Biso   1.000  H
  H29      1.0000 0.11540  0.73690  0.97440  Biso   1.000  H
  H30      1.0000 0.88460  0.26310  0.02560  Biso   1.000  H
  H31      1.0000 0.09560  0.80280  0.89800  Biso   1.000  H
  H32      1.0000 0.90440  0.19720  0.10200  Biso   1.000  H
  C17      1.0000 0.23480  0.38085  0.63511  Biso   1.000  C
  C18      1.0000 0.76520  0.61915  0.36489  Biso   1.000  C
  H33      1.0000 0.15860  0.37370  0.60610  Biso   1.000  H
  H34      1.0000 0.84140  0.62630  0.39390  Biso   1.000  H
  H35      1.0000 0.31600  0.30950  0.63280  Biso   1.000  H
  H36      1.0000 0.68400  0.69050  0.36720  Biso   1.000  H
  C19      1.0000 0.28340  0.49374  0.60848  Biso   1.000  C
  C20      1.0000 0.71660  0.50626  0.39152  Biso   1.000  C
  H37      1.0000 0.32580  0.48790  0.56210  Biso   1.000  H
  H38      1.0000 0.67420  0.51210  0.43790  Biso   1.000  H
  H39      1.0000 0.20100  0.56500  0.60650  Biso   1.000  H
  H40      1.0000 0.79900  0.43500  0.39350  Biso   1.000  H
  O1       1.0000 0.38671  0.50441  0.65376  Biso   1.000  O
  O2       1.0000 0.61329  0.49559  0.34624  Biso   1.000  O
  C21      1.0000 0.43830  0.60790  0.63279  Biso   1.000  C
  C22      1.0000 0.56170  0.39210  0.36721  Biso   1.000  C
  H41      1.0000 0.35710  0.67940  0.62400  Biso   1.000  H
  H42      1.0000 0.64290  0.32060  0.37600  Biso   1.000  H
  H43      1.0000 0.49620  0.59800  0.59020  Biso   1.000  H
  H44      1.0000 0.50380  0.40200  0.40980  Biso   1.000  H
  C23      1.0000 0.52920  0.62453  0.68898  Biso   1.000  C
  C24      1.0000 0.47080  0.37547  0.31102  Biso   1.000  C
  H45      1.0000 0.59750  0.54700  0.70370  Biso   1.000  H
  H46      1.0000 0.40250  0.45300  0.29630  Biso   1.000  H
  H47      1.0000 0.58520  0.68260  0.67050  Biso   1.000  H
  H48      1.0000 0.41480  0.31740  0.32950  Biso   1.000  H
  N1       1.0000 0.07576  0.47207  0.72710  Biso   1.000  N
  N2       1.0000 0.92424  0.52793  0.27290  Biso   1.000  N
  N3       1.0000 0.06367  0.43613  0.79341  Biso   1.000  N
  N4       1.0000 0.93633  0.56387  0.20659  Biso   1.000  N
  N5       1.0000 0.15341  0.33428  0.81488  Biso   1.000  N
  N6       1.0000 0.84659  0.66572  0.18512  Biso   1.000  N
  N7       1.0000 0.22916  0.30025  0.75982  Biso   1.000  N
  N8       1.0000 0.77084  0.69975  0.24018  Biso   1.000  N
  C25      1.0000 0.18012  0.38451  0.70679  Biso   1.000  C
  C26      1.0000 0.81988  0.61549  0.29321  Biso   1.000  C
  N9       1.0000 0.39158  0.60006  0.79866  Biso   1.000  N
  N10      1.0000 0.60842  0.39994  0.20134  Biso   1.000  N
  N11      1.0000 0.32032  0.68089  0.83824  Biso   1.000  N
  N12      1.0000 0.67968  0.31911  0.16176  Biso   1.000  N
  N13      1.0000 0.32728  0.79132  0.81645  Biso   1.000  N
  N14      1.0000 0.67272  0.20868  0.18355  Biso   1.000  N
  N15      1.0000 0.40526  0.78497  0.75948  Biso   1.000  N
  N16      1.0000 0.59474  0.21503  0.24052  Biso   1.000  N
  C27      1.0000 0.44313  0.66829  0.74921  Biso   1.000  C
  C28      1.0000 0.55687  0.33171  0.25079  Biso   1.000  C
  C29      1.0000 0.00860  0.94973  0.65455  Biso   1.000  C
  C30      1.0000 0.99140  0.05027  0.34545  Biso   1.000  C
  C31      1.0000 0.87431  0.05189  0.63686  Biso   1.000  C
  C32      1.0000 0.12569  0.94811  0.36314  Biso   1.000  C
  H49      1.0000 0.82940  0.03500  0.59700  Biso   1.000  H
  H50      1.0000 0.17060  0.96500  0.40300  Biso   1.000  H
  H51      1.0000 0.80500  0.05320  0.67560  Biso   1.000  H
  H52      1.0000 0.19500  0.94680  0.32440  Biso   1.000  H
  C33      1.0000 0.90459  0.17572  0.62084  Biso   1.000  C
  C34      1.0000 0.09541  0.82428  0.37916  Biso   1.000  C
  H53      1.0000 0.96830  0.17560  0.58000  Biso   1.000  H
  H54      1.0000 0.03170  0.82440  0.42000  Biso   1.000  H
  H55      1.0000 0.95690  0.18910  0.65920  Biso   1.000  H
  H56      1.0000 0.04310  0.81090  0.34080  Biso   1.000  H
  C35      1.0000 0.77188  0.28183  0.60821  Biso   1.000  C
  C36      1.0000 0.22812  0.71817  0.39179  Biso   1.000  C
  C37      1.0000 0.11460  0.93242  0.59464  Biso   1.000  C
  C38      1.0000 0.88540  0.06758  0.40536  Biso   1.000  C
  H57      1.0000 0.13670  0.00900  0.57740  Biso   1.000  H
  H58      1.0000 0.86330  0.99100  0.42260  Biso   1.000  H
  H59      1.0000 0.07270  0.90400  0.55840  Biso   1.000  H
  H60      1.0000 0.92730  0.09600  0.44160  Biso   1.000  H
  H61      1.0000 0.20250  0.87320  0.60960  Biso   1.000  H
  H62      1.0000 0.79750  0.12680  0.39040  Biso   1.000  H
  C39      1.0000 0.96850  0.83303  0.68220  Biso   1.000  C
  C40      1.0000 0.03150  0.16697  0.31780  Biso   1.000  C
  H63      1.0000 0.05530  0.77010  0.69430  Biso   1.000  H
  H64      1.0000 0.94470  0.22990  0.30570  Biso   1.000  H
  H65      1.0000 0.91810  0.80880  0.64740  Biso   1.000  H
  H66      1.0000 0.08190  0.19120  0.35260  Biso   1.000  H
  H67      1.0000 0.90630  0.84530  0.72270  Biso   1.000  H
  H68      1.0000 0.09370  0.15470  0.27730  Biso   1.000  H
  C41      1.0000 0.81600  0.39977  0.59987  Biso   1.000  C
  C42      1.0000 0.18400  0.60023  0.40013  Biso   1.000  C
  H69      1.0000 0.73110  0.46690  0.59270  Biso   1.000  H
  H70      1.0000 0.26890  0.53310  0.40730  Biso   1.000  H
  H71      1.0000 0.88170  0.40250  0.56050  Biso   1.000  H
  H72      1.0000 0.11830  0.59750  0.43950  Biso   1.000  H
  H73      1.0000 0.86370  0.40580  0.64100  Biso   1.000  H
  H74      1.0000 0.13630  0.59420  0.35900  Biso   1.000  H
  C43      1.0000 0.68620  0.27271  0.54799  Biso   1.000  C
  C44      1.0000 0.31380  0.72729  0.45201  Biso   1.000  C
  H75      1.0000 0.65990  0.19590  0.55480  Biso   1.000  H
  H76      1.0000 0.34010  0.80410  0.44520  Biso   1.000  H
  H77      1.0000 0.74420  0.27770  0.50610  Biso   1.000  H
  H78      1.0000 0.25580  0.72230  0.49390  Biso   1.000  H
  H79      1.0000 0.59950  0.33860  0.54440  Biso   1.000  H
  H80      1.0000 0.40050  0.66140  0.45560  Biso   1.000  H
  C45      1.0000 0.08104  0.07267  0.87451  Biso   1.000  C
  C46      1.0000 0.91896  0.92733  0.12549  Biso   1.000  C
  H81      1.0000 0.10090  0.15150  0.87640  Biso   1.000  H
  H82      1.0000 0.89910  0.84850  0.12360  Biso   1.000  H
  H83      1.0000 0.15140  0.01130  0.90310  Biso   1.000  H
  H84      1.0000 0.84860  0.98870  0.09690  Biso   1.000  H
  C47      1.0000 0.93189  0.07534  0.90352  Biso   1.000  C
  C48      1.0000 0.06811  0.92466  0.09648  Biso   1.000  C
  H85      1.0000 0.90500  0.00140  0.89630  Biso   1.000  H
  H86      1.0000 0.09500  0.99860  0.10370  Biso   1.000  H
  H87      1.0000 0.92840  0.08030  0.95300  Biso   1.000  H
  H88      1.0000 0.07160  0.91970  0.04700  Biso   1.000  H
  O3       1.0000 0.83630  0.17759  0.86945  Biso   1.000  O
  O4       1.0000 0.16370  0.82241  0.13055  Biso   1.000  O
  C49      1.0000 0.69195  0.18108  0.88859  Biso   1.000  C
  C50      1.0000 0.30805  0.81892  0.11141  Biso   1.000  C
  H89      1.0000 0.67580  0.18920  0.93760  Biso   1.000  H
  H90      1.0000 0.32420  0.81080  0.06240  Biso   1.000  H
  H91      1.0000 0.66910  0.10610  0.88020  Biso   1.000  H
  H92      1.0000 0.33090  0.89390  0.11980  Biso   1.000  H
  C51      1.0000 0.59751  0.28853  0.84604  Biso   1.000  C
  C52      1.0000 0.40249  0.71147  0.15396  Biso   1.000  C
  H93      1.0000 0.49670  0.29720  0.86140  Biso   1.000  H
  H94      1.0000 0.50330  0.70280  0.13860  Biso   1.000  H
  H95      1.0000 0.62480  0.36230  0.85310  Biso   1.000  H
  H96      1.0000 0.37520  0.63770  0.14690  Biso   1.000  H
  N17      1.0000 0.01562  0.99538  0.77249  Biso   1.000  N
  N18      1.0000 0.98438  0.00462  0.22751  Biso   1.000  N
  N19      1.0000 0.07775  0.98617  0.71084  Biso   1.000  N
  N20      1.0000 0.92225  0.01383  0.28916  Biso   1.000  N
  N21      1.0000 0.19156  0.02785  0.70113  Biso   1.000  N
  N22      1.0000 0.80844  0.97215  0.29887  Biso   1.000  N
  N23      1.0000 0.20782  0.06522  0.75980  Biso   1.000  N
  N24      1.0000 0.79218  0.93478  0.24020  Biso   1.000  N
  C53      1.0000 0.10006  0.04530  0.80281  Biso   1.000  C
  C54      1.0000 0.89994  0.95470  0.19719  Biso   1.000  C
  N25      1.0000 0.70662  0.31009  0.72937  Biso   1.000  N
  N26      1.0000 0.29338  0.68991  0.27063  Biso   1.000  N
  N27      1.0000 0.67851  0.27713  0.67093  Biso   1.000  N
  N28      1.0000 0.32149  0.72287  0.32907  Biso   1.000  N
  N29      1.0000 0.57410  0.22393  0.67563  Biso   1.000  N
  N30      1.0000 0.42590  0.77607  0.32437  Biso   1.000  N
  N31      1.0000 0.52956  0.22181  0.74001  Biso   1.000  N
  N32      1.0000 0.47044  0.77819  0.25999  Biso   1.000  N
  C55      1.0000 0.61062  0.27519  0.77238  Biso   1.000  C
  C56      1.0000 0.38938  0.72481  0.22762  Biso   1.000  C
  O5       1.0000 0.50141  0.99666  0.72815  Biso   1.000  O
  O6       1.0000 0.49859  0.00334  0.27185  Biso   1.000  O
  H97      1.0000 0.47300  0.93460  0.73830  Biso   1.000  H
  H98      1.0000 0.52700  0.06540  0.26170  Biso   1.000  H
  H99      1.0000 0.51500  0.00700  0.68610  Biso   1.000  H
  H100     1.0000 0.48500  0.99300  0.31390  Biso   1.000  H
  O7       1.0000 0.41233  0.06925  0.86737  Biso   1.000  O
  O8       1.0000 0.58767  0.93075  0.13263  Biso   1.000  O
  H101     1.0000 0.39200  0.10500  0.90080  Biso   1.000  H
  H102     1.0000 0.60800  0.89500  0.09920  Biso   1.000  H
  H103     1.0000 0.46000  0.00190  0.87970  Biso   1.000  H
  H104     1.0000 0.54000  0.99810  0.12030  Biso   1.000  H
  O9       1.0000 0.53690  0.01930  0.59396  Biso   1.000  O
  O10      1.0000 0.46310  0.98070  0.40604  Biso   1.000  O
  H105     1.0000 0.57400  0.95000  0.58140  Biso   1.000  H
  H106     1.0000 0.42600  0.05000  0.41860  Biso   1.000  H
  H107     1.0000 0.45400  0.03700  0.57280  Biso   1.000  H
  H108     1.0000 0.54600  0.96300  0.42720  Biso   1.000  H
  B1       1.0000 0.24480  0.24390  0.47870  Biso   1.000  B
  B2       1.0000 0.75520  0.75610  0.52130  Biso   1.000  B
  F1       1.0000 0.28930  0.20757  0.41590  Biso   1.000  F
  F2       1.0000 0.71070  0.79243  0.58410  Biso   1.000  F
  F3       1.0000 0.31530  0.32726  0.48945  Biso   1.000  F
  F4       1.0000 0.68470  0.67274  0.51055  Biso   1.000  F
  F5       1.0000 0.28530  0.14715  0.52999  Biso   1.000  F
  F6       1.0000 0.71470  0.85285  0.47001  Biso   1.000  F
  F7       1.0000 0.10100  0.28620  0.48286  Biso   1.000  F
  F8       1.0000 0.89900  0.71380  0.51714  Biso   1.000  F
  B3       1.0000 0.31780  0.20530  0.03073  Biso   1.000  B
  B4       1.0000 0.68220  0.79470  0.96927  Biso   1.000  B
  F9       1.0000 0.39650  0.20240  0.97115  Biso   1.000  F
  F10      1.0000 0.60350  0.79760  0.02885  Biso   1.000  F
  F11      1.0000 0.27220  0.32276  0.04174  Biso   1.000  F
  F12      1.0000 0.72780  0.67724  0.95826  Biso   1.000  F
  F13      1.0000 0.39690  0.14410  0.08316  Biso   1.000  F
  F14      1.0000 0.60310  0.85590  0.91684  Biso   1.000  F
  F15      1.0000 0.20620  0.15900  0.02382  Biso   1.000  F
  F16      1.0000 0.79380  0.84100  0.97618  Biso   1.000  F
