data_image0
_cell_length_a       11.984
_cell_length_b       12.9129
_cell_length_c       13.3401
_cell_angle_alpha    77.355
_cell_angle_beta     65.196
_cell_angle_gamma    79.034

_symmetry_space_group_name_H-M    "P 1"
_symmetry_int_tables_number       1

loop_
  _symmetry_equiv_pos_as_xyz
  'x, y, z'

loop_
  _atom_site_label
  _atom_site_occupancy
  _atom_site_fract_x
  _atom_site_fract_y
  _atom_site_fract_z
  _atom_site_thermal_displace_type
  _atom_site_B_iso_or_equiv
  _atom_site_type_symbol
  W1       1.0000 0.23733  0.65830  0.46731  Biso   1.000  W
  W2       1.0000 0.76267  0.34170  0.53269  Biso   1.000  W
  W3       1.0000 0.28431  0.37843  0.45831  Biso   1.000  W
  W4       1.0000 0.71569  0.62157  0.54169  Biso   1.000  W
  W5       1.0000 0.54807  0.22155  0.48831  Biso   1.000  W
  W6       1.0000 0.45193  0.77845  0.51169  Biso   1.000  W
  W7       1.0000 0.74229  0.39938  0.26912  Biso   1.000  W
  W8       1.0000 0.25771  0.60062  0.73088  Biso   1.000  W
  W9       1.0000 0.47777  0.55285  0.23502  Biso   1.000  W
  W10      1.0000 0.52223  0.44715  0.76498  Biso   1.000  W
  W11      1.0000 0.69182  0.67556  0.27843  Biso   1.000  W
  W12      1.0000 0.30818  0.32444  0.72157  Biso   1.000  W
  O1       1.0000 0.40900  0.52500  0.44100  Biso   1.000  O
  O2       1.0000 0.59100  0.47500  0.55900  Biso   1.000  O
  O3       1.0000 0.60800  0.40400  0.46400  Biso   1.000  O
  O4       1.0000 0.39200  0.59600  0.53600  Biso   1.000  O
  O5       1.0000 0.57100  0.61400  0.47100  Biso   1.000  O
  O6       1.0000 0.42900  0.38600  0.52900  Biso   1.000  O
  O7       1.0000 0.42800  0.48400  0.63700  Biso   1.000  O
  O8       1.0000 0.57200  0.51600  0.36300  Biso   1.000  O
  O9       1.0000 0.19940  0.51730  0.48160  Biso   1.000  O
  O10      1.0000 0.80060  0.48270  0.51840  Biso   1.000  O
  O11      1.0000 0.34230  0.64740  0.31570  Biso   1.000  O
  O12      1.0000 0.65770  0.35260  0.68430  Biso   1.000  O
  O13      1.0000 0.18780  0.63190  0.62510  Biso   1.000  O
  O14      1.0000 0.81220  0.36810  0.37490  Biso   1.000  O
  O15      1.0000 0.11320  0.73300  0.45100  Biso   1.000  O
  O16      1.0000 0.88680  0.26700  0.54900  Biso   1.000  O
  O17      1.0000 0.41390  0.26710  0.44370  Biso   1.000  O
  O18      1.0000 0.58610  0.73290  0.55630  Biso   1.000  O
  O19      1.0000 0.38090  0.43760  0.30680  Biso   1.000  O
  O20      1.0000 0.61910  0.56240  0.69320  Biso   1.000  O
  O21      1.0000 0.23780  0.34210  0.61510  Biso   1.000  O
  O22      1.0000 0.76220  0.65790  0.38490  Biso   1.000  O
  O23      1.0000 0.17770  0.32640  0.43950  Biso   1.000  O
  O24      1.0000 0.82230  0.67360  0.56050  Biso   1.000  O
  O25      1.0000 0.65840  0.27460  0.34200  Biso   1.000  O
  O26      1.0000 0.34160  0.72540  0.65800  Biso   1.000  O
  O27      1.0000 0.66780  0.23380  0.54190  Biso   1.000  O
  O28      1.0000 0.33220  0.76620  0.45810  Biso   1.000  O
  O29      1.0000 0.43480  0.22660  0.63740  Biso   1.000  O
  O30      1.0000 0.56520  0.77340  0.36260  Biso   1.000  O
  O31      1.0000 0.57480  0.09060  0.48130  Biso   1.000  O
  O32      1.0000 0.42520  0.90940  0.51870  Biso   1.000  O
  O33      1.0000 0.61770  0.44810  0.21360  Biso   1.000  O
  O34      1.0000 0.38230  0.55190  0.78640  Biso   1.000  O
  O35      1.0000 0.77890  0.54120  0.24150  Biso   1.000  O
  O36      1.0000 0.22110  0.45880  0.75850  Biso   1.000  O
  O37      1.0000 0.85830  0.35030  0.16000  Biso   1.000  O
  O38      1.0000 0.14170  0.64970  0.84000  Biso   1.000  O
  O39      1.0000 0.58480  0.65740  0.20920  Biso   1.000  O
  O40      1.0000 0.41520  0.34260  0.79080  Biso   1.000  O
  O41      1.0000 0.46650  0.57930  0.11090  Biso   1.000  O
  O42      1.0000 0.53350  0.42070  0.88910  Biso   1.000  O
  O43      1.0000 0.78590  0.75630  0.17400  Biso   1.000  O
  O44      1.0000 0.21410  0.24370  0.82600  Biso   1.000  O
  Si1      1.0000 0.50000  0.50000  0.50000  Biso   1.000  Si
  Cu1      1.0000 0.97205  0.03906  0.09451  Biso   1.000  Cu
  Cu2      1.0000 0.02795  0.96094  0.90549  Biso   1.000  Cu
  N1       1.0000 0.89000  0.48560  0.85000  Biso   1.000  N
  N2       1.0000 0.11000  0.51440  0.15000  Biso   1.000  N
  N3       1.0000 0.56700  0.01980  0.77140  Biso   1.000  N
  N4       1.0000 0.43300  0.98020  0.22860  Biso   1.000  N
  O45      1.0000 0.94710  0.17730  0.00410  Biso   1.000  O
  O46      1.0000 0.05290  0.82270  0.99590  Biso   1.000  O
  O47      1.0000 0.99370  0.11210  0.84690  Biso   1.000  O
  O48      1.0000 0.00630  0.88790  0.15310  Biso   1.000  O
  O49      1.0000 0.15190  0.05370  0.03580  Biso   1.000  O
  O50      1.0000 0.84810  0.94630  0.96420  Biso   1.000  O
  O51      1.0000 0.19560  0.98790  0.87980  Biso   1.000  O
  O52      1.0000 0.80440  0.01210  0.12020  Biso   1.000  O
  O53      1.0000 0.90010  0.09150  0.25300  Biso   1.000  O
  O54      1.0000 0.09990  0.90850  0.74700  Biso   1.000  O
  H1       1.0000 0.95850  0.07900  0.27570  Biso   1.000  H
  H2       1.0000 0.04150  0.92100  0.72430  Biso   1.000  H
  H3       1.0000 0.84520  0.05140  0.29770  Biso   1.000  H
  H4       1.0000 0.15480  0.94860  0.70230  Biso   1.000  H
  C1       1.0000 0.96300  0.18890  0.90410  Biso   1.000  C
  C2       1.0000 0.03700  0.81110  0.09590  Biso   1.000  C
  C3       1.0000 0.90730  0.38480  0.90470  Biso   1.000  C
  C4       1.0000 0.09270  0.61520  0.09530  Biso   1.000  C
  H5       1.0000 0.89380  0.37310  0.98000  Biso   1.000  H
  H6       1.0000 0.10620  0.62690  0.02000  Biso   1.000  H
  C5       1.0000 0.94600  0.29980  0.84380  Biso   1.000  C
  C6       1.0000 0.05400  0.70020  0.15620  Biso   1.000  C
  C7       1.0000 0.96670  0.32020  0.73150  Biso   1.000  C
  C8       1.0000 0.03330  0.67980  0.26850  Biso   1.000  C
  H7       1.0000 0.98710  0.26380  0.69180  Biso   1.000  H
  H8       1.0000 0.01290  0.73620  0.30820  Biso   1.000  H
  C9       1.0000 0.95740  0.42270  0.67880  Biso   1.000  C
  C10      1.0000 0.04260  0.57730  0.32120  Biso   1.000  C
  H9       1.0000 0.97740  0.43720  0.60220  Biso   1.000  H
  H10      1.0000 0.02260  0.56280  0.39780  Biso   1.000  H
  C11      1.0000 0.91790  0.50350  0.74100  Biso   1.000  C
  C12      1.0000 0.08210  0.49650  0.25900  Biso   1.000  C
  H11      1.0000 0.91050  0.57350  0.70570  Biso   1.000  H
  H12      1.0000 0.08950  0.42650  0.29430  Biso   1.000  H
  C13      1.0000 0.22190  0.03060  0.94170  Biso   1.000  C
  C14      1.0000 0.77810  0.96940  0.05830  Biso   1.000  C
  C15      1.0000 0.44640  0.00240  0.80970  Biso   1.000  C
  C16      1.0000 0.55360  0.99760  0.19030  Biso   1.000  C
  H13      1.0000 0.42340  0.95970  0.77530  Biso   1.000  H
  H14      1.0000 0.57660  0.04030  0.22470  Biso   1.000  H
  C17      1.0000 0.35520  0.04970  0.90240  Biso   1.000  C
  C18      1.0000 0.64480  0.95030  0.09760  Biso   1.000  C
  C19      1.0000 0.39490  0.11830  0.94740  Biso   1.000  C
  C20      1.0000 0.60510  0.88170  0.05260  Biso   1.000  C
  H15      1.0000 0.33870  0.15180  0.00700  Biso   1.000  H
  H16      1.0000 0.66130  0.84820  0.99300  Biso   1.000  H
  C21      1.0000 0.51610  0.13440  0.90240  Biso   1.000  C
  C22      1.0000 0.48390  0.86560  0.09760  Biso   1.000  C
  H17      1.0000 0.54160  0.18030  0.93150  Biso   1.000  H
  H18      1.0000 0.45840  0.81970  0.06850  Biso   1.000  H
  C23      1.0000 0.60130  0.08580  0.81630  Biso   1.000  C
  C24      1.0000 0.39870  0.91420  0.18370  Biso   1.000  C
  H19      1.0000 0.68370  0.09820  0.78800  Biso   1.000  H
  H20      1.0000 0.31630  0.90180  0.21200  Biso   1.000  H
  C25      1.0000 0.84720  0.57480  0.91830  Biso   1.000  C
  C26      1.0000 0.15280  0.42520  0.08170  Biso   1.000  C
  H21      1.0000 0.78340  0.55210  0.99050  Biso   1.000  H
  H22      1.0000 0.21660  0.44790  0.00950  Biso   1.000  H
  H23      1.0000 0.91610  0.58960  0.93120  Biso   1.000  H
  H24      1.0000 0.08390  0.41040  0.06880  Biso   1.000  H
  C27      1.0000 0.66300  0.95460  0.68470  Biso   1.000  C
  C28      1.0000 0.33700  0.04540  0.31530  Biso   1.000  C
  H25      1.0000 0.62570  0.93510  0.64050  Biso   1.000  H
  H26      1.0000 0.37430  0.06490  0.35950  Biso   1.000  H
  H27      1.0000 0.73010  0.99650  0.63490  Biso   1.000  H
  H28      1.0000 0.26990  0.00350  0.36510  Biso   1.000  H
  C29      1.0000 0.79730  0.67520  0.86260  Biso   1.000  C
  C30      1.0000 0.20270  0.32480  0.13740  Biso   1.000  C
  C31      1.0000 0.68140  0.68120  0.85790  Biso   1.000  C
  C32      1.0000 0.31860  0.31880  0.14210  Biso   1.000  C
  H29      1.0000 0.63300  0.62510  0.89380  Biso   1.000  H
  H30      1.0000 0.36700  0.37490  0.10620  Biso   1.000  H
  C33      1.0000 0.63950  0.77100  0.79960  Biso   1.000  C
  C34      1.0000 0.36050  0.22900  0.20040  Biso   1.000  C
  H31      1.0000 0.56220  0.77510  0.79750  Biso   1.000  H
  H32      1.0000 0.43780  0.22490  0.20250  Biso   1.000  H
  C35      1.0000 0.71170  0.85610  0.74350  Biso   1.000  C
  C36      1.0000 0.28830  0.14390  0.25650  Biso   1.000  C
  C37      1.0000 0.82530  0.84910  0.74970  Biso   1.000  C
  C38      1.0000 0.17470  0.15090  0.25030  Biso   1.000  C
  H33      1.0000 0.87440  0.90460  0.71300  Biso   1.000  H
  H34      1.0000 0.12560  0.09540  0.28700  Biso   1.000  H
  C39      1.0000 0.86730  0.75960  0.81050  Biso   1.000  C
  C40      1.0000 0.13270  0.24040  0.18950  Biso   1.000  C
  H35      1.0000 0.94270  0.75700  0.81580  Biso   1.000  H
  H36      1.0000 0.05730  0.24300  0.18420  Biso   1.000  H
  O55      1.0000 0.97600  0.94500  0.43800  Biso   1.000  O
  O56      1.0000 0.02400  0.05500  0.56200  Biso   1.000  O
  H37      1.0000 0.01600  0.88380  0.44120  Biso   1.000  H
  H38      1.0000 0.98400  0.11620  0.55880  Biso   1.000  H
  H39      1.0000 0.99130  0.98170  0.47590  Biso   1.000  H
  H40      1.0000 0.00870  0.01830  0.52410  Biso   1.000  H
  O57      1.0000 0.65500  0.24400  0.04900  Biso   1.000  O
  O58      1.0000 0.34500  0.75600  0.95100  Biso   1.000  O
  H41      1.0000 0.63690  0.29090  0.00080  Biso   1.000  H
  H42      1.0000 0.36310  0.70910  0.99920  Biso   1.000  H
  H43      1.0000 0.73350  0.23440  0.02740  Biso   1.000  H
  H44      1.0000 0.26650  0.76560  0.97260  Biso   1.000  H
  O59      1.0000 0.76800  0.92000  0.39300  Biso   1.000  O
  O60      1.0000 0.23200  0.08000  0.60700  Biso   1.000  O
  H45      1.0000 0.71150  0.96960  0.41800  Biso   1.000  H
  H46      1.0000 0.28850  0.03040  0.58200  Biso   1.000  H
  H47      1.0000 0.82980  0.92580  0.40610  Biso   1.000  H
  H48      1.0000 0.17020  0.07420  0.59390  Biso   1.000  H
  H49      1.0000 0.89860  0.93980  0.46550  Biso   1.000  H
  H50      1.0000 0.10140  0.06020  0.53450  Biso   1.000  H
  H51      1.0000 0.74210  0.85950  0.42390  Biso   1.000  H
  H52      1.0000 0.25790  0.14050  0.57610  Biso   1.000  H
