data_image0
_cell_length_a       10.1355
_cell_length_b       8.5444
_cell_length_c       24.4307
_cell_angle_alpha    90
_cell_angle_beta     98.213
_cell_angle_gamma    90

_symmetry_space_group_name_H-M    "P 1"
_symmetry_int_tables_number       1

loop_
  _symmetry_equiv_pos_as_xyz
  'x, y, z'

loop_
  _atom_site_label
  _atom_site_occupancy
  _atom_site_fract_x
  _atom_site_fract_y
  _atom_site_fract_z
  _atom_site_thermal_displace_type
  _atom_site_B_iso_or_equiv
  _atom_site_type_symbol
  Cu1      1.0000 0.20178  0.19307  0.10698  Biso   1.000  Cu
  Cu2      1.0000 0.79822  0.69307  0.39302  Biso   1.000  Cu
  Cu3      1.0000 0.79822  0.80693  0.89302  Biso   1.000  Cu
  Cu4      1.0000 0.20178  0.30693  0.60698  Biso   1.000  Cu
  Cu5      1.0000 0.00000  0.00000  0.00000  Biso   1.000  Cu
  Cu6      1.0000 0.00000  0.50000  0.50000  Biso   1.000  Cu
  Cl1      1.0000 0.13125  0.20849  0.00041  Biso   1.000  Cl
  Cl2      1.0000 0.86875  0.70849  0.49959  Biso   1.000  Cl
  Cl3      1.0000 0.86875  0.79151  0.99959  Biso   1.000  Cl
  Cl4      1.0000 0.13125  0.29151  0.50041  Biso   1.000  Cl
  Cl5      1.0000 0.09867  0.94523  0.08852  Biso   1.000  Cl
  Cl6      1.0000 0.90133  0.44523  0.41148  Biso   1.000  Cl
  Cl7      1.0000 0.90133  0.05477  0.91148  Biso   1.000  Cl
  Cl8      1.0000 0.09867  0.55477  0.58852  Biso   1.000  Cl
  Cl9      1.0000 0.29553  0.42665  0.12881  Biso   1.000  Cl
  Cl10     1.0000 0.70447  0.92665  0.37119  Biso   1.000  Cl
  Cl11     1.0000 0.70447  0.57335  0.87119  Biso   1.000  Cl
  Cl12     1.0000 0.29553  0.07335  0.62881  Biso   1.000  Cl
  C1       1.0000 0.83600  0.20970  0.24444  Biso   1.000  C
  C2       1.0000 0.16400  0.70970  0.25556  Biso   1.000  C
  C3       1.0000 0.16400  0.79030  0.75556  Biso   1.000  C
  C4       1.0000 0.83600  0.29030  0.74444  Biso   1.000  C
  C5       1.0000 0.71970  0.10050  0.22310  Biso   1.000  C
  C6       1.0000 0.28030  0.60050  0.27690  Biso   1.000  C
  C7       1.0000 0.28030  0.89950  0.77690  Biso   1.000  C
  C8       1.0000 0.71970  0.39950  0.72310  Biso   1.000  C
  H1       1.0000 0.67660  0.06810  0.25420  Biso   1.000  H
  H2       1.0000 0.32340  0.56810  0.24580  Biso   1.000  H
  H3       1.0000 0.32340  0.93190  0.74580  Biso   1.000  H
  H4       1.0000 0.67660  0.43190  0.75420  Biso   1.000  H
  H5       1.0000 0.65490  0.15930  0.19820  Biso   1.000  H
  H6       1.0000 0.34510  0.65930  0.30180  Biso   1.000  H
  H7       1.0000 0.34510  0.84070  0.80180  Biso   1.000  H
  H8       1.0000 0.65490  0.34070  0.69820  Biso   1.000  H
  C9       1.0000 0.75775  0.95460  0.19312  Biso   1.000  C
  C10      1.0000 0.24225  0.45460  0.30688  Biso   1.000  C
  C11      1.0000 0.24225  0.04540  0.80688  Biso   1.000  C
  C12      1.0000 0.75775  0.54540  0.69312  Biso   1.000  C
  H9       1.0000 0.81680  0.89130  0.21890  Biso   1.000  H
  H10      1.0000 0.18320  0.39130  0.28110  Biso   1.000  H
  H11      1.0000 0.18320  0.10870  0.78110  Biso   1.000  H
  H12      1.0000 0.81680  0.60870  0.71890  Biso   1.000  H
  H13      1.0000 0.80710  0.98640  0.16380  Biso   1.000  H
  H14      1.0000 0.19290  0.48640  0.33620  Biso   1.000  H
  H15      1.0000 0.19290  0.01360  0.83620  Biso   1.000  H
  H16      1.0000 0.80710  0.51360  0.66380  Biso   1.000  H
  C13      1.0000 0.63942  0.85310  0.16799  Biso   1.000  C
  C14      1.0000 0.36058  0.35310  0.33201  Biso   1.000  C
  C15      1.0000 0.36058  0.14690  0.83201  Biso   1.000  C
  C16      1.0000 0.63942  0.64690  0.66799  Biso   1.000  C
  C17      1.0000 0.93790  0.13240  0.28759  Biso   1.000  C
  C18      1.0000 0.06210  0.63240  0.21241  Biso   1.000  C
  C19      1.0000 0.06210  0.86760  0.71241  Biso   1.000  C
  C20      1.0000 0.93790  0.36760  0.78759  Biso   1.000  C
  H17      1.0000 0.97520  0.04290  0.27170  Biso   1.000  H
  H18      1.0000 0.02480  0.54290  0.22830  Biso   1.000  H
  H19      1.0000 0.02480  0.95710  0.72830  Biso   1.000  H
  H20      1.0000 0.97520  0.45710  0.77170  Biso   1.000  H
  H21      1.0000 0.89540  0.09980  0.31840  Biso   1.000  H
  H22      1.0000 0.10460  0.59980  0.18160  Biso   1.000  H
  H23      1.0000 0.10460  0.90020  0.68160  Biso   1.000  H
  H24      1.0000 0.89540  0.40020  0.81840  Biso   1.000  H
  H25      1.0000 0.00760  0.20560  0.30000  Biso   1.000  H
  H26      1.0000 0.99240  0.70560  0.20000  Biso   1.000  H
  H27      1.0000 0.99240  0.79440  0.70000  Biso   1.000  H
  H28      1.0000 0.00760  0.29440  0.80000  Biso   1.000  H
  C21      1.0000 0.78280  0.35900  0.26727  Biso   1.000  C
  C22      1.0000 0.21720  0.85900  0.23273  Biso   1.000  C
  C23      1.0000 0.21720  0.64100  0.73273  Biso   1.000  C
  C24      1.0000 0.78280  0.14100  0.76727  Biso   1.000  C
  H29      1.0000 0.85520  0.43050  0.27770  Biso   1.000  H
  H30      1.0000 0.14480  0.93050  0.22230  Biso   1.000  H
  H31      1.0000 0.14480  0.56950  0.72230  Biso   1.000  H
  H32      1.0000 0.85520  0.06950  0.77770  Biso   1.000  H
  H33      1.0000 0.74110  0.33440  0.29910  Biso   1.000  H
  H34      1.0000 0.25890  0.83440  0.20090  Biso   1.000  H
  H35      1.0000 0.25890  0.66560  0.70090  Biso   1.000  H
  H36      1.0000 0.74110  0.16560  0.79910  Biso   1.000  H
  H37      1.0000 0.71870  0.40640  0.23950  Biso   1.000  H
  H38      1.0000 0.28130  0.90640  0.26050  Biso   1.000  H
  H39      1.0000 0.28130  0.59360  0.76050  Biso   1.000  H
  H40      1.0000 0.71870  0.09360  0.73950  Biso   1.000  H
  C25      1.0000 0.56500  0.78180  0.21162  Biso   1.000  C
  C26      1.0000 0.43500  0.28180  0.28838  Biso   1.000  C
  C27      1.0000 0.43500  0.21820  0.78838  Biso   1.000  C
  C28      1.0000 0.56500  0.71820  0.71162  Biso   1.000  C
  H41      1.0000 0.53190  0.86380  0.23280  Biso   1.000  H
  H42      1.0000 0.46810  0.36380  0.26720  Biso   1.000  H
  H43      1.0000 0.46810  0.13620  0.76720  Biso   1.000  H
  H44      1.0000 0.53190  0.63620  0.73280  Biso   1.000  H
  H45      1.0000 0.62440  0.71610  0.23570  Biso   1.000  H
  H46      1.0000 0.37560  0.21610  0.26430  Biso   1.000  H
  H47      1.0000 0.37560  0.28390  0.76430  Biso   1.000  H
  H48      1.0000 0.62440  0.78390  0.73570  Biso   1.000  H
  H49      1.0000 0.49170  0.72050  0.19400  Biso   1.000  H
  H50      1.0000 0.50830  0.22050  0.30600  Biso   1.000  H
  H51      1.0000 0.50830  0.27950  0.80600  Biso   1.000  H
  H52      1.0000 0.49170  0.77950  0.69400  Biso   1.000  H
  C29      1.0000 0.68560  0.72670  0.13086  Biso   1.000  C
  C30      1.0000 0.31440  0.22670  0.36914  Biso   1.000  C
  C31      1.0000 0.31440  0.27330  0.86914  Biso   1.000  C
  C32      1.0000 0.68560  0.77330  0.63086  Biso   1.000  C
  H53      1.0000 0.60990  0.66790  0.11390  Biso   1.000  H
  H54      1.0000 0.39010  0.16790  0.38610  Biso   1.000  H
  H55      1.0000 0.39010  0.33210  0.88610  Biso   1.000  H
  H56      1.0000 0.60990  0.83210  0.61390  Biso   1.000  H
  H57      1.0000 0.74700  0.65800  0.15260  Biso   1.000  H
  H58      1.0000 0.25300  0.15800  0.34740  Biso   1.000  H
  H59      1.0000 0.25300  0.34200  0.84740  Biso   1.000  H
  H60      1.0000 0.74700  0.84200  0.65260  Biso   1.000  H
  H61      1.0000 0.72880  0.77490  0.10270  Biso   1.000  H
  H62      1.0000 0.27120  0.27490  0.39730  Biso   1.000  H
  H63      1.0000 0.27120  0.22510  0.89730  Biso   1.000  H
  H64      1.0000 0.72880  0.72510  0.60270  Biso   1.000  H
  C33      1.0000 0.90940  0.43820  0.06754  Biso   1.000  C
  C34      1.0000 0.09060  0.93820  0.43246  Biso   1.000  C
  C35      1.0000 0.09060  0.56180  0.93246  Biso   1.000  C
  C36      1.0000 0.90940  0.06180  0.56754  Biso   1.000  C
  H65      1.0000 0.99480  0.45200  0.05460  Biso   1.000  H
  H66      1.0000 0.00520  0.95200  0.44540  Biso   1.000  H
  H67      1.0000 0.00520  0.54800  0.94540  Biso   1.000  H
  H68      1.0000 0.99480  0.04800  0.55460  Biso   1.000  H
  H69      1.0000 0.87510  0.54120  0.07460  Biso   1.000  H
  H70      1.0000 0.12490  0.04120  0.42540  Biso   1.000  H
  H71      1.0000 0.12490  0.45880  0.92540  Biso   1.000  H
  H72      1.0000 0.87510  0.95880  0.57460  Biso   1.000  H
  C37      1.0000 0.81430  0.35920  0.02284  Biso   1.000  C
  C38      1.0000 0.18570  0.85920  0.47716  Biso   1.000  C
  C39      1.0000 0.18570  0.64080  0.97716  Biso   1.000  C
  C40      1.0000 0.81430  0.14080  0.52284  Biso   1.000  C
  H73      1.0000 0.80820  0.41900  0.98880  Biso   1.000  H
  H74      1.0000 0.19180  0.91900  0.51120  Biso   1.000  H
  H75      1.0000 0.19180  0.58100  0.01120  Biso   1.000  H
  H76      1.0000 0.80820  0.08100  0.48880  Biso   1.000  H
  H77      1.0000 0.84670  0.25530  0.01590  Biso   1.000  H
  H78      1.0000 0.15330  0.75530  0.48410  Biso   1.000  H
  H79      1.0000 0.15330  0.74470  0.98410  Biso   1.000  H
  H80      1.0000 0.84670  0.24470  0.51590  Biso   1.000  H
  O1       1.0000 0.68792  0.34850  0.03985  Biso   1.000  O
  O2       1.0000 0.31208  0.84850  0.46015  Biso   1.000  O
  O3       1.0000 0.31208  0.65150  0.96015  Biso   1.000  O
  O4       1.0000 0.68792  0.15150  0.53985  Biso   1.000  O
  C41      1.0000 0.59840  0.25960  0.00165  Biso   1.000  C
  C42      1.0000 0.40160  0.75960  0.49835  Biso   1.000  C
  C43      1.0000 0.40160  0.74040  0.99835  Biso   1.000  C
  C44      1.0000 0.59840  0.24040  0.50165  Biso   1.000  C
  H81      1.0000 0.63700  0.15840  0.99550  Biso   1.000  H
  H82      1.0000 0.36300  0.65840  0.50450  Biso   1.000  H
  H83      1.0000 0.36300  0.84160  0.00450  Biso   1.000  H
  H84      1.0000 0.63700  0.34160  0.49550  Biso   1.000  H
  H85      1.0000 0.58090  0.31390  0.96650  Biso   1.000  H
  H86      1.0000 0.41910  0.81390  0.53350  Biso   1.000  H
  H87      1.0000 0.41910  0.68610  0.03350  Biso   1.000  H
  H88      1.0000 0.58090  0.18610  0.46650  Biso   1.000  H
  C45      1.0000 0.47110  0.23880  0.02564  Biso   1.000  C
  C46      1.0000 0.52890  0.73880  0.47436  Biso   1.000  C
  C47      1.0000 0.52890  0.76120  0.97436  Biso   1.000  C
  C48      1.0000 0.47110  0.26120  0.52564  Biso   1.000  C
  H89      1.0000 0.44330  0.33990  0.03800  Biso   1.000  H
  H90      1.0000 0.55670  0.83990  0.46200  Biso   1.000  H
  H91      1.0000 0.55670  0.66010  0.96200  Biso   1.000  H
  H92      1.0000 0.44330  0.16010  0.53800  Biso   1.000  H
  H93      1.0000 0.40240  0.20240  0.99670  Biso   1.000  H
  H94      1.0000 0.59760  0.70240  0.50330  Biso   1.000  H
  H95      1.0000 0.59760  0.79760  0.00330  Biso   1.000  H
  H96      1.0000 0.40240  0.29760  0.49670  Biso   1.000  H
  N1       1.0000 0.84367  0.34730  0.15630  Biso   1.000  N
  N2       1.0000 0.15633  0.84730  0.34370  Biso   1.000  N
  N3       1.0000 0.15633  0.65270  0.84370  Biso   1.000  N
  N4       1.0000 0.84367  0.15270  0.65630  Biso   1.000  N
  N5       1.0000 0.90265  0.25420  0.19589  Biso   1.000  N
  N6       1.0000 0.09735  0.75420  0.30411  Biso   1.000  N
  N7       1.0000 0.09735  0.74580  0.80411  Biso   1.000  N
  N8       1.0000 0.90265  0.24580  0.69589  Biso   1.000  N
  N9       1.0000 0.01727  0.19750  0.18619  Biso   1.000  N
  N10      1.0000 0.98273  0.69750  0.31381  Biso   1.000  N
  N11      1.0000 0.98273  0.80250  0.81381  Biso   1.000  N
  N12      1.0000 0.01727  0.30250  0.68619  Biso   1.000  N
  N13      1.0000 0.03534  0.25650  0.13761  Biso   1.000  N
  N14      1.0000 0.96466  0.75650  0.36239  Biso   1.000  N
  N15      1.0000 0.96466  0.74350  0.86239  Biso   1.000  N
  N16      1.0000 0.03534  0.24350  0.63761  Biso   1.000  N
  C49      1.0000 0.92919  0.34800  0.11984  Biso   1.000  C
  C50      1.0000 0.07081  0.84800  0.38016  Biso   1.000  C
  C51      1.0000 0.07081  0.65200  0.88016  Biso   1.000  C
  C52      1.0000 0.92919  0.15200  0.61984  Biso   1.000  C
  N17      1.0000 0.58579  0.03780  0.08994  Biso   1.000  N
  N18      1.0000 0.41421  0.53780  0.41006  Biso   1.000  N
  N19      1.0000 0.41421  0.96220  0.91006  Biso   1.000  N
  N20      1.0000 0.58579  0.46220  0.58994  Biso   1.000  N
  N21      1.0000 0.54659  0.95880  0.13183  Biso   1.000  N
  N22      1.0000 0.45341  0.45880  0.36817  Biso   1.000  N
  N23      1.0000 0.45341  0.04120  0.86817  Biso   1.000  N
  N24      1.0000 0.54659  0.54120  0.63183  Biso   1.000  N
  N25      1.0000 0.42584  0.99310  0.14114  Biso   1.000  N
  N26      1.0000 0.57416  0.49310  0.35886  Biso   1.000  N
  N27      1.0000 0.57416  0.00690  0.85886  Biso   1.000  N
  N28      1.0000 0.42584  0.50690  0.64114  Biso   1.000  N
  N29      1.0000 0.38210  0.09930  0.10361  Biso   1.000  N
  N30      1.0000 0.61790  0.59930  0.39639  Biso   1.000  N
  N31      1.0000 0.61790  0.90070  0.89639  Biso   1.000  N
  N32      1.0000 0.38210  0.40070  0.60361  Biso   1.000  N
  C53      1.0000 0.48086  0.12760  0.07261  Biso   1.000  C
  C54      1.0000 0.51914  0.62760  0.42739  Biso   1.000  C
  C55      1.0000 0.51914  0.87240  0.92739  Biso   1.000  C
  C56      1.0000 0.48086  0.37240  0.57261  Biso   1.000  C
