data_image0
_cell_length_a       10.138
_cell_length_b       8.064
_cell_length_c       15.536
_cell_angle_alpha    90
_cell_angle_beta     99
_cell_angle_gamma    90

_symmetry_space_group_name_H-M    "P 1"
_symmetry_int_tables_number       1

loop_
  _symmetry_equiv_pos_as_xyz
  'x, y, z'

loop_
  _atom_site_label
  _atom_site_occupancy
  _atom_site_fract_x
  _atom_site_fract_y
  _atom_site_fract_z
  _atom_site_thermal_displace_type
  _atom_site_B_iso_or_equiv
  _atom_site_type_symbol
  Cu1      1.0000 0.69881  0.38310  0.26549  Biso   1.000  Cu
  Cu2      1.0000 0.80119  0.88310  0.23451  Biso   1.000  Cu
  Cu3      1.0000 0.30119  0.61690  0.73451  Biso   1.000  Cu
  Cu4      1.0000 0.19881  0.11690  0.76549  Biso   1.000  Cu
  Cl1      1.0000 0.17530  0.25430  0.43300  Biso   1.000  Cl
  Cl2      1.0000 0.32470  0.75430  0.06700  Biso   1.000  Cl
  Cl3      1.0000 0.82470  0.74570  0.56700  Biso   1.000  Cl
  Cl4      1.0000 0.67530  0.24570  0.93300  Biso   1.000  Cl
  O1       1.0000 0.21770  0.12690  0.38160  Biso   1.000  O
  O2       1.0000 0.28230  0.62690  0.11840  Biso   1.000  O
  O3       1.0000 0.78230  0.87310  0.61840  Biso   1.000  O
  O4       1.0000 0.71770  0.37310  0.88160  Biso   1.000  O
  O5       1.0000 0.04410  0.21880  0.44670  Biso   1.000  O
  O6       1.0000 0.45590  0.71880  0.05330  Biso   1.000  O
  O7       1.0000 0.95590  0.78120  0.55330  Biso   1.000  O
  O8       1.0000 0.54410  0.28120  0.94670  Biso   1.000  O
  O9       1.0000 0.25660  0.25660  0.51080  Biso   1.000  O
  O10      1.0000 0.24340  0.75660  0.98920  Biso   1.000  O
  O11      1.0000 0.74340  0.74340  0.48920  Biso   1.000  O
  O12      1.0000 0.75660  0.24340  0.01080  Biso   1.000  O
  O13      1.0000 0.18670  0.40400  0.39130  Biso   1.000  O
  O14      1.0000 0.31330  0.90400  0.10870  Biso   1.000  O
  O15      1.0000 0.81330  0.59600  0.60870  Biso   1.000  O
  O16      1.0000 0.68670  0.09600  0.89130  Biso   1.000  O
  O17      1.0000 0.86180  0.43870  0.21710  Biso   1.000  O
  O18      1.0000 0.63820  0.93870  0.28290  Biso   1.000  O
  O19      1.0000 0.13820  0.56130  0.78290  Biso   1.000  O
  O20      1.0000 0.36180  0.06130  0.71710  Biso   1.000  O
  O21      1.0000 0.86880  0.16540  0.21780  Biso   1.000  O
  O22      1.0000 0.63120  0.66540  0.28220  Biso   1.000  O
  O23      1.0000 0.13120  0.83460  0.78220  Biso   1.000  O
  O24      1.0000 0.36880  0.33460  0.71780  Biso   1.000  O
  N1       1.0000 0.57850  0.38880  0.15240  Biso   1.000  N
  N2       1.0000 0.92150  0.88880  0.34760  Biso   1.000  N
  N3       1.0000 0.42150  0.61120  0.84760  Biso   1.000  N
  N4       1.0000 0.07850  0.11120  0.65240  Biso   1.000  N
  N5       1.0000 0.55070  0.26740  0.30820  Biso   1.000  N
  N6       1.0000 0.94930  0.76740  0.19180  Biso   1.000  N
  N7       1.0000 0.44930  0.73260  0.69180  Biso   1.000  N
  N8       1.0000 0.05070  0.23260  0.80820  Biso   1.000  N
  N9       1.0000 0.78050  0.39340  0.39000  Biso   1.000  N
  N10      1.0000 0.71950  0.89340  0.11000  Biso   1.000  N
  N11      1.0000 0.21950  0.60660  0.61000  Biso   1.000  N
  N12      1.0000 0.28050  0.10660  0.89000  Biso   1.000  N
  C1       1.0000 0.45510  0.28500  0.15990  Biso   1.000  C
  C2       1.0000 0.04490  0.78500  0.34010  Biso   1.000  C
  C3       1.0000 0.54490  0.71500  0.84010  Biso   1.000  C
  C4       1.0000 0.95510  0.21500  0.65990  Biso   1.000  C
  C5       1.0000 0.42560  0.29900  0.25000  Biso   1.000  C
  C6       1.0000 0.07440  0.79900  0.25000  Biso   1.000  C
  C7       1.0000 0.57440  0.70100  0.75000  Biso   1.000  C
  C8       1.0000 0.92560  0.20100  0.75000  Biso   1.000  C
  C9       1.0000 0.55620  0.30800  0.40200  Biso   1.000  C
  C10      1.0000 0.94380  0.80800  0.09800  Biso   1.000  C
  C11      1.0000 0.44380  0.69200  0.59800  Biso   1.000  C
  C12      1.0000 0.05620  0.19200  0.90200  Biso   1.000  C
  C13      1.0000 0.69860  0.29300  0.44300  Biso   1.000  C
  C14      1.0000 0.80140  0.79300  0.05700  Biso   1.000  C
  C15      1.0000 0.30140  0.70700  0.55700  Biso   1.000  C
  C16      1.0000 0.19860  0.20700  0.94300  Biso   1.000  C
  C17      1.0000 0.91760  0.30100  0.20080  Biso   1.000  C
  C18      1.0000 0.58240  0.80100  0.29920  Biso   1.000  C
  C19      1.0000 0.08240  0.69900  0.79920  Biso   1.000  C
  C20      1.0000 0.41760  0.19900  0.70080  Biso   1.000  C
  C21      1.0000 0.04360  0.30800  0.16330  Biso   1.000  C
  C22      1.0000 0.45640  0.80800  0.33670  Biso   1.000  C
  C23      1.0000 0.95640  0.69200  0.83670  Biso   1.000  C
  C24      1.0000 0.54360  0.19200  0.66330  Biso   1.000  C
  H1       1.0000 0.37940  0.32650  0.11630  Biso   1.000  H
  H2       1.0000 0.12060  0.82650  0.38370  Biso   1.000  H
  H3       1.0000 0.62060  0.67350  0.88370  Biso   1.000  H
  H4       1.0000 0.87940  0.17350  0.61630  Biso   1.000  H
  H5       1.0000 0.47710  0.16840  0.14500  Biso   1.000  H
  H6       1.0000 0.02290  0.66840  0.35500  Biso   1.000  H
  H7       1.0000 0.52290  0.83160  0.85500  Biso   1.000  H
  H8       1.0000 0.97710  0.33160  0.64500  Biso   1.000  H
  H9       1.0000 0.35630  0.21730  0.25940  Biso   1.000  H
  H10      1.0000 0.14370  0.71730  0.24060  Biso   1.000  H
  H11      1.0000 0.64370  0.78270  0.74060  Biso   1.000  H
  H12      1.0000 0.85630  0.28270  0.75940  Biso   1.000  H
  H13      1.0000 0.39620  0.41360  0.26190  Biso   1.000  H
  H14      1.0000 0.10380  0.91360  0.23810  Biso   1.000  H
  H15      1.0000 0.60380  0.58640  0.73810  Biso   1.000  H
  H16      1.0000 0.89620  0.08640  0.76190  Biso   1.000  H
  H17      1.0000 0.52090  0.42280  0.40600  Biso   1.000  H
  H18      1.0000 0.97910  0.92280  0.09400  Biso   1.000  H
  H19      1.0000 0.47910  0.57720  0.59400  Biso   1.000  H
  H20      1.0000 0.02090  0.07720  0.90600  Biso   1.000  H
  H21      1.0000 0.50060  0.22850  0.43040  Biso   1.000  H
  H22      1.0000 0.99940  0.72850  0.06960  Biso   1.000  H
  H23      1.0000 0.49940  0.77150  0.56960  Biso   1.000  H
  H24      1.0000 0.00060  0.27150  0.93040  Biso   1.000  H
  H25      1.0000 0.73050  0.17870  0.44190  Biso   1.000  H
  H26      1.0000 0.76950  0.67870  0.05810  Biso   1.000  H
  H27      1.0000 0.26950  0.82130  0.55810  Biso   1.000  H
  H28      1.0000 0.23050  0.32130  0.94190  Biso   1.000  H
  H29      1.0000 0.71160  0.33960  0.50260  Biso   1.000  H
  H30      1.0000 0.78840  0.83960  0.99740  Biso   1.000  H
  H31      1.0000 0.28840  0.66040  0.49740  Biso   1.000  H
  H32      1.0000 0.21160  0.16040  0.00260  Biso   1.000  H
  H33      1.0000 0.11330  0.39870  0.16600  Biso   1.000  H
  H34      1.0000 0.38670  0.89870  0.33400  Biso   1.000  H
  H35      1.0000 0.88670  0.60130  0.83400  Biso   1.000  H
  H36      1.0000 0.61330  0.10130  0.66600  Biso   1.000  H
  H37      1.0000 0.02730  0.38870  0.09960  Biso   1.000  H
  H38      1.0000 0.47270  0.88870  0.40040  Biso   1.000  H
  H39      1.0000 0.97270  0.61130  0.90040  Biso   1.000  H
  H40      1.0000 0.52730  0.11130  0.59960  Biso   1.000  H
  H41      1.0000 0.05660  0.22070  0.11520  Biso   1.000  H
  H42      1.0000 0.44340  0.72070  0.38480  Biso   1.000  H
  H43      1.0000 0.94340  0.77930  0.88480  Biso   1.000  H
  H44      1.0000 0.55660  0.27930  0.61520  Biso   1.000  H
  H45      1.0000 0.54000  0.50000  0.13000  Biso   1.000  H
  H46      1.0000 0.96000  0.00000  0.37000  Biso   1.000  H
  H47      1.0000 0.46000  0.50000  0.87000  Biso   1.000  H
  H48      1.0000 0.04000  0.00000  0.63000  Biso   1.000  H
  H49      1.0000 0.61000  0.36500  0.09700  Biso   1.000  H
  H50      1.0000 0.89000  0.86500  0.40300  Biso   1.000  H
  H51      1.0000 0.39000  0.63500  0.90300  Biso   1.000  H
  H52      1.0000 0.11000  0.13500  0.59700  Biso   1.000  H
  H53      1.0000 0.55800  0.14600  0.30600  Biso   1.000  H
  H54      1.0000 0.94200  0.64600  0.19400  Biso   1.000  H
  H55      1.0000 0.44200  0.85400  0.69400  Biso   1.000  H
  H56      1.0000 0.05800  0.35400  0.80600  Biso   1.000  H
  H57      1.0000 0.87200  0.35400  0.39700  Biso   1.000  H
  H58      1.0000 0.62800  0.85400  0.10300  Biso   1.000  H
  H59      1.0000 0.12800  0.64600  0.60300  Biso   1.000  H
  H60      1.0000 0.37200  0.14600  0.89700  Biso   1.000  H
  H61      1.0000 0.78700  0.51000  0.40900  Biso   1.000  H
  H62      1.0000 0.71300  0.01000  0.09100  Biso   1.000  H
  H63      1.0000 0.21300  0.49000  0.59100  Biso   1.000  H
  H64      1.0000 0.28700  0.99000  0.90900  Biso   1.000  H
