data_image0
_cell_length_a       20.843
_cell_length_b       11.964
_cell_length_c       9.983
_cell_angle_alpha    90
_cell_angle_beta     90
_cell_angle_gamma    90

_symmetry_space_group_name_H-M    "P 1"
_symmetry_int_tables_number       1

loop_
  _symmetry_equiv_pos_as_xyz
  'x, y, z'

loop_
  _atom_site_label
  _atom_site_occupancy
  _atom_site_fract_x
  _atom_site_fract_y
  _atom_site_fract_z
  _atom_site_thermal_displace_type
  _atom_site_B_iso_or_equiv
  _atom_site_type_symbol
  O1       1.0000 0.95062  0.75000  0.75000  Biso   1.000  O
  O2       1.0000 0.54938  0.25000  0.75000  Biso   1.000  O
  O3       1.0000 0.04938  0.25000  0.25000  Biso   1.000  O
  O4       1.0000 0.45062  0.75000  0.25000  Biso   1.000  O
  H1       1.0000 0.96140  0.68740  0.71660  Biso   1.000  H
  H2       1.0000 0.53860  0.31260  0.71660  Biso   1.000  H
  H3       1.0000 0.53860  0.18740  0.78340  Biso   1.000  H
  H4       1.0000 0.96140  0.81260  0.78340  Biso   1.000  H
  H5       1.0000 0.03860  0.31260  0.28340  Biso   1.000  H
  H6       1.0000 0.46140  0.68740  0.28340  Biso   1.000  H
  H7       1.0000 0.46140  0.81260  0.21660  Biso   1.000  H
  H8       1.0000 0.03860  0.18740  0.21660  Biso   1.000  H
  H9       1.0000 0.98300  0.77960  0.78790  Biso   1.000  H
  H10      1.0000 0.51700  0.22040  0.78790  Biso   1.000  H
  H11      1.0000 0.51700  0.27960  0.71210  Biso   1.000  H
  H12      1.0000 0.98300  0.72040  0.71210  Biso   1.000  H
  H13      1.0000 0.01700  0.22040  0.21210  Biso   1.000  H
  H14      1.0000 0.48300  0.77960  0.21210  Biso   1.000  H
  H15      1.0000 0.48300  0.72040  0.28790  Biso   1.000  H
  H16      1.0000 0.01700  0.27960  0.28790  Biso   1.000  H
  Cu1      1.0000 0.88349  0.25000  0.25000  Biso   1.000  Cu
  Cu2      1.0000 0.61651  0.75000  0.25000  Biso   1.000  Cu
  Cu3      1.0000 0.11651  0.75000  0.75000  Biso   1.000  Cu
  Cu4      1.0000 0.38349  0.25000  0.75000  Biso   1.000  Cu
  C1       1.0000 0.93721  0.03420  0.33830  Biso   1.000  C
  C2       1.0000 0.56279  0.96580  0.33830  Biso   1.000  C
  C3       1.0000 0.56279  0.53420  0.16170  Biso   1.000  C
  C4       1.0000 0.93721  0.46580  0.16170  Biso   1.000  C
  C5       1.0000 0.06279  0.96580  0.66170  Biso   1.000  C
  C6       1.0000 0.43721  0.03420  0.66170  Biso   1.000  C
  C7       1.0000 0.43721  0.46580  0.83830  Biso   1.000  C
  C8       1.0000 0.06279  0.53420  0.83830  Biso   1.000  C
  H17      1.0000 0.96690  0.04810  0.27080  Biso   1.000  H
  H18      1.0000 0.53310  0.95190  0.27080  Biso   1.000  H
  H19      1.0000 0.53310  0.54810  0.22920  Biso   1.000  H
  H20      1.0000 0.96690  0.45190  0.22920  Biso   1.000  H
  H21      1.0000 0.03310  0.95190  0.72920  Biso   1.000  H
  H22      1.0000 0.46690  0.04810  0.72920  Biso   1.000  H
  H23      1.0000 0.46690  0.45190  0.77080  Biso   1.000  H
  H24      1.0000 0.03310  0.54810  0.77080  Biso   1.000  H
  C9       1.0000 0.94308  0.93710  0.41190  Biso   1.000  C
  C10      1.0000 0.55692  0.06290  0.41190  Biso   1.000  C
  C11      1.0000 0.55692  0.43710  0.08810  Biso   1.000  C
  C12      1.0000 0.94308  0.56290  0.08810  Biso   1.000  C
  C13      1.0000 0.05692  0.06290  0.58810  Biso   1.000  C
  C14      1.0000 0.44308  0.93710  0.58810  Biso   1.000  C
  C15      1.0000 0.44308  0.56290  0.91190  Biso   1.000  C
  C16      1.0000 0.05692  0.43710  0.91190  Biso   1.000  C
  H25      1.0000 0.97640  0.88720  0.39580  Biso   1.000  H
  H26      1.0000 0.52360  0.11280  0.39580  Biso   1.000  H
  H27      1.0000 0.52360  0.38720  0.10420  Biso   1.000  H
  H28      1.0000 0.97640  0.61280  0.10420  Biso   1.000  H
  H29      1.0000 0.02360  0.11280  0.60420  Biso   1.000  H
  H30      1.0000 0.47640  0.88720  0.60420  Biso   1.000  H
  H31      1.0000 0.47640  0.61280  0.89580  Biso   1.000  H
  H32      1.0000 0.02360  0.38720  0.89580  Biso   1.000  H
  C17      1.0000 0.89831  0.91640  0.50960  Biso   1.000  C
  C18      1.0000 0.60169  0.08360  0.50960  Biso   1.000  C
  C19      1.0000 0.60169  0.41640  0.99040  Biso   1.000  C
  C20      1.0000 0.89831  0.58360  0.99040  Biso   1.000  C
  C21      1.0000 0.10169  0.08360  0.49040  Biso   1.000  C
  C22      1.0000 0.39831  0.91640  0.49040  Biso   1.000  C
  C23      1.0000 0.39831  0.58360  0.00960  Biso   1.000  C
  C24      1.0000 0.10169  0.41640  0.00960  Biso   1.000  C
  H33      1.0000 0.90050  0.85140  0.56050  Biso   1.000  H
  H34      1.0000 0.59950  0.14860  0.56050  Biso   1.000  H
  H35      1.0000 0.59950  0.35140  0.93950  Biso   1.000  H
  H36      1.0000 0.90050  0.64860  0.93950  Biso   1.000  H
  H37      1.0000 0.09950  0.14860  0.43950  Biso   1.000  H
  H38      1.0000 0.40050  0.85140  0.43950  Biso   1.000  H
  H39      1.0000 0.40050  0.64860  0.06050  Biso   1.000  H
  H40      1.0000 0.09950  0.35140  0.06050  Biso   1.000  H
  C25      1.0000 0.85101  0.99140  0.53100  Biso   1.000  C
  C26      1.0000 0.64899  0.00860  0.53100  Biso   1.000  C
  C27      1.0000 0.64899  0.49140  0.96900  Biso   1.000  C
  C28      1.0000 0.85101  0.50860  0.96900  Biso   1.000  C
  C29      1.0000 0.14899  0.00860  0.46900  Biso   1.000  C
  C30      1.0000 0.35101  0.99140  0.46900  Biso   1.000  C
  C31      1.0000 0.35101  0.50860  0.03100  Biso   1.000  C
  C32      1.0000 0.14899  0.49140  0.03100  Biso   1.000  C
  H41      1.0000 0.82010  0.97820  0.59620  Biso   1.000  H
  H42      1.0000 0.67990  0.02180  0.59620  Biso   1.000  H
  H43      1.0000 0.67990  0.47820  0.90380  Biso   1.000  H
  H44      1.0000 0.82010  0.52180  0.90380  Biso   1.000  H
  H45      1.0000 0.17990  0.02180  0.40380  Biso   1.000  H
  H46      1.0000 0.32010  0.97820  0.40380  Biso   1.000  H
  H47      1.0000 0.32010  0.52180  0.09620  Biso   1.000  H
  H48      1.0000 0.17990  0.47820  0.09620  Biso   1.000  H
  C33      1.0000 0.84902  0.08780  0.45510  Biso   1.000  C
  C34      1.0000 0.65098  0.91220  0.45510  Biso   1.000  C
  C35      1.0000 0.65098  0.58780  0.04490  Biso   1.000  C
  C36      1.0000 0.84902  0.41220  0.04490  Biso   1.000  C
  C37      1.0000 0.15098  0.91220  0.54490  Biso   1.000  C
  C38      1.0000 0.34902  0.08780  0.54490  Biso   1.000  C
  C39      1.0000 0.34902  0.41220  0.95510  Biso   1.000  C
  C40      1.0000 0.15098  0.58780  0.95510  Biso   1.000  C
  H49      1.0000 0.81690  0.13990  0.47190  Biso   1.000  H
  H50      1.0000 0.68310  0.86010  0.47190  Biso   1.000  H
  H51      1.0000 0.68310  0.63990  0.02810  Biso   1.000  H
  H52      1.0000 0.81690  0.36010  0.02810  Biso   1.000  H
  H53      1.0000 0.18310  0.86010  0.52810  Biso   1.000  H
  H54      1.0000 0.31690  0.13990  0.52810  Biso   1.000  H
  H55      1.0000 0.31690  0.36010  0.97190  Biso   1.000  H
  H56      1.0000 0.18310  0.63990  0.97190  Biso   1.000  H
  C41      1.0000 0.74210  0.32300  0.32060  Biso   1.000  C
  C42      1.0000 0.75790  0.67700  0.32060  Biso   1.000  C
  C43      1.0000 0.75790  0.82300  0.17940  Biso   1.000  C
  C44      1.0000 0.74210  0.17700  0.17940  Biso   1.000  C
  C45      1.0000 0.25790  0.67700  0.67940  Biso   1.000  C
  C46      1.0000 0.24210  0.32300  0.67940  Biso   1.000  C
  C47      1.0000 0.24210  0.17700  0.82060  Biso   1.000  C
  C48      1.0000 0.25790  0.82300  0.82060  Biso   1.000  C
  H57      1.0000 0.76450  0.37470  0.37210  Biso   1.000  H
  H58      1.0000 0.73550  0.62530  0.37210  Biso   1.000  H
  H59      1.0000 0.73550  0.87470  0.12790  Biso   1.000  H
  H60      1.0000 0.76450  0.12530  0.12790  Biso   1.000  H
  H61      1.0000 0.23550  0.62530  0.62790  Biso   1.000  H
  H62      1.0000 0.26450  0.37470  0.62790  Biso   1.000  H
  H63      1.0000 0.26450  0.12530  0.87210  Biso   1.000  H
  H64      1.0000 0.23550  0.87470  0.87210  Biso   1.000  H
  C49      1.0000 0.67590  0.32630  0.32190  Biso   1.000  C
  C50      1.0000 0.82410  0.67370  0.32190  Biso   1.000  C
  C51      1.0000 0.82410  0.82630  0.17810  Biso   1.000  C
  C52      1.0000 0.67590  0.17370  0.17810  Biso   1.000  C
  C53      1.0000 0.32410  0.67370  0.67810  Biso   1.000  C
  C54      1.0000 0.17590  0.32630  0.67810  Biso   1.000  C
  C55      1.0000 0.17590  0.17370  0.82190  Biso   1.000  C
  C56      1.0000 0.32410  0.82630  0.82190  Biso   1.000  C
  H65      1.0000 0.65390  0.37990  0.37120  Biso   1.000  H
  H66      1.0000 0.84610  0.62010  0.37120  Biso   1.000  H
  H67      1.0000 0.84610  0.87990  0.12880  Biso   1.000  H
  H68      1.0000 0.65390  0.12010  0.12880  Biso   1.000  H
  H69      1.0000 0.34610  0.62010  0.62880  Biso   1.000  H
  H70      1.0000 0.15390  0.37990  0.62880  Biso   1.000  H
  H71      1.0000 0.15390  0.12010  0.87120  Biso   1.000  H
  H72      1.0000 0.34610  0.87990  0.87120  Biso   1.000  H
  C57      1.0000 0.64470  0.25000  0.25000  Biso   1.000  C
  C58      1.0000 0.85530  0.75000  0.25000  Biso   1.000  C
  C59      1.0000 0.35530  0.75000  0.75000  Biso   1.000  C
  C60      1.0000 0.14470  0.25000  0.75000  Biso   1.000  C
  H73      1.0000 0.60010  0.25000  0.25000  Biso   1.000  H
  H74      1.0000 0.89990  0.75000  0.25000  Biso   1.000  H
  H75      1.0000 0.39990  0.75000  0.75000  Biso   1.000  H
  H76      1.0000 0.10010  0.25000  0.75000  Biso   1.000  H
  C61      1.0000 0.93170  0.35650  0.49210  Biso   1.000  C
  C62      1.0000 0.56830  0.64350  0.49210  Biso   1.000  C
  C63      1.0000 0.56830  0.85650  0.00790  Biso   1.000  C
  C64      1.0000 0.93170  0.14350  0.00790  Biso   1.000  C
  C65      1.0000 0.06830  0.64350  0.50790  Biso   1.000  C
  C66      1.0000 0.43170  0.35650  0.50790  Biso   1.000  C
  C67      1.0000 0.43170  0.14350  0.99210  Biso   1.000  C
  C68      1.0000 0.06830  0.85650  0.99210  Biso   1.000  C
  C69      1.0000 0.91475  0.42920  0.61320  Biso   1.000  C
  C70      1.0000 0.58525  0.57080  0.61320  Biso   1.000  C
  C71      1.0000 0.58525  0.92920  0.88680  Biso   1.000  C
  C72      1.0000 0.91475  0.07080  0.88680  Biso   1.000  C
  C73      1.0000 0.08525  0.57080  0.38680  Biso   1.000  C
  C74      1.0000 0.41475  0.42920  0.38680  Biso   1.000  C
  C75      1.0000 0.41475  0.07080  0.11320  Biso   1.000  C
  C76      1.0000 0.08525  0.92920  0.11320  Biso   1.000  C
  H77      1.0000 0.93780  0.40110  0.69060  Biso   1.000  H
  H78      1.0000 0.56220  0.59890  0.69060  Biso   1.000  H
  H79      1.0000 0.56220  0.90110  0.80940  Biso   1.000  H
  H80      1.0000 0.93780  0.09890  0.80940  Biso   1.000  H
  H81      1.0000 0.06220  0.59890  0.30940  Biso   1.000  H
  H82      1.0000 0.43780  0.40110  0.30940  Biso   1.000  H
  H83      1.0000 0.43780  0.09890  0.19060  Biso   1.000  H
  H84      1.0000 0.06220  0.90110  0.19060  Biso   1.000  H
  H85      1.0000 0.92970  0.50470  0.59640  Biso   1.000  H
  H86      1.0000 0.57030  0.49530  0.59640  Biso   1.000  H
  H87      1.0000 0.57030  0.00470  0.90360  Biso   1.000  H
  H88      1.0000 0.92970  0.99530  0.90360  Biso   1.000  H
  H89      1.0000 0.07030  0.49530  0.40360  Biso   1.000  H
  H90      1.0000 0.42970  0.50470  0.40360  Biso   1.000  H
  H91      1.0000 0.42970  0.99530  0.09640  Biso   1.000  H
  H92      1.0000 0.07030  0.00470  0.09640  Biso   1.000  H
  C77      1.0000 0.82000  0.33920  0.69540  Biso   1.000  C
  C78      1.0000 0.68000  0.66080  0.69540  Biso   1.000  C
  C79      1.0000 0.68000  0.83920  0.80460  Biso   1.000  C
  C80      1.0000 0.82000  0.16080  0.80460  Biso   1.000  C
  C81      1.0000 0.18000  0.66080  0.30460  Biso   1.000  C
  C82      1.0000 0.32000  0.33920  0.30460  Biso   1.000  C
  C83      1.0000 0.32000  0.16080  0.19540  Biso   1.000  C
  C84      1.0000 0.18000  0.83920  0.19540  Biso   1.000  C
  C85      1.0000 0.75386  0.33910  0.69540  Biso   1.000  C
  C86      1.0000 0.74614  0.66090  0.69540  Biso   1.000  C
  C87      1.0000 0.74614  0.83910  0.80460  Biso   1.000  C
  C88      1.0000 0.75386  0.16090  0.80460  Biso   1.000  C
  C89      1.0000 0.24614  0.66090  0.30460  Biso   1.000  C
  C90      1.0000 0.25386  0.33910  0.30460  Biso   1.000  C
  C91      1.0000 0.25386  0.16090  0.19540  Biso   1.000  C
  C92      1.0000 0.24614  0.83910  0.19540  Biso   1.000  C
  H93      1.0000 0.73130  0.39880  0.65880  Biso   1.000  H
  H94      1.0000 0.76870  0.60120  0.65880  Biso   1.000  H
  H95      1.0000 0.76870  0.89880  0.84120  Biso   1.000  H
  H96      1.0000 0.73130  0.10120  0.84120  Biso   1.000  H
  H97      1.0000 0.26870  0.60120  0.34120  Biso   1.000  H
  H98      1.0000 0.23130  0.39880  0.34120  Biso   1.000  H
  H99      1.0000 0.23130  0.10120  0.15880  Biso   1.000  H
  H100     1.0000 0.26870  0.89880  0.15880  Biso   1.000  H
  C93      1.0000 0.72170  0.25000  0.75000  Biso   1.000  C
  C94      1.0000 0.77830  0.75000  0.75000  Biso   1.000  C
  C95      1.0000 0.27830  0.75000  0.25000  Biso   1.000  C
  C96      1.0000 0.22170  0.25000  0.25000  Biso   1.000  C
  H101     1.0000 0.67710  0.25000  0.75000  Biso   1.000  H
  H102     1.0000 0.82290  0.75000  0.75000  Biso   1.000  H
  H103     1.0000 0.32290  0.75000  0.25000  Biso   1.000  H
  H104     1.0000 0.17710  0.25000  0.25000  Biso   1.000  H
  C97      1.0000 0.85350  0.25000  0.75000  Biso   1.000  C
  C98      1.0000 0.64650  0.75000  0.75000  Biso   1.000  C
  C99      1.0000 0.14650  0.75000  0.25000  Biso   1.000  C
  C100     1.0000 0.35350  0.25000  0.25000  Biso   1.000  C
  H105     1.0000 0.89810  0.25000  0.75000  Biso   1.000  H
  H106     1.0000 0.60190  0.75000  0.75000  Biso   1.000  H
  H107     1.0000 0.10190  0.75000  0.25000  Biso   1.000  H
  H108     1.0000 0.39810  0.25000  0.25000  Biso   1.000  H
  N1       1.0000 0.89112  0.10850  0.35940  Biso   1.000  N
  N2       1.0000 0.60888  0.89150  0.35940  Biso   1.000  N
  N3       1.0000 0.60888  0.60850  0.14060  Biso   1.000  N
  N4       1.0000 0.89112  0.39150  0.14060  Biso   1.000  N
  N5       1.0000 0.10888  0.89150  0.64060  Biso   1.000  N
  N6       1.0000 0.39112  0.10850  0.64060  Biso   1.000  N
  N7       1.0000 0.39112  0.39150  0.85940  Biso   1.000  N
  N8       1.0000 0.10888  0.60850  0.85940  Biso   1.000  N
  N9       1.0000 0.77490  0.25000  0.25000  Biso   1.000  N
  N10      1.0000 0.72510  0.75000  0.25000  Biso   1.000  N
  N11      1.0000 0.22510  0.75000  0.75000  Biso   1.000  N
  N12      1.0000 0.27490  0.25000  0.75000  Biso   1.000  N
  O5       1.0000 0.88499  0.33970  0.41330  Biso   1.000  O
  O6       1.0000 0.61501  0.66030  0.41330  Biso   1.000  O
  O7       1.0000 0.61501  0.83970  0.08670  Biso   1.000  O
  O8       1.0000 0.88499  0.16030  0.08670  Biso   1.000  O
  O9       1.0000 0.11501  0.66030  0.58670  Biso   1.000  O
  O10      1.0000 0.38499  0.33970  0.58670  Biso   1.000  O
  O11      1.0000 0.38499  0.16030  0.91330  Biso   1.000  O
  O12      1.0000 0.11501  0.83970  0.91330  Biso   1.000  O
  O13      1.0000 0.98679  0.32570  0.47760  Biso   1.000  O
  O14      1.0000 0.51321  0.67430  0.47760  Biso   1.000  O
  O15      1.0000 0.51321  0.82570  0.02240  Biso   1.000  O
  O16      1.0000 0.98679  0.17430  0.02240  Biso   1.000  O
  O17      1.0000 0.01321  0.67430  0.52240  Biso   1.000  O
  O18      1.0000 0.48679  0.32570  0.52240  Biso   1.000  O
  O19      1.0000 0.48679  0.17430  0.97760  Biso   1.000  O
  O20      1.0000 0.01321  0.82570  0.97760  Biso   1.000  O
  O21      1.0000 0.84843  0.43311  0.64420  Biso   1.000  O
  O22      1.0000 0.65157  0.56689  0.64420  Biso   1.000  O
  O23      1.0000 0.65157  0.93311  0.85580  Biso   1.000  O
  O24      1.0000 0.84843  0.06689  0.85580  Biso   1.000  O
  O25      1.0000 0.15157  0.56689  0.35580  Biso   1.000  O
  O26      1.0000 0.34843  0.43311  0.35580  Biso   1.000  O
  O27      1.0000 0.34843  0.06689  0.14420  Biso   1.000  O
  O28      1.0000 0.15157  0.93311  0.14420  Biso   1.000  O
