data_image0
_cell_length_a       12.0997
_cell_length_b       12.8855
_cell_length_c       14.7601
_cell_angle_alpha    89.462
_cell_angle_beta     86.349
_cell_angle_gamma    76.122

_symmetry_space_group_name_H-M    "P 1"
_symmetry_int_tables_number       1

loop_
  _symmetry_equiv_pos_as_xyz
  'x, y, z'

loop_
  _atom_site_label
  _atom_site_occupancy
  _atom_site_fract_x
  _atom_site_fract_y
  _atom_site_fract_z
  _atom_site_thermal_displace_type
  _atom_site_B_iso_or_equiv
  _atom_site_type_symbol
  Cu1      1.0000 0.29625  0.67972  0.76155  Biso   1.000  Cu
  Cu2      1.0000 0.70375  0.32028  0.23845  Biso   1.000  Cu
  Cu3      1.0000 0.00000  0.00000  0.50000  Biso   1.000  Cu
  Cu4      1.0000 0.00000  0.00000  0.00000  Biso   1.000  Cu
  N1       1.0000 0.25400  0.61103  0.87863  Biso   1.000  N
  N2       1.0000 0.74600  0.38897  0.12137  Biso   1.000  N
  N3       1.0000 0.06370  0.87080  0.42257  Biso   1.000  N
  N4       1.0000 0.93630  0.12920  0.57743  Biso   1.000  N
  N5       1.0000 0.36830  0.71990  0.64282  Biso   1.000  N
  N6       1.0000 0.63170  0.28010  0.35718  Biso   1.000  N
  N7       1.0000 0.14260  0.94690  0.06313  Biso   1.000  N
  N8       1.0000 0.85740  0.05310  0.93687  Biso   1.000  N
  O1       1.0000 0.37045  0.76843  0.82729  Biso   1.000  O
  O2       1.0000 0.62955  0.23157  0.17271  Biso   1.000  O
  O3       1.0000 0.54040  0.65456  0.82828  Biso   1.000  O
  O4       1.0000 0.45960  0.34544  0.17172  Biso   1.000  O
  O5       1.0000 0.20486  0.60860  0.69447  Biso   1.000  O
  O6       1.0000 0.79514  0.39140  0.30553  Biso   1.000  O
  O7       1.0000 0.32270  0.44850  0.68591  Biso   1.000  O
  O8       1.0000 0.67730  0.55150  0.31409  Biso   1.000  O
  O9       1.0000 0.86170  0.94607  0.53253  Biso   1.000  O
  O10      1.0000 0.13830  0.05393  0.46747  Biso   1.000  O
  O11      1.0000 0.97860  0.87320  0.63581  Biso   1.000  O
  O12      1.0000 0.02140  0.12680  0.36419  Biso   1.000  O
  O13      1.0000 0.94250  0.86250  0.03754  Biso   1.000  O
  O14      1.0000 0.05750  0.13750  0.96246  Biso   1.000  O
  O15      1.0000 0.89110  0.98850  0.13660  Biso   1.000  O
  O16      1.0000 0.10890  0.01150  0.86340  Biso   1.000  O
  O17      1.0000 0.13430  0.82070  0.77116  Biso   1.000  O
  O18      1.0000 0.86570  0.17930  0.22884  Biso   1.000  O
  H1       1.0000 0.09850  0.82090  0.72580  Biso   1.000  H
  H2       1.0000 0.90150  0.17910  0.27420  Biso   1.000  H
  C1       1.0000 0.33070  0.55520  0.93220  Biso   1.000  C
  C2       1.0000 0.66930  0.44480  0.06780  Biso   1.000  C
  H3       1.0000 0.40760  0.54640  0.91480  Biso   1.000  H
  H4       1.0000 0.59240  0.45360  0.08520  Biso   1.000  H
  C3       1.0000 0.30140  0.50970  0.01270  Biso   1.000  C
  C4       1.0000 0.69860  0.49030  0.98730  Biso   1.000  C
  H5       1.0000 0.35840  0.47020  0.04720  Biso   1.000  H
  H6       1.0000 0.64160  0.52980  0.95280  Biso   1.000  H
  C5       1.0000 0.19100  0.52210  0.04170  Biso   1.000  C
  C6       1.0000 0.80900  0.47790  0.95830  Biso   1.000  C
  C7       1.0000 0.11170  0.58140  0.98640  Biso   1.000  C
  C8       1.0000 0.88830  0.41860  0.01360  Biso   1.000  C
  H7       1.0000 0.03430  0.59280  0.00330  Biso   1.000  H
  H8       1.0000 0.96570  0.40720  0.99670  Biso   1.000  H
  C9       1.0000 0.14560  0.62350  0.90690  Biso   1.000  C
  C10      1.0000 0.85440  0.37650  0.09310  Biso   1.000  C
  H9       1.0000 0.08990  0.66270  0.87110  Biso   1.000  H
  H10      1.0000 0.91010  0.33730  0.12890  Biso   1.000  H
  C11      1.0000 0.15550  0.47450  0.12910  Biso   1.000  C
  C12      1.0000 0.84450  0.52550  0.87090  Biso   1.000  C
  H11      1.0000 0.22150  0.42540  0.15200  Biso   1.000  H
  H12      1.0000 0.77850  0.57460  0.84800  Biso   1.000  H
  H13      1.0000 0.10010  0.43390  0.11700  Biso   1.000  H
  H14      1.0000 0.89990  0.56610  0.88300  Biso   1.000  H
  C13      1.0000 0.10430  0.55830  0.20100  Biso   1.000  C
  C14      1.0000 0.89570  0.44170  0.79900  Biso   1.000  C
  H15      1.0000 0.05150  0.61720  0.17360  Biso   1.000  H
  H16      1.0000 0.94850  0.38280  0.82640  Biso   1.000  H
  H17      1.0000 0.06160  0.52740  0.24730  Biso   1.000  H
  H18      1.0000 0.93840  0.47260  0.75270  Biso   1.000  H
  C15      1.0000 0.19370  0.60000  0.24430  Biso   1.000  C
  C16      1.0000 0.80630  0.40000  0.75570  Biso   1.000  C
  H19      1.0000 0.24270  0.62150  0.19690  Biso   1.000  H
  H20      1.0000 0.75730  0.37850  0.80310  Biso   1.000  H
  H21      1.0000 0.24040  0.54250  0.27780  Biso   1.000  H
  H22      1.0000 0.75960  0.45750  0.72220  Biso   1.000  H
  C17      1.0000 0.14730  0.69330  0.30780  Biso   1.000  C
  C18      1.0000 0.85270  0.30670  0.69220  Biso   1.000  C
  C19      1.0000 0.16110  0.68830  0.40020  Biso   1.000  C
  C20      1.0000 0.83890  0.31170  0.59980  Biso   1.000  C
  H23      1.0000 0.19910  0.62430  0.42560  Biso   1.000  H
  H24      1.0000 0.80090  0.37570  0.57440  Biso   1.000  H
  C21      1.0000 0.11970  0.77620  0.45470  Biso   1.000  C
  C22      1.0000 0.88030  0.22380  0.54530  Biso   1.000  C
  H25      1.0000 0.13080  0.77020  0.51650  Biso   1.000  H
  H26      1.0000 0.86920  0.22980  0.48350  Biso   1.000  H
  C23      1.0000 0.08930  0.79040  0.27520  Biso   1.000  C
  C24      1.0000 0.91070  0.20960  0.72480  Biso   1.000  C
  H27      1.0000 0.07680  0.79790  0.21380  Biso   1.000  H
  H28      1.0000 0.92320  0.20210  0.78620  Biso   1.000  H
  C25      1.0000 0.05010  0.87570  0.33270  Biso   1.000  C
  C26      1.0000 0.94990  0.12430  0.66730  Biso   1.000  C
  H29      1.0000 0.01210  0.94040  0.30850  Biso   1.000  H
  H30      1.0000 0.98790  0.05960  0.69150  Biso   1.000  H
  C27      1.0000 0.34690  0.81960  0.61530  Biso   1.000  C
  C28      1.0000 0.65310  0.18040  0.38470  Biso   1.000  C
  H31      1.0000 0.30300  0.87250  0.65380  Biso   1.000  H
  H32      1.0000 0.69700  0.12750  0.34620  Biso   1.000  H
  C29      1.0000 0.38650  0.84910  0.53230  Biso   1.000  C
  C30      1.0000 0.61350  0.15090  0.46770  Biso   1.000  C
  H33      1.0000 0.36860  0.92080  0.51590  Biso   1.000  H
  H34      1.0000 0.63140  0.07920  0.48410  Biso   1.000  H
  C31      1.0000 0.45240  0.77440  0.47270  Biso   1.000  C
  C32      1.0000 0.54760  0.22560  0.52730  Biso   1.000  C
  C33      1.0000 0.47640  0.67200  0.50290  Biso   1.000  C
  C34      1.0000 0.52360  0.32800  0.49710  Biso   1.000  C
  H35      1.0000 0.52270  0.61790  0.46680  Biso   1.000  H
  H36      1.0000 0.47730  0.38210  0.53320  Biso   1.000  H
  C35      1.0000 0.43260  0.64830  0.58600  Biso   1.000  C
  C36      1.0000 0.56740  0.35170  0.41400  Biso   1.000  C
  H37      1.0000 0.44920  0.57700  0.60380  Biso   1.000  H
  H38      1.0000 0.55080  0.42300  0.39620  Biso   1.000  H
  C37      1.0000 0.49260  0.80370  0.38070  Biso   1.000  C
  C38      1.0000 0.50740  0.19630  0.61930  Biso   1.000  C
  H39      1.0000 0.55790  0.74830  0.35850  Biso   1.000  H
  H40      1.0000 0.44210  0.25170  0.64150  Biso   1.000  H
  H41      1.0000 0.51680  0.86990  0.38450  Biso   1.000  H
  H42      1.0000 0.48320  0.13010  0.61550  Biso   1.000  H
  C39      1.0000 0.39920  0.81710  0.31414  Biso   1.000  C
  C40      1.0000 0.60080  0.18290  0.68586  Biso   1.000  C
  H43      1.0000 0.37180  0.75230  0.31380  Biso   1.000  H
  H44      1.0000 0.62820  0.24770  0.68620  Biso   1.000  H
  H45      1.0000 0.33580  0.87510  0.33520  Biso   1.000  H
  H46      1.0000 0.66420  0.12490  0.66480  Biso   1.000  H
  C41      1.0000 0.43720  0.84050  0.21800  Biso   1.000  C
  C42      1.0000 0.56280  0.15950  0.78200  Biso   1.000  C
  H47      1.0000 0.47960  0.89550  0.21910  Biso   1.000  H
  H48      1.0000 0.52040  0.10450  0.78090  Biso   1.000  H
  H49      1.0000 0.48760  0.77650  0.19140  Biso   1.000  H
  H50      1.0000 0.51240  0.22350  0.80860  Biso   1.000  H
  C43      1.0000 0.33750  0.87700  0.16049  Biso   1.000  C
  C44      1.0000 0.66250  0.12300  0.83951  Biso   1.000  C
  C45      1.0000 0.26420  0.97600  0.17560  Biso   1.000  C
  C46      1.0000 0.73580  0.02400  0.82440  Biso   1.000  C
  H51      1.0000 0.27920  0.02160  0.21920  Biso   1.000  H
  H52      1.0000 0.72080  0.97840  0.78080  Biso   1.000  H
  C47      1.0000 0.16900  0.00780  0.12670  Biso   1.000  C
  C48      1.0000 0.83100  0.99220  0.87330  Biso   1.000  C
  H53      1.0000 0.12090  0.07490  0.13850  Biso   1.000  H
  H54      1.0000 0.87910  0.92510  0.86150  Biso   1.000  H
  C49      1.0000 0.21500  0.85300  0.04660  Biso   1.000  C
  C50      1.0000 0.78500  0.14700  0.95340  Biso   1.000  C
  H55      1.0000 0.20000  0.80990  0.00100  Biso   1.000  H
  H56      1.0000 0.80000  0.19010  0.99900  Biso   1.000  H
  C51      1.0000 0.31130  0.81600  0.09380  Biso   1.000  C
  C52      1.0000 0.68870  0.18400  0.90620  Biso   1.000  C
  H57      1.0000 0.35870  0.74910  0.08000  Biso   1.000  H
  H58      1.0000 0.64130  0.25090  0.92000  Biso   1.000  H
  C53      1.0000 0.44900  0.93180  0.89340  Biso   1.000  C
  C54      1.0000 0.55100  0.06820  0.10660  Biso   1.000  C
  H59      1.0000 0.47320  0.98560  0.92220  Biso   1.000  H
  H60      1.0000 0.52680  0.01440  0.07780  Biso   1.000  H
  H61      1.0000 0.38000  0.94760  0.86580  Biso   1.000  H
  H62      1.0000 0.62000  0.05240  0.13420  Biso   1.000  H
  C55      1.0000 0.51640  0.82730  0.89150  Biso   1.000  C
  C56      1.0000 0.48360  0.17270  0.10850  Biso   1.000  C
  C57      1.0000 0.62180  0.79880  0.93210  Biso   1.000  C
  C58      1.0000 0.37820  0.20120  0.06790  Biso   1.000  C
  H63      1.0000 0.63300  0.85900  0.96510  Biso   1.000  H
  H64      1.0000 0.36700  0.14100  0.03490  Biso   1.000  H
  H65      1.0000 0.68240  0.77750  0.88590  Biso   1.000  H
  H66      1.0000 0.31760  0.22250  0.11410  Biso   1.000  H
  H67      1.0000 0.62180  0.74050  0.97310  Biso   1.000  H
  H68      1.0000 0.37820  0.25950  0.02690  Biso   1.000  H
  C59      1.0000 0.47430  0.74290  0.84502  Biso   1.000  C
  C60      1.0000 0.52570  0.25710  0.15498  Biso   1.000  C
  C61      1.0000 0.04730  0.54210  0.60570  Biso   1.000  C
  C62      1.0000 0.95270  0.45790  0.39430  Biso   1.000  C
  H69      1.0000 0.99180  0.51970  0.57540  Biso   1.000  H
  H70      1.0000 0.00820  0.48030  0.42460  Biso   1.000  H
  H71      1.0000 0.03400  0.61240  0.62570  Biso   1.000  H
  H72      1.0000 0.96600  0.38760  0.37430  Biso   1.000  H
  C63      1.0000 0.14600  0.47300  0.62030  Biso   1.000  C
  C64      1.0000 0.85400  0.52700  0.37970  Biso   1.000  C
  C65      1.0000 0.17280  0.36220  0.59110  Biso   1.000  C
  C66      1.0000 0.82720  0.63780  0.40890  Biso   1.000  C
  H73      1.0000 0.10720  0.34670  0.56600  Biso   1.000  H
  H74      1.0000 0.89280  0.65330  0.43400  Biso   1.000  H
  H75      1.0000 0.19370  0.31670  0.64220  Biso   1.000  H
  H76      1.0000 0.80630  0.68330  0.35780  Biso   1.000  H
  H77      1.0000 0.23520  0.34990  0.54590  Biso   1.000  H
  H78      1.0000 0.76480  0.65010  0.45410  Biso   1.000  H
  C67      1.0000 0.23250  0.51160  0.67110  Biso   1.000  C
  C68      1.0000 0.76750  0.48840  0.32890  Biso   1.000  C
  C69      1.0000 0.68860  0.85130  0.59420  Biso   1.000  C
  C70      1.0000 0.31140  0.14870  0.40580  Biso   1.000  C
  H79      1.0000 0.64370  0.80420  0.61860  Biso   1.000  H
  H80      1.0000 0.35630  0.19580  0.38140  Biso   1.000  H
  H81      1.0000 0.70100  0.84110  0.52970  Biso   1.000  H
  H82      1.0000 0.29900  0.15890  0.47030  Biso   1.000  H
  H83      1.0000 0.64890  0.92410  0.60720  Biso   1.000  H
  H84      1.0000 0.35110  0.07590  0.39280  Biso   1.000  H
  C71      1.0000 0.79860  0.82790  0.63570  Biso   1.000  C
  C72      1.0000 0.20140  0.17210  0.36430  Biso   1.000  C
  C73      1.0000 0.82300  0.75850  0.70280  Biso   1.000  C
  C74      1.0000 0.17700  0.24150  0.29720  Biso   1.000  C
  H85      1.0000 0.76910  0.72240  0.72530  Biso   1.000  H
  H86      1.0000 0.23090  0.27760  0.27470  Biso   1.000  H
  H87      1.0000 0.89390  0.74580  0.72730  Biso   1.000  H
  H88      1.0000 0.10610  0.25420  0.27270  Biso   1.000  H
  C75      1.0000 0.88610  0.88550  0.60060  Biso   1.000  C
  C76      1.0000 0.11390  0.11450  0.39940  Biso   1.000  C
  C77      1.0000 0.76380  0.88260  0.24830  Biso   1.000  C
  C78      1.0000 0.23620  0.11740  0.75170  Biso   1.000  C
  H89      1.0000 0.71630  0.83860  0.27420  Biso   1.000  H
  H90      1.0000 0.28370  0.16140  0.72580  Biso   1.000  H
  H91      1.0000 0.71830  0.95340  0.23890  Biso   1.000  H
  H92      1.0000 0.28170  0.04660  0.76110  Biso   1.000  H
  H93      1.0000 0.82190  0.88570  0.28890  Biso   1.000  H
  H94      1.0000 0.17810  0.11430  0.71110  Biso   1.000  H
  C79      1.0000 0.81740  0.83680  0.16130  Biso   1.000  C
  C80      1.0000 0.18260  0.16320  0.83870  Biso   1.000  C
  C81      1.0000 0.80520  0.74560  0.12770  Biso   1.000  C
  C82      1.0000 0.19480  0.25440  0.87230  Biso   1.000  C
  H95      1.0000 0.76040  0.70660  0.15990  Biso   1.000  H
  H96      1.0000 0.23960  0.29340  0.84010  Biso   1.000  H
  H97      1.0000 0.84130  0.72050  0.07200  Biso   1.000  H
  H98      1.0000 0.15870  0.27950  0.92800  Biso   1.000  H
  C83      1.0000 0.88770  0.89940  0.10840  Biso   1.000  C
  C84      1.0000 0.11230  0.10060  0.89160  Biso   1.000  C
  H99      1.0000 0.13100  0.87900  0.80200  Biso   1.000  H
  H100     1.0000 0.86900  0.12100  0.19800  Biso   1.000  H
  O19      1.0000 0.53100  0.44910  0.75780  Biso   1.000  O
  O20      1.0000 0.46900  0.55090  0.24220  Biso   1.000  O
  H101     1.0000 0.52900  0.51700  0.77700  Biso   1.000  H
  H102     1.0000 0.47100  0.48300  0.22300  Biso   1.000  H
  H103     1.0000 0.46500  0.44900  0.74200  Biso   1.000  H
  H104     1.0000 0.53500  0.55100  0.25800  Biso   1.000  H
