data_image0
_cell_length_a       19.508
_cell_length_b       9.4738
_cell_length_c       16.963
_cell_angle_alpha    90
_cell_angle_beta     124.92
_cell_angle_gamma    90

_symmetry_space_group_name_H-M    "P 1"
_symmetry_int_tables_number       1

loop_
  _symmetry_equiv_pos_as_xyz
  'x, y, z'

loop_
  _atom_site_label
  _atom_site_occupancy
  _atom_site_fract_x
  _atom_site_fract_y
  _atom_site_fract_z
  _atom_site_thermal_displace_type
  _atom_site_B_iso_or_equiv
  _atom_site_type_symbol
  Cu1      1.0000 0.00000  0.98391  0.25000  Biso   1.000  Cu
  Cu2      1.0000 0.50000  0.48391  0.25000  Biso   1.000  Cu
  Cu3      1.0000 0.00000  0.01609  0.75000  Biso   1.000  Cu
  Cu4      1.0000 0.50000  0.51609  0.75000  Biso   1.000  Cu
  S1       1.0000 0.17897  0.59230  0.38382  Biso   1.000  S
  S2       1.0000 0.82103  0.59230  0.11618  Biso   1.000  S
  S3       1.0000 0.67897  0.09230  0.38382  Biso   1.000  S
  S4       1.0000 0.32103  0.09230  0.11618  Biso   1.000  S
  S5       1.0000 0.82103  0.40770  0.61618  Biso   1.000  S
  S6       1.0000 0.17897  0.40770  0.88382  Biso   1.000  S
  S7       1.0000 0.32103  0.90770  0.61618  Biso   1.000  S
  S8       1.0000 0.67897  0.90770  0.88382  Biso   1.000  S
  N1       1.0000 0.35837  0.25640  0.84057  Biso   1.000  N
  N2       1.0000 0.64163  0.25640  0.65943  Biso   1.000  N
  N3       1.0000 0.85837  0.75640  0.84057  Biso   1.000  N
  N4       1.0000 0.14163  0.75640  0.65943  Biso   1.000  N
  N5       1.0000 0.64163  0.74360  0.15943  Biso   1.000  N
  N6       1.0000 0.35837  0.74360  0.34057  Biso   1.000  N
  N7       1.0000 0.14163  0.24360  0.15943  Biso   1.000  N
  N8       1.0000 0.85837  0.24360  0.34057  Biso   1.000  N
  O1       1.0000 0.07421  0.13230  0.34208  Biso   1.000  O
  O2       1.0000 0.92579  0.13230  0.15792  Biso   1.000  O
  O3       1.0000 0.57421  0.63230  0.34208  Biso   1.000  O
  O4       1.0000 0.42579  0.63230  0.15792  Biso   1.000  O
  O5       1.0000 0.92579  0.86770  0.65792  Biso   1.000  O
  O6       1.0000 0.07421  0.86770  0.84208  Biso   1.000  O
  O7       1.0000 0.42579  0.36770  0.65792  Biso   1.000  O
  O8       1.0000 0.57421  0.36770  0.84208  Biso   1.000  O
  C1       1.0000 0.11606  0.16530  0.57805  Biso   1.000  C
  C2       1.0000 0.88394  0.16530  0.92195  Biso   1.000  C
  C3       1.0000 0.61606  0.66530  0.57805  Biso   1.000  C
  C4       1.0000 0.38394  0.66530  0.92195  Biso   1.000  C
  C5       1.0000 0.88394  0.83470  0.42195  Biso   1.000  C
  C6       1.0000 0.11606  0.83470  0.07805  Biso   1.000  C
  C7       1.0000 0.38394  0.33470  0.42195  Biso   1.000  C
  C8       1.0000 0.61606  0.33470  0.07805  Biso   1.000  C
  H1       1.0000 0.07570  0.10430  0.57150  Biso   1.000  H
  H2       1.0000 0.92430  0.10430  0.92850  Biso   1.000  H
  H3       1.0000 0.57570  0.60430  0.57150  Biso   1.000  H
  H4       1.0000 0.42430  0.60430  0.92850  Biso   1.000  H
  H5       1.0000 0.92430  0.89570  0.42850  Biso   1.000  H
  H6       1.0000 0.07570  0.89570  0.07150  Biso   1.000  H
  H7       1.0000 0.42430  0.39570  0.42850  Biso   1.000  H
  H8       1.0000 0.57570  0.39570  0.07150  Biso   1.000  H
  O9       1.0000 0.00368  0.04380  0.39496  Biso   1.000  O
  O10      1.0000 0.99632  0.04380  0.10504  Biso   1.000  O
  O11      1.0000 0.50368  0.54380  0.39496  Biso   1.000  O
  O12      1.0000 0.49632  0.54380  0.10504  Biso   1.000  O
  O13      1.0000 0.99632  0.95620  0.60504  Biso   1.000  O
  O14      1.0000 0.00368  0.95620  0.89496  Biso   1.000  O
  O15      1.0000 0.49632  0.45620  0.60504  Biso   1.000  O
  O16      1.0000 0.50368  0.45620  0.89496  Biso   1.000  O
  C9       1.0000 0.06013  0.11900  0.40618  Biso   1.000  C
  C10      1.0000 0.93987  0.11900  0.09382  Biso   1.000  C
  C11      1.0000 0.56013  0.61900  0.40618  Biso   1.000  C
  C12      1.0000 0.43987  0.61900  0.09382  Biso   1.000  C
  C13      1.0000 0.93987  0.88100  0.59382  Biso   1.000  C
  C14      1.0000 0.06013  0.88100  0.90618  Biso   1.000  C
  C15      1.0000 0.43987  0.38100  0.59382  Biso   1.000  C
  C16      1.0000 0.56013  0.38100  0.90618  Biso   1.000  C
  C17      1.0000 0.23471  0.31620  0.67707  Biso   1.000  C
  C18      1.0000 0.76529  0.31620  0.82293  Biso   1.000  C
  C19      1.0000 0.73471  0.81620  0.67707  Biso   1.000  C
  C20      1.0000 0.26529  0.81620  0.82293  Biso   1.000  C
  C21      1.0000 0.76529  0.68380  0.32293  Biso   1.000  C
  C22      1.0000 0.23471  0.68380  0.17707  Biso   1.000  C
  C23      1.0000 0.26529  0.18380  0.32293  Biso   1.000  C
  C24      1.0000 0.73471  0.18380  0.17707  Biso   1.000  C
  C25      1.0000 0.11768  0.19590  0.49964  Biso   1.000  C
  C26      1.0000 0.88232  0.19590  0.00036  Biso   1.000  C
  C27      1.0000 0.61768  0.69590  0.49964  Biso   1.000  C
  C28      1.0000 0.38232  0.69590  0.00036  Biso   1.000  C
  C29      1.0000 0.88232  0.80410  0.50036  Biso   1.000  C
  C30      1.0000 0.11768  0.80410  0.99964  Biso   1.000  C
  C31      1.0000 0.38232  0.30410  0.50036  Biso   1.000  C
  C32      1.0000 0.61768  0.30410  0.99964  Biso   1.000  C
  C33      1.0000 0.17393  0.29440  0.50877  Biso   1.000  C
  C34      1.0000 0.82607  0.29440  0.99123  Biso   1.000  C
  C35      1.0000 0.67393  0.79440  0.50877  Biso   1.000  C
  C36      1.0000 0.32607  0.79440  0.99123  Biso   1.000  C
  C37      1.0000 0.82607  0.70560  0.49123  Biso   1.000  C
  C38      1.0000 0.17393  0.70560  0.00877  Biso   1.000  C
  C39      1.0000 0.32607  0.20560  0.49123  Biso   1.000  C
  C40      1.0000 0.67393  0.20560  0.00877  Biso   1.000  C
  H9       1.0000 0.17250  0.32070  0.45500  Biso   1.000  H
  H10      1.0000 0.82750  0.32070  0.04500  Biso   1.000  H
  H11      1.0000 0.67250  0.82070  0.45500  Biso   1.000  H
  H12      1.0000 0.32750  0.82070  0.04500  Biso   1.000  H
  H13      1.0000 0.82750  0.67930  0.54500  Biso   1.000  H
  H14      1.0000 0.17250  0.67930  0.95500  Biso   1.000  H
  H15      1.0000 0.32750  0.17930  0.54500  Biso   1.000  H
  H16      1.0000 0.67250  0.17930  0.95500  Biso   1.000  H
  C41      1.0000 0.46916  0.05330  0.96568  Biso   1.000  C
  C42      1.0000 0.53084  0.05330  0.53432  Biso   1.000  C
  C43      1.0000 0.96916  0.55330  0.96568  Biso   1.000  C
  C44      1.0000 0.03084  0.55330  0.53432  Biso   1.000  C
  C45      1.0000 0.53084  0.94670  0.03432  Biso   1.000  C
  C46      1.0000 0.46916  0.94670  0.46568  Biso   1.000  C
  C47      1.0000 0.03084  0.44670  0.03432  Biso   1.000  C
  C48      1.0000 0.96916  0.44670  0.46568  Biso   1.000  C
  C49      1.0000 0.30282  0.37180  0.77498  Biso   1.000  C
  C50      1.0000 0.69718  0.37180  0.72502  Biso   1.000  C
  C51      1.0000 0.80282  0.87180  0.77498  Biso   1.000  C
  C52      1.0000 0.19718  0.87180  0.72502  Biso   1.000  C
  C53      1.0000 0.69718  0.62820  0.22502  Biso   1.000  C
  C54      1.0000 0.30282  0.62820  0.27498  Biso   1.000  C
  C55      1.0000 0.19718  0.12820  0.22502  Biso   1.000  C
  C56      1.0000 0.80282  0.12820  0.27498  Biso   1.000  C
  H17      1.0000 0.33600  0.44040  0.76810  Biso   1.000  H
  H18      1.0000 0.66400  0.44040  0.73190  Biso   1.000  H
  H19      1.0000 0.83600  0.94040  0.76810  Biso   1.000  H
  H20      1.0000 0.16400  0.94040  0.73190  Biso   1.000  H
  H21      1.0000 0.66400  0.55960  0.23190  Biso   1.000  H
  H22      1.0000 0.33600  0.55960  0.26810  Biso   1.000  H
  H23      1.0000 0.16400  0.05960  0.23190  Biso   1.000  H
  H24      1.0000 0.83600  0.05960  0.26810  Biso   1.000  H
  H25      1.0000 0.27770  0.41950  0.80310  Biso   1.000  H
  H26      1.0000 0.72230  0.41950  0.69690  Biso   1.000  H
  H27      1.0000 0.77770  0.91950  0.80310  Biso   1.000  H
  H28      1.0000 0.22230  0.91950  0.69690  Biso   1.000  H
  H29      1.0000 0.72230  0.58050  0.19690  Biso   1.000  H
  H30      1.0000 0.27770  0.58050  0.30310  Biso   1.000  H
  H31      1.0000 0.22230  0.08050  0.19690  Biso   1.000  H
  H32      1.0000 0.77770  0.08050  0.30310  Biso   1.000  H
  C57      1.0000 0.17427  0.22520  0.66628  Biso   1.000  C
  C58      1.0000 0.82573  0.22520  0.83372  Biso   1.000  C
  C59      1.0000 0.67427  0.72520  0.66628  Biso   1.000  C
  C60      1.0000 0.32573  0.72520  0.83372  Biso   1.000  C
  C61      1.0000 0.82573  0.77480  0.33372  Biso   1.000  C
  C62      1.0000 0.17427  0.77480  0.16628  Biso   1.000  C
  C63      1.0000 0.32573  0.27480  0.33372  Biso   1.000  C
  C64      1.0000 0.67427  0.27480  0.16628  Biso   1.000  C
  H33      1.0000 0.17290  0.20430  0.71890  Biso   1.000  H
  H34      1.0000 0.82710  0.20430  0.78110  Biso   1.000  H
  H35      1.0000 0.67290  0.70430  0.71890  Biso   1.000  H
  H36      1.0000 0.32710  0.70430  0.78110  Biso   1.000  H
  H37      1.0000 0.82710  0.79570  0.28110  Biso   1.000  H
  H38      1.0000 0.17290  0.79570  0.21890  Biso   1.000  H
  H39      1.0000 0.32710  0.29570  0.28110  Biso   1.000  H
  H40      1.0000 0.67290  0.29570  0.21890  Biso   1.000  H
  C65      1.0000 0.23261  0.35460  0.59740  Biso   1.000  C
  C66      1.0000 0.76739  0.35460  0.90260  Biso   1.000  C
  C67      1.0000 0.73261  0.85460  0.59740  Biso   1.000  C
  C68      1.0000 0.26739  0.85460  0.90260  Biso   1.000  C
  C69      1.0000 0.76739  0.64540  0.40260  Biso   1.000  C
  C70      1.0000 0.23261  0.64540  0.09740  Biso   1.000  C
  C71      1.0000 0.26739  0.14540  0.40260  Biso   1.000  C
  C72      1.0000 0.73261  0.14540  0.09740  Biso   1.000  C
  H41      1.0000 0.27040  0.42070  0.60300  Biso   1.000  H
  H42      1.0000 0.72960  0.42070  0.89700  Biso   1.000  H
  H43      1.0000 0.77040  0.92070  0.60300  Biso   1.000  H
  H44      1.0000 0.22960  0.92070  0.89700  Biso   1.000  H
  H45      1.0000 0.72960  0.57930  0.39700  Biso   1.000  H
  H46      1.0000 0.27040  0.57930  0.10300  Biso   1.000  H
  H47      1.0000 0.22960  0.07930  0.39700  Biso   1.000  H
  H48      1.0000 0.77040  0.07930  0.10300  Biso   1.000  H
  C73      1.0000 0.39650  0.17110  0.81420  Biso   1.000  C
  C74      1.0000 0.60350  0.17110  0.68580  Biso   1.000  C
  C75      1.0000 0.89650  0.67110  0.81420  Biso   1.000  C
  C76      1.0000 0.10350  0.67110  0.68580  Biso   1.000  C
  C77      1.0000 0.60350  0.82890  0.18580  Biso   1.000  C
  C78      1.0000 0.39650  0.82890  0.31420  Biso   1.000  C
  C79      1.0000 0.10350  0.32890  0.18580  Biso   1.000  C
  C80      1.0000 0.89650  0.32890  0.31420  Biso   1.000  C
  H49      1.0000 0.38550  0.18130  0.75340  Biso   1.000  H
  H50      1.0000 0.61450  0.18130  0.74660  Biso   1.000  H
  H51      1.0000 0.88550  0.68130  0.75340  Biso   1.000  H
  H52      1.0000 0.11450  0.68130  0.74660  Biso   1.000  H
  H53      1.0000 0.61450  0.81870  0.24660  Biso   1.000  H
  H54      1.0000 0.38550  0.81870  0.25340  Biso   1.000  H
  H55      1.0000 0.11450  0.31870  0.24660  Biso   1.000  H
  H56      1.0000 0.88550  0.31870  0.25340  Biso   1.000  H
  N9       1.0000 0.08800  0.84130  0.31450  Biso   1.000  N
  N10      1.0000 0.91200  0.84130  0.18550  Biso   1.000  N
  N11      1.0000 0.58800  0.34130  0.31450  Biso   1.000  N
  N12      1.0000 0.41200  0.34130  0.18550  Biso   1.000  N
  N13      1.0000 0.91200  0.15870  0.68550  Biso   1.000  N
  N14      1.0000 0.08800  0.15870  0.81450  Biso   1.000  N
  N15      1.0000 0.41200  0.65870  0.68550  Biso   1.000  N
  N16      1.0000 0.58800  0.65870  0.81450  Biso   1.000  N
  C81      1.0000 0.37450  0.24320  0.92720  Biso   1.000  C
  C82      1.0000 0.62550  0.24320  0.57280  Biso   1.000  C
  C83      1.0000 0.87450  0.74320  0.92720  Biso   1.000  C
  C84      1.0000 0.12550  0.74320  0.57280  Biso   1.000  C
  C85      1.0000 0.62550  0.75680  0.07280  Biso   1.000  C
  C86      1.0000 0.37450  0.75680  0.42720  Biso   1.000  C
  C87      1.0000 0.12550  0.25680  0.07280  Biso   1.000  C
  C88      1.0000 0.87450  0.25680  0.42720  Biso   1.000  C
  H57      1.0000 0.34840  0.30290  0.94580  Biso   1.000  H
  H58      1.0000 0.65160  0.30290  0.55420  Biso   1.000  H
  H59      1.0000 0.84840  0.80290  0.94580  Biso   1.000  H
  H60      1.0000 0.15160  0.80290  0.55420  Biso   1.000  H
  H61      1.0000 0.65160  0.69710  0.05420  Biso   1.000  H
  H62      1.0000 0.34840  0.69710  0.44580  Biso   1.000  H
  H63      1.0000 0.15160  0.19710  0.05420  Biso   1.000  H
  H64      1.0000 0.84840  0.19710  0.44580  Biso   1.000  H
  C89      1.0000 0.42910  0.14310  0.98990  Biso   1.000  C
  C90      1.0000 0.57090  0.14310  0.51010  Biso   1.000  C
  C91      1.0000 0.92910  0.64310  0.98990  Biso   1.000  C
  C92      1.0000 0.07090  0.64310  0.51010  Biso   1.000  C
  C93      1.0000 0.57090  0.85690  0.01010  Biso   1.000  C
  C94      1.0000 0.42910  0.85690  0.48990  Biso   1.000  C
  C95      1.0000 0.07090  0.35690  0.01010  Biso   1.000  C
  C96      1.0000 0.92910  0.35690  0.48990  Biso   1.000  C
  H65      1.0000 0.43920  0.13590  0.05040  Biso   1.000  H
  H66      1.0000 0.56080  0.13590  0.44960  Biso   1.000  H
  H67      1.0000 0.93920  0.63590  0.05040  Biso   1.000  H
  H68      1.0000 0.06080  0.63590  0.44960  Biso   1.000  H
  H69      1.0000 0.56080  0.86410  0.94960  Biso   1.000  H
  H70      1.0000 0.43920  0.86410  0.55040  Biso   1.000  H
  H71      1.0000 0.06080  0.36410  0.94960  Biso   1.000  H
  H72      1.0000 0.93920  0.36410  0.55040  Biso   1.000  H
  C97      1.0000 0.12530  0.73760  0.34290  Biso   1.000  C
  C98      1.0000 0.87470  0.73760  0.15710  Biso   1.000  C
  C99      1.0000 0.62530  0.23760  0.34290  Biso   1.000  C
  C100     1.0000 0.37470  0.23760  0.15710  Biso   1.000  C
  C101     1.0000 0.87470  0.26240  0.65710  Biso   1.000  C
  C102     1.0000 0.12530  0.26240  0.84290  Biso   1.000  C
  C103     1.0000 0.37470  0.76240  0.65710  Biso   1.000  C
  C104     1.0000 0.62530  0.76240  0.84290  Biso   1.000  C
  C105     1.0000 0.45120  0.06960  0.87450  Biso   1.000  C
  C106     1.0000 0.54880  0.06960  0.62550  Biso   1.000  C
  C107     1.0000 0.95120  0.56960  0.87450  Biso   1.000  C
  C108     1.0000 0.04880  0.56960  0.62550  Biso   1.000  C
  C109     1.0000 0.54880  0.93040  0.12550  Biso   1.000  C
  C110     1.0000 0.45120  0.93040  0.37450  Biso   1.000  C
  C111     1.0000 0.04880  0.43040  0.12550  Biso   1.000  C
  C112     1.0000 0.95120  0.43040  0.37450  Biso   1.000  C
  H73      1.0000 0.47660  0.01100  0.85430  Biso   1.000  H
  H74      1.0000 0.52340  0.01100  0.64570  Biso   1.000  H
  H75      1.0000 0.97660  0.51100  0.85430  Biso   1.000  H
  H76      1.0000 0.02340  0.51100  0.64570  Biso   1.000  H
  H77      1.0000 0.52340  0.98900  0.14570  Biso   1.000  H
  H78      1.0000 0.47660  0.98900  0.35430  Biso   1.000  H
  H79      1.0000 0.02340  0.48900  0.14570  Biso   1.000  H
  H80      1.0000 0.97660  0.48900  0.35430  Biso   1.000  H
