data_image0
_cell_length_a       10.025
_cell_length_b       8.055
_cell_length_c       22.444
_cell_angle_alpha    90
_cell_angle_beta     101.079
_cell_angle_gamma    90

_symmetry_space_group_name_H-M    "P 1"
_symmetry_int_tables_number       1

loop_
  _symmetry_equiv_pos_as_xyz
  'x, y, z'

loop_
  _atom_site_label
  _atom_site_occupancy
  _atom_site_fract_x
  _atom_site_fract_y
  _atom_site_fract_z
  _atom_site_thermal_displace_type
  _atom_site_B_iso_or_equiv
  _atom_site_type_symbol
  C1       1.0000 0.69240  0.84870  0.02768  Biso   1.000  C
  C2       1.0000 0.30760  0.34870  0.97232  Biso   1.000  C
  H1       1.0000 0.64670  0.80550  0.06040  Biso   1.000  H
  H2       1.0000 0.35330  0.30550  0.93960  Biso   1.000  H
  C3       1.0000 0.83180  0.91630  0.05870  Biso   1.000  C
  C4       1.0000 0.16820  0.41630  0.94130  Biso   1.000  C
  H3       1.0000 0.81540  0.01510  0.08330  Biso   1.000  H
  H4       1.0000 0.18460  0.51510  0.91670  Biso   1.000  H
  C5       1.0000 0.91260  0.97460  0.01224  Biso   1.000  C
  C6       1.0000 0.08740  0.47460  0.98776  Biso   1.000  C
  H5       1.0000 0.93660  0.87900  0.98950  Biso   1.000  H
  H6       1.0000 0.06340  0.37900  0.01050  Biso   1.000  H
  H7       1.0000 0.99570  0.03000  0.03300  Biso   1.000  H
  H8       1.0000 0.00430  0.53000  0.96700  Biso   1.000  H
  H9       1.0000 0.85780  0.05270  0.98420  Biso   1.000  H
  H10      1.0000 0.14220  0.55270  0.01580  Biso   1.000  H
  C7       1.0000 0.91210  0.79050  0.10194  Biso   1.000  C
  C8       1.0000 0.08790  0.29050  0.89806  Biso   1.000  C
  H11      1.0000 0.93000  0.69200  0.07910  Biso   1.000  H
  H12      1.0000 0.07000  0.19200  0.92090  Biso   1.000  H
  H13      1.0000 0.85950  0.75860  0.13270  Biso   1.000  H
  H14      1.0000 0.14050  0.25860  0.86730  Biso   1.000  H
  H15      1.0000 0.99850  0.83990  0.12190  Biso   1.000  H
  H16      1.0000 0.00150  0.33990  0.87810  Biso   1.000  H
  C9       1.0000 0.60140  0.98470  0.99424  Biso   1.000  C
  C10      1.0000 0.39860  0.48470  0.00576  Biso   1.000  C
  C11      1.0000 0.64780  0.38390  0.89671  Biso   1.000  C
  C12      1.0000 0.35220  0.88390  0.10329  Biso   1.000  C
  H17      1.0000 0.72070  0.40840  0.92930  Biso   1.000  H
  H18      1.0000 0.27930  0.90840  0.07070  Biso   1.000  H
  C13      1.0000 0.64530  0.23120  0.86866  Biso   1.000  C
  C14      1.0000 0.35470  0.73120  0.13134  Biso   1.000  C
  H19      1.0000 0.71520  0.15200  0.88150  Biso   1.000  H
  H20      1.0000 0.28480  0.65200  0.11850  Biso   1.000  H
  C15      1.0000 0.53850  0.19630  0.82145  Biso   1.000  C
  C16      1.0000 0.46150  0.69630  0.17855  Biso   1.000  C
  H21      1.0000 0.53400  0.09200  0.80140  Biso   1.000  H
  H22      1.0000 0.46600  0.59200  0.19860  Biso   1.000  H
  C17      1.0000 0.43870  0.31330  0.80363  Biso   1.000  C
  C18      1.0000 0.56130  0.81330  0.19637  Biso   1.000  C
  H23      1.0000 0.36450  0.29040  0.77140  Biso   1.000  H
  H24      1.0000 0.63550  0.79040  0.22860  Biso   1.000  H
  C19      1.0000 0.44790  0.46490  0.83334  Biso   1.000  C
  C20      1.0000 0.55210  0.96490  0.16666  Biso   1.000  C
  C21      1.0000 0.35100  0.60340  0.81682  Biso   1.000  C
  C22      1.0000 0.64900  0.10340  0.18318  Biso   1.000  C
  C23      1.0000 0.23660  0.59460  0.77089  Biso   1.000  C
  C24      1.0000 0.76340  0.09460  0.22911  Biso   1.000  C
  H25      1.0000 0.21440  0.49450  0.74880  Biso   1.000  H
  H26      1.0000 0.78560  0.99450  0.25120  Biso   1.000  H
  C25      1.0000 0.15590  0.73330  0.75787  Biso   1.000  C
  C26      1.0000 0.84410  0.23330  0.24213  Biso   1.000  C
  H27      1.0000 0.07700  0.72980  0.72680  Biso   1.000  H
  H28      1.0000 0.92300  0.22980  0.27320  Biso   1.000  H
  C27      1.0000 0.19060  0.87690  0.79034  Biso   1.000  C
  C28      1.0000 0.80940  0.37690  0.20966  Biso   1.000  C
  H29      1.0000 0.13730  0.97440  0.78130  Biso   1.000  H
  H30      1.0000 0.86270  0.47440  0.21870  Biso   1.000  H
  C29      1.0000 0.30490  0.87700  0.83650  Biso   1.000  C
  C30      1.0000 0.69510  0.37700  0.16350  Biso   1.000  C
  H31      1.0000 0.32810  0.97510  0.85970  Biso   1.000  H
  H32      1.0000 0.67190  0.47510  0.14030  Biso   1.000  H
  Cu1      1.0000 0.53906  0.71988  0.91808  Biso   1.000  Cu
  Cu2      1.0000 0.46094  0.21988  0.08192  Biso   1.000  Cu
  N1       1.0000 0.70000  0.70970  0.98531  Biso   1.000  N
  N2       1.0000 0.30000  0.20970  0.01469  Biso   1.000  N
  N3       1.0000 0.55210  0.49800  0.87987  Biso   1.000  N
  N4       1.0000 0.44790  0.99800  0.12013  Biso   1.000  N
  N5       1.0000 0.38320  0.74210  0.84910  Biso   1.000  N
  N6       1.0000 0.61680  0.24210  0.15090  Biso   1.000  N
  O1       1.0000 0.52410  0.94650  0.94432  Biso   1.000  O
  O2       1.0000 0.47590  0.44650  0.05568  Biso   1.000  O
  O3       1.0000 0.60280  0.12500  0.01792  Biso   1.000  O
  O4       1.0000 0.39720  0.62500  0.98208  Biso   1.000  O
  H33      1.0000 0.70700  0.63200  0.00770  Biso   1.000  H
  H34      1.0000 0.29300  0.13200  0.99230  Biso   1.000  H
  H35      1.0000 0.76900  0.72200  0.97250  Biso   1.000  H
  H36      1.0000 0.23100  0.22200  0.02750  Biso   1.000  H
  Cl1      1.0000 0.84049  0.80240  0.84146  Biso   1.000  Cl
  Cl2      1.0000 0.15951  0.30240  0.15854  Biso   1.000  Cl
  O5       1.0000 0.85590  0.73920  0.78354  Biso   1.000  O
  O6       1.0000 0.14410  0.23920  0.21646  Biso   1.000  O
  O7       1.0000 0.92200  0.94710  0.85628  Biso   1.000  O
  O8       1.0000 0.07800  0.44710  0.14372  Biso   1.000  O
  O9       1.0000 0.88080  0.67660  0.88692  Biso   1.000  O
  O10      1.0000 0.11920  0.17660  0.11308  Biso   1.000  O
  O11      1.0000 0.69930  0.84190  0.83984  Biso   1.000  O
  O12      1.0000 0.30070  0.34190  0.16016  Biso   1.000  O
  C31      1.0000 0.24180  0.11630  0.49625  Biso   1.000  C
  C32      1.0000 0.75820  0.61630  0.50375  Biso   1.000  C
  H37      1.0000 0.19130  0.06070  0.52500  Biso   1.000  H
  H38      1.0000 0.80870  0.56070  0.47500  Biso   1.000  H
  C33      1.0000 0.14940  0.10950  0.43379  Biso   1.000  C
  C34      1.0000 0.85060  0.60950  0.56621  Biso   1.000  C
  H39      1.0000 0.14420  0.99110  0.42010  Biso   1.000  H
  H40      1.0000 0.85580  0.49110  0.57990  Biso   1.000  H
  C35      1.0000 0.00610  0.16560  0.43661  Biso   1.000  C
  C36      1.0000 0.99390  0.66560  0.56339  Biso   1.000  C
  H41      1.0000 0.00770  0.28230  0.44900  Biso   1.000  H
  H42      1.0000 0.99230  0.78230  0.55100  Biso   1.000  H
  H43      1.0000 0.97040  0.09740  0.46610  Biso   1.000  H
  H44      1.0000 0.02960  0.59740  0.53390  Biso   1.000  H
  H45      1.0000 0.94780  0.15320  0.39650  Biso   1.000  H
  H46      1.0000 0.05220  0.65320  0.60350  Biso   1.000  H
  C37      1.0000 0.20670  0.21010  0.38730  Biso   1.000  C
  C38      1.0000 0.79330  0.71010  0.61270  Biso   1.000  C
  H47      1.0000 0.18850  0.32820  0.39250  Biso   1.000  H
  H48      1.0000 0.81150  0.82820  0.60750  Biso   1.000  H
  H49      1.0000 0.16350  0.17490  0.34630  Biso   1.000  H
  H50      1.0000 0.83650  0.67490  0.65370  Biso   1.000  H
  H51      1.0000 0.30500  0.19200  0.39310  Biso   1.000  H
  H52      1.0000 0.69500  0.69200  0.60690  Biso   1.000  H
  C39      1.0000 0.37610  0.02010  0.50001  Biso   1.000  C
  C40      1.0000 0.62390  0.52010  0.49999  Biso   1.000  C
  C41      1.0000 0.35530  0.62370  0.59903  Biso   1.000  C
  C42      1.0000 0.64470  0.12370  0.40097  Biso   1.000  C
  H53      1.0000 0.29180  0.61130  0.56200  Biso   1.000  H
  H54      1.0000 0.70820  0.11130  0.43800  Biso   1.000  H
  C43      1.0000 0.35560  0.76880  0.63170  Biso   1.000  C
  C44      1.0000 0.64440  0.26880  0.36830  Biso   1.000  C
  H55      1.0000 0.29310  0.85530  0.61750  Biso   1.000  H
  H56      1.0000 0.70690  0.35530  0.38250  Biso   1.000  H
  C45      1.0000 0.44810  0.78620  0.68541  Biso   1.000  C
  C46      1.0000 0.55190  0.28620  0.31459  Biso   1.000  C
  H57      1.0000 0.44980  0.88500  0.70870  Biso   1.000  H
  H58      1.0000 0.55020  0.38500  0.29130  Biso   1.000  H
  C47      1.0000 0.53860  0.65880  0.70512  Biso   1.000  C
  C48      1.0000 0.46140  0.15880  0.29488  Biso   1.000  C
  H59      1.0000 0.60280  0.66860  0.74200  Biso   1.000  H
  H60      1.0000 0.39720  0.16860  0.25800  Biso   1.000  H
  C49      1.0000 0.53370  0.51730  0.67020  Biso   1.000  C
  C50      1.0000 0.46630  0.01730  0.32980  Biso   1.000  C
  C51      1.0000 0.62740  0.37500  0.68560  Biso   1.000  C
  C52      1.0000 0.37260  0.87500  0.31440  Biso   1.000  C
  C53      1.0000 0.73780  0.37390  0.73355  Biso   1.000  C
  C54      1.0000 0.26220  0.87390  0.26645  Biso   1.000  C
  H61      1.0000 0.75910  0.46870  0.75880  Biso   1.000  H
  H62      1.0000 0.24090  0.96870  0.24120  Biso   1.000  H
  C55      1.0000 0.81590  0.23230  0.74374  Biso   1.000  C
  C56      1.0000 0.18410  0.73230  0.25626  Biso   1.000  C
  H63      1.0000 0.89230  0.22860  0.77620  Biso   1.000  H
  H64      1.0000 0.10770  0.72860  0.22380  Biso   1.000  H
  C57      1.0000 0.78280  0.09530  0.70656  Biso   1.000  C
  C58      1.0000 0.21720  0.59530  0.29344  Biso   1.000  C
  H65      1.0000 0.83470  0.99610  0.71350  Biso   1.000  H
  H66      1.0000 0.16530  0.49610  0.28650  Biso   1.000  H
  C59      1.0000 0.67300  0.10620  0.65930  Biso   1.000  C
  C60      1.0000 0.32700  0.60620  0.34070  Biso   1.000  C
  H67      1.0000 0.65020  0.01290  0.63340  Biso   1.000  H
  H68      1.0000 0.34980  0.51290  0.36660  Biso   1.000  H
  Cu3      1.0000 0.45426  0.28445  0.57531  Biso   1.000  Cu
  Cu4      1.0000 0.54574  0.78445  0.42469  Biso   1.000  Cu
  N7       1.0000 0.27350  0.28610  0.51980  Biso   1.000  N
  N8       1.0000 0.72650  0.78610  0.48020  Biso   1.000  N
  N9       1.0000 0.44240  0.49910  0.61819  Biso   1.000  N
  N10      1.0000 0.55760  0.99910  0.38181  Biso   1.000  N
  N11      1.0000 0.59730  0.24330  0.64858  Biso   1.000  N
  N12      1.0000 0.40270  0.74330  0.35142  Biso   1.000  N
  O13      1.0000 0.47860  0.07520  0.53671  Biso   1.000  O
  O14      1.0000 0.52140  0.57520  0.46329  Biso   1.000  O
  O15      1.0000 0.37660  0.89270  0.46943  Biso   1.000  O
  O16      1.0000 0.62340  0.39270  0.53057  Biso   1.000  O
  H69      1.0000 0.27000  0.36900  0.49430  Biso   1.000  H
  H70      1.0000 0.73000  0.86900  0.50570  Biso   1.000  H
  H71      1.0000 0.21400  0.31500  0.53610  Biso   1.000  H
  H72      1.0000 0.78600  0.81500  0.46390  Biso   1.000  H
  Cl3      1.0000 0.14054  0.17622  0.65610  Biso   1.000  Cl
  Cl4      1.0000 0.85946  0.67622  0.34390  Biso   1.000  Cl
  O17      1.0000 0.11770  0.23730  0.71312  Biso   1.000  O
  O18      1.0000 0.88230  0.73730  0.28688  Biso   1.000  O
  O19      1.0000 0.28440  0.16160  0.65772  Biso   1.000  O
  O20      1.0000 0.71560  0.66160  0.34228  Biso   1.000  O
  O21      1.0000 0.08150  0.28700  0.60829  Biso   1.000  O
  O22      1.0000 0.91850  0.78700  0.39171  Biso   1.000  O
  O23      1.0000 0.07810  0.01700  0.64439  Biso   1.000  O
  O24      1.0000 0.92190  0.51700  0.35561  Biso   1.000  O
  O25      1.0000 0.19530  0.61450  0.45557  Biso   1.000  O
  O26      1.0000 0.80470  0.11450  0.54443  Biso   1.000  O
  H73      1.0000 0.11630  0.65200  0.43500  Biso   1.000  H
  H74      1.0000 0.88370  0.15200  0.56500  Biso   1.000  H
  H75      1.0000 0.25300  0.69500  0.45120  Biso   1.000  H
  H76      1.0000 0.74700  0.19500  0.54880  Biso   1.000  H
  O27      1.0000 0.79760  0.38510  0.04055  Biso   1.000  O
  O28      1.0000 0.20240  0.88510  0.95945  Biso   1.000  O
  H77      1.0000 0.87100  0.35700  0.06820  Biso   1.000  H
  H78      1.0000 0.12900  0.85700  0.93180  Biso   1.000  H
  H79      1.0000 0.75200  0.28900  0.03620  Biso   1.000  H
  H80      1.0000 0.24800  0.78900  0.96380  Biso   1.000  H
