data_image0
_cell_length_a       10.0954
_cell_length_b       8.1245
_cell_length_c       23.297
_cell_angle_alpha    90
_cell_angle_beta     102.447
_cell_angle_gamma    90

_symmetry_space_group_name_H-M    "P 1"
_symmetry_int_tables_number       1

loop_
  _symmetry_equiv_pos_as_xyz
  'x, y, z'

loop_
  _atom_site_label
  _atom_site_occupancy
  _atom_site_fract_x
  _atom_site_fract_y
  _atom_site_fract_z
  _atom_site_thermal_displace_type
  _atom_site_B_iso_or_equiv
  _atom_site_type_symbol
  Cu1      1.0000 0.54210  0.12774  0.42682  Biso   1.000  Cu
  Cu2      1.0000 0.45790  0.62774  0.57318  Biso   1.000  Cu
  Cu3      1.0000 0.45844  0.54727  0.07953  Biso   1.000  Cu
  Cu4      1.0000 0.54156  0.04727  0.92048  Biso   1.000  Cu
  Cl1      1.0000 0.15994  0.62965  0.15600  Biso   1.000  Cl
  Cl2      1.0000 0.84006  0.12965  0.84400  Biso   1.000  Cl
  O1       1.0000 0.08510  0.77520  0.14380  Biso   1.000  O
  O2       1.0000 0.91490  0.27520  0.85620  Biso   1.000  O
  O3       1.0000 0.30220  0.66280  0.16092  Biso   1.000  O
  O4       1.0000 0.69780  0.16280  0.83908  Biso   1.000  O
  O5       1.0000 0.12000  0.53030  0.11060  Biso   1.000  O
  O6       1.0000 0.88000  0.03030  0.88940  Biso   1.000  O
  O7       1.0000 0.13980  0.56780  0.20890  Biso   1.000  O
  O8       1.0000 0.86020  0.06780  0.79110  Biso   1.000  O
  Cl3      1.0000 0.85117  0.02627  0.34502  Biso   1.000  Cl
  Cl4      1.0000 0.14883  0.52627  0.65498  Biso   1.000  Cl
  O9       1.0000 0.87630  0.07090  0.29049  Biso   1.000  O
  O10      1.0000 0.12370  0.57090  0.70951  Biso   1.000  O
  O11      1.0000 0.70970  0.00690  0.34051  Biso   1.000  O
  O12      1.0000 0.29030  0.50690  0.65949  Biso   1.000  O
  O13      1.0000 0.90510  0.13520  0.38980  Biso   1.000  O
  O14      1.0000 0.09490  0.63520  0.61020  Biso   1.000  O
  O15      1.0000 0.91590  0.87240  0.35950  Biso   1.000  O
  O16      1.0000 0.08410  0.37240  0.64050  Biso   1.000  O
  C1       1.0000 0.63810  0.46410  0.40213  Biso   1.000  C
  C2       1.0000 0.36190  0.96410  0.59787  Biso   1.000  C
  H1       1.0000 0.69900  0.45470  0.43810  Biso   1.000  H
  H2       1.0000 0.30100  0.95470  0.56190  Biso   1.000  H
  C3       1.0000 0.63890  0.60570  0.36938  Biso   1.000  C
  C4       1.0000 0.36110  0.10570  0.63062  Biso   1.000  C
  H3       1.0000 0.69980  0.69020  0.38290  Biso   1.000  H
  H4       1.0000 0.30020  0.19020  0.61710  Biso   1.000  H
  C5       1.0000 0.54760  0.61930  0.31639  Biso   1.000  C
  C6       1.0000 0.45240  0.11930  0.68361  Biso   1.000  C
  H5       1.0000 0.54510  0.71400  0.29370  Biso   1.000  H
  H6       1.0000 0.45490  0.21400  0.70630  Biso   1.000  H
  C7       1.0000 0.45990  0.49120  0.29729  Biso   1.000  C
  C8       1.0000 0.54010  0.99120  0.70271  Biso   1.000  C
  H7       1.0000 0.39860  0.49770  0.26130  Biso   1.000  H
  H8       1.0000 0.60140  0.99770  0.73870  Biso   1.000  H
  C9       1.0000 0.46380  0.35220  0.33225  Biso   1.000  C
  C10      1.0000 0.53620  0.85220  0.66775  Biso   1.000  C
  C11      1.0000 0.37230  0.20820  0.31718  Biso   1.000  C
  C12      1.0000 0.62770  0.70820  0.68282  Biso   1.000  C
  C13      1.0000 0.26540  0.20050  0.26862  Biso   1.000  C
  C14      1.0000 0.73460  0.70050  0.73138  Biso   1.000  C
  H9       1.0000 0.24670  0.28950  0.24300  Biso   1.000  H
  H10      1.0000 0.75330  0.78950  0.75700  Biso   1.000  H
  C15      1.0000 0.18820  0.06260  0.25871  Biso   1.000  C
  C16      1.0000 0.81180  0.56260  0.74129  Biso   1.000  C
  H11      1.0000 0.11490  0.05710  0.22680  Biso   1.000  H
  H12      1.0000 0.88510  0.55710  0.77320  Biso   1.000  H
  C17      1.0000 0.22000  0.92830  0.29709  Biso   1.000  C
  C18      1.0000 0.78000  0.42830  0.70291  Biso   1.000  C
  H13      1.0000 0.17060  0.83100  0.29020  Biso   1.000  H
  H14      1.0000 0.82940  0.33100  0.70980  Biso   1.000  H
  C19      1.0000 0.32510  0.94370  0.34471  Biso   1.000  C
  C20      1.0000 0.67490  0.44370  0.65529  Biso   1.000  C
  H15      1.0000 0.34570  0.85600  0.37080  Biso   1.000  H
  H16      1.0000 0.65430  0.35600  0.62920  Biso   1.000  H
  C21      1.0000 0.62460  0.86460  0.50055  Biso   1.000  C
  C22      1.0000 0.37540  0.36460  0.49945  Biso   1.000  C
  C23      1.0000 0.75690  0.96010  0.50382  Biso   1.000  C
  C24      1.0000 0.24310  0.46010  0.49618  Biso   1.000  C
  H17      1.0000 0.80420  0.90640  0.47630  Biso   1.000  H
  H18      1.0000 0.19580  0.40640  0.52370  Biso   1.000  H
  C25      1.0000 0.85240  0.95240  0.56435  Biso   1.000  C
  C26      1.0000 0.14760  0.45240  0.43565  Biso   1.000  C
  H19      1.0000 0.86170  0.83680  0.57650  Biso   1.000  H
  H20      1.0000 0.13830  0.33680  0.42350  Biso   1.000  H
  C27      1.0000 0.99270  0.01650  0.56184  Biso   1.000  C
  C28      1.0000 0.00730  0.51650  0.43816  Biso   1.000  C
  H21      1.0000 0.02730  0.95550  0.53300  Biso   1.000  H
  H22      1.0000 0.97270  0.45550  0.46700  Biso   1.000  H
  H23      1.0000 0.05250  0.00340  0.59960  Biso   1.000  H
  H24      1.0000 0.94750  0.50340  0.40040  Biso   1.000  H
  H25      1.0000 0.98670  0.13090  0.55130  Biso   1.000  H
  H26      1.0000 0.01330  0.63090  0.44870  Biso   1.000  H
  C29      1.0000 0.79870  0.04710  0.61049  Biso   1.000  C
  C30      1.0000 0.20130  0.54710  0.38951  Biso   1.000  C
  H27      1.0000 0.71060  0.00600  0.61240  Biso   1.000  H
  H28      1.0000 0.28940  0.50600  0.38760  Biso   1.000  H
  H29      1.0000 0.79220  0.16170  0.60030  Biso   1.000  H
  H30      1.0000 0.20780  0.66170  0.39970  Biso   1.000  H
  H31      1.0000 0.85940  0.03350  0.64800  Biso   1.000  H
  H32      1.0000 0.14060  0.53350  0.35200  Biso   1.000  H
  C31      1.0000 0.69000  0.70800  0.16081  Biso   1.000  C
  C32      1.0000 0.31000  0.20800  0.83919  Biso   1.000  C
  H33      1.0000 0.66830  0.80130  0.13760  Biso   1.000  H
  H34      1.0000 0.33170  0.30130  0.86240  Biso   1.000  H
  C33      1.0000 0.80150  0.71090  0.20737  Biso   1.000  C
  C34      1.0000 0.19850  0.21090  0.79263  Biso   1.000  C
  H35      1.0000 0.85340  0.80590  0.21590  Biso   1.000  H
  H36      1.0000 0.14660  0.30590  0.78410  Biso   1.000  H
  C35      1.0000 0.83440  0.57180  0.24063  Biso   1.000  C
  C36      1.0000 0.16560  0.07180  0.75937  Biso   1.000  C
  H37      1.0000 0.91000  0.57090  0.27160  Biso   1.000  H
  H38      1.0000 0.09000  0.07090  0.72840  Biso   1.000  H
  C37      1.0000 0.75510  0.43360  0.22803  Biso   1.000  C
  C38      1.0000 0.24490  0.93360  0.77197  Biso   1.000  C
  H39      1.0000 0.77590  0.33850  0.25040  Biso   1.000  H
  H40      1.0000 0.22410  0.83850  0.74960  Biso   1.000  H
  C39      1.0000 0.64280  0.43830  0.18114  Biso   1.000  C
  C40      1.0000 0.35720  0.93830  0.81886  Biso   1.000  C
  C41      1.0000 0.54780  0.29960  0.16487  Biso   1.000  C
  C42      1.0000 0.45220  0.79960  0.83513  Biso   1.000  C
  C43      1.0000 0.55430  0.15140  0.19522  Biso   1.000  C
  C44      1.0000 0.44570  0.65140  0.80478  Biso   1.000  C
  H41      1.0000 0.62380  0.13250  0.22790  Biso   1.000  H
  H42      1.0000 0.37620  0.63250  0.77210  Biso   1.000  H
  C45      1.0000 0.45780  0.03400  0.17665  Biso   1.000  C
  C46      1.0000 0.54220  0.53400  0.82335  Biso   1.000  C
  H43      1.0000 0.46220  0.93420  0.19650  Biso   1.000  H
  H44      1.0000 0.53780  0.43420  0.80350  Biso   1.000  H
  C47      1.0000 0.35440  0.06220  0.12887  Biso   1.000  C
  C48      1.0000 0.64560  0.56220  0.87113  Biso   1.000  C
  H45      1.0000 0.28770  0.98350  0.11600  Biso   1.000  H
  H46      1.0000 0.71230  0.48350  0.88400  Biso   1.000  H
  C49      1.0000 0.35300  0.21240  0.10039  Biso   1.000  C
  C50      1.0000 0.64700  0.71240  0.89961  Biso   1.000  C
  H47      1.0000 0.28320  0.23300  0.06800  Biso   1.000  H
  H48      1.0000 0.71680  0.73300  0.93200  Biso   1.000  H
  C51      1.0000 0.39790  0.80740  0.00371  Biso   1.000  C
  C52      1.0000 0.60210  0.30740  0.99629  Biso   1.000  C
  C53      1.0000 0.30890  0.66990  0.97093  Biso   1.000  C
  C54      1.0000 0.69110  0.16990  0.02907  Biso   1.000  C
  H49      1.0000 0.35690  0.62450  0.94210  Biso   1.000  H
  H50      1.0000 0.64310  0.12450  0.05790  Biso   1.000  H
  C55      1.0000 0.17180  0.73440  0.93648  Biso   1.000  C
  C56      1.0000 0.82820  0.23440  0.06352  Biso   1.000  C
  H51      1.0000 0.19110  0.83050  0.91420  Biso   1.000  H
  H52      1.0000 0.80890  0.33050  0.08580  Biso   1.000  H
  C57      1.0000 0.10270  0.60940  0.89220  Biso   1.000  C
  C58      1.0000 0.89730  0.10940  0.10780  Biso   1.000  C
  H53      1.0000 0.01760  0.65270  0.87110  Biso   1.000  H
  H54      1.0000 0.98240  0.15270  0.12890  Biso   1.000  H
  H55      1.0000 0.08720  0.51020  0.91210  Biso   1.000  H
  H56      1.0000 0.91280  0.01020  0.08790  Biso   1.000  H
  H57      1.0000 0.15940  0.58560  0.86500  Biso   1.000  H
  H58      1.0000 0.84060  0.08560  0.13500  Biso   1.000  H
  C59      1.0000 0.08170  0.79260  0.97590  Biso   1.000  C
  C60      1.0000 0.91830  0.29260  0.02410  Biso   1.000  C
  H59      1.0000 0.99780  0.83230  0.95250  Biso   1.000  H
  H60      1.0000 0.00220  0.33230  0.04750  Biso   1.000  H
  H61      1.0000 0.12600  0.87980  0.00060  Biso   1.000  H
  H62      1.0000 0.87400  0.37980  0.99940  Biso   1.000  H
  H63      1.0000 0.06370  0.70290  0.00000  Biso   1.000  H
  H64      1.0000 0.93630  0.20290  0.00000  Biso   1.000  H
  N1       1.0000 0.55300  0.34100  0.38381  Biso   1.000  N
  N2       1.0000 0.44700  0.84100  0.61619  Biso   1.000  N
  N3       1.0000 0.39970  0.08190  0.35504  Biso   1.000  N
  N4       1.0000 0.60030  0.58190  0.64496  Biso   1.000  N
  N5       1.0000 0.72440  0.13070  0.48129  Biso   1.000  N
  N6       1.0000 0.27560  0.63070  0.51871  Biso   1.000  N
  H65      1.0000 0.78750  0.16570  0.46210  Biso   1.000  H
  H66      1.0000 0.21250  0.66570  0.53790  Biso   1.000  H
  H67      1.0000 0.72380  0.19970  0.51140  Biso   1.000  H
  H68      1.0000 0.27620  0.69970  0.48860  Biso   1.000  H
  N7       1.0000 0.61230  0.57210  0.14859  Biso   1.000  N
  N8       1.0000 0.38770  0.07210  0.85141  Biso   1.000  N
  N9       1.0000 0.44620  0.32830  0.11704  Biso   1.000  N
  N10      1.0000 0.55380  0.82830  0.88296  Biso   1.000  N
  N11      1.0000 0.29810  0.53700  0.01256  Biso   1.000  N
  N12      1.0000 0.70190  0.03700  0.98744  Biso   1.000  N
  H69      1.0000 0.29550  0.43880  0.99450  Biso   1.000  H
  H70      1.0000 0.70450  0.93880  0.00550  Biso   1.000  H
  H71      1.0000 0.22130  0.54880  0.02590  Biso   1.000  H
  H72      1.0000 0.77870  0.04880  0.97410  Biso   1.000  H
  O17      1.0000 0.51949  0.92030  0.46497  Biso   1.000  O
  O18      1.0000 0.48051  0.42030  0.53503  Biso   1.000  O
  O19      1.0000 0.62380  0.73890  0.52994  Biso   1.000  O
  O20      1.0000 0.37620  0.23890  0.47006  Biso   1.000  O
  O21      1.0000 0.47150  0.77220  0.05343  Biso   1.000  O
  O22      1.0000 0.52850  0.27220  0.94657  Biso   1.000  O
  O23      1.0000 0.39680  0.94610  0.98061  Biso   1.000  O
  O24      1.0000 0.60320  0.44610  0.01939  Biso   1.000  O
  O25      1.0000 0.20080  0.21080  0.95964  Biso   1.000  O
  O26      1.0000 0.79920  0.71080  0.04036  Biso   1.000  O
  H73      1.0000 0.13300  0.15600  0.92200  Biso   1.000  H
  H74      1.0000 0.86700  0.65600  0.07800  Biso   1.000  H
  H75      1.0000 0.24700  0.15100  0.96240  Biso   1.000  H
  H76      1.0000 0.75300  0.65100  0.03760  Biso   1.000  H
  O27      1.0000 0.19430  0.95600  0.45684  Biso   1.000  O
  O28      1.0000 0.80570  0.45600  0.54316  Biso   1.000  O
  H77      1.0000 0.13100  0.96500  0.43420  Biso   1.000  H
  H78      1.0000 0.86900  0.46500  0.56580  Biso   1.000  H
  H79      1.0000 0.24700  0.05700  0.45940  Biso   1.000  H
  H80      1.0000 0.75300  0.55700  0.54060  Biso   1.000  H
