data_image0
_cell_length_a       13.353
_cell_length_b       12.995
_cell_length_c       20.948
_cell_angle_alpha    90
_cell_angle_beta     96.22
_cell_angle_gamma    90

_symmetry_space_group_name_H-M    "P 1"
_symmetry_int_tables_number       1

loop_
  _symmetry_equiv_pos_as_xyz
  'x, y, z'

loop_
  _atom_site_label
  _atom_site_occupancy
  _atom_site_fract_x
  _atom_site_fract_y
  _atom_site_fract_z
  _atom_site_thermal_displace_type
  _atom_site_B_iso_or_equiv
  _atom_site_type_symbol
  Cu1      1.0000 0.78160  0.03720  0.99705  Biso   1.000  Cu
  Cu2      1.0000 0.21840  0.53720  0.00295  Biso   1.000  Cu
  Cl1      1.0000 0.69110  0.93620  0.92330  Biso   1.000  Cl
  Cl2      1.0000 0.30890  0.43620  0.07670  Biso   1.000  Cl
  O1       1.0000 0.94640  0.01500  0.97590  Biso   1.000  O
  O2       1.0000 0.05360  0.51500  0.02410  Biso   1.000  O
  H1       1.0000 0.99310  0.00610  0.94840  Biso   1.000  H
  H2       1.0000 0.00690  0.50610  0.05160  Biso   1.000  H
  H3       1.0000 0.98600  0.04750  0.00690  Biso   1.000  H
  H4       1.0000 0.01400  0.54750  0.99310  Biso   1.000  H
  O3       1.0000 0.06610  0.11600  0.06820  Biso   1.000  O
  O4       1.0000 0.93390  0.61600  0.93180  Biso   1.000  O
  H5       1.0000 0.06260  0.09670  0.10920  Biso   1.000  H
  H6       1.0000 0.93740  0.59670  0.89080  Biso   1.000  H
  H7       1.0000 0.13230  0.11920  0.06390  Biso   1.000  H
  H8       1.0000 0.86770  0.61920  0.93610  Biso   1.000  H
  N1       1.0000 0.77070  0.14010  0.07300  Biso   1.000  N
  N2       1.0000 0.22930  0.64010  0.92700  Biso   1.000  N
  C1       1.0000 0.65950  0.16620  0.07160  Biso   1.000  C
  C2       1.0000 0.34050  0.66620  0.92840  Biso   1.000  C
  H9       1.0000 0.63820  0.19750  0.03080  Biso   1.000  H
  H10      1.0000 0.36180  0.69750  0.96920  Biso   1.000  H
  C3       1.0000 0.64240  0.24700  0.12420  Biso   1.000  C
  C4       1.0000 0.35760  0.74700  0.87580  Biso   1.000  C
  H11      1.0000 0.70350  0.28490  0.13480  Biso   1.000  H
  H12      1.0000 0.29650  0.78490  0.86520  Biso   1.000  H
  H13      1.0000 0.62800  0.21020  0.16200  Biso   1.000  H
  H14      1.0000 0.37200  0.71020  0.83800  Biso   1.000  H
  N3       1.0000 0.55400  0.32240  0.10500  Biso   1.000  N
  N4       1.0000 0.44600  0.82240  0.89500  Biso   1.000  N
  C5       1.0000 0.59800  0.07200  0.07710  Biso   1.000  C
  C6       1.0000 0.40200  0.57200  0.92290  Biso   1.000  C
  H15      1.0000 0.60940  0.02490  0.04340  Biso   1.000  H
  H16      1.0000 0.39060  0.52490  0.95660  Biso   1.000  H
  H17      1.0000 0.61680  0.04060  0.11800  Biso   1.000  H
  H18      1.0000 0.38320  0.54060  0.88200  Biso   1.000  H
  H19      1.0000 0.52780  0.09030  0.07350  Biso   1.000  H
  H20      1.0000 0.47220  0.59030  0.92650  Biso   1.000  H
  N5       1.0000 0.77950  0.16970  0.94720  Biso   1.000  N
  N6       1.0000 0.22050  0.66970  0.05280  Biso   1.000  N
  C7       1.0000 0.81560  0.25200  0.98610  Biso   1.000  C
  C8       1.0000 0.18440  0.75200  0.01390  Biso   1.000  C
  C9       1.0000 0.83300  0.33900  0.95930  Biso   1.000  C
  C10      1.0000 0.16700  0.83900  0.04070  Biso   1.000  C
  H21      1.0000 0.85540  0.39650  0.98580  Biso   1.000  H
  H22      1.0000 0.14460  0.89650  0.01420  Biso   1.000  H
  C11      1.0000 0.81800  0.35200  0.89140  Biso   1.000  C
  C12      1.0000 0.18200  0.85200  0.10860  Biso   1.000  C
  H23      1.0000 0.82970  0.41720  0.87170  Biso   1.000  H
  H24      1.0000 0.17030  0.91720  0.12830  Biso   1.000  H
  C13      1.0000 0.78700  0.27100  0.85630  Biso   1.000  C
  C14      1.0000 0.21300  0.77100  0.14370  Biso   1.000  C
  H25      1.0000 0.78010  0.27620  0.81030  Biso   1.000  H
  H26      1.0000 0.21990  0.77620  0.18970  Biso   1.000  H
  C15      1.0000 0.76500  0.17600  0.88410  Biso   1.000  C
  C16      1.0000 0.23500  0.67600  0.11590  Biso   1.000  C
  H27      1.0000 0.73810  0.11860  0.85880  Biso   1.000  H
  H28      1.0000 0.26190  0.61860  0.14120  Biso   1.000  H
  C17      1.0000 0.83500  0.22100  0.05680  Biso   1.000  C
  C18      1.0000 0.16500  0.72100  0.94320  Biso   1.000  C
  H29      1.0000 0.90370  0.19880  0.06570  Biso   1.000  H
  H30      1.0000 0.09630  0.69880  0.93430  Biso   1.000  H
  H31      1.0000 0.82590  0.27990  0.08340  Biso   1.000  H
  H32      1.0000 0.17410  0.77990  0.91660  Biso   1.000  H
  N7       1.0000 0.81280  0.93800  0.06380  Biso   1.000  N
  N8       1.0000 0.18720  0.43800  0.93620  Biso   1.000  N
  C19      1.0000 0.82520  0.97300  0.12750  Biso   1.000  C
  C20      1.0000 0.17480  0.47300  0.87250  Biso   1.000  C
  C21      1.0000 0.85400  0.91000  0.17790  Biso   1.000  C
  C22      1.0000 0.14600  0.41000  0.82210  Biso   1.000  C
  H33      1.0000 0.86040  0.93470  0.22130  Biso   1.000  H
  H34      1.0000 0.13960  0.43470  0.77870  Biso   1.000  H
  C23      1.0000 0.87600  0.80800  0.16390  Biso   1.000  C
  C24      1.0000 0.12400  0.30800  0.83610  Biso   1.000  C
  H35      1.0000 0.90040  0.76230  0.19790  Biso   1.000  H
  H36      1.0000 0.09960  0.26230  0.80210  Biso   1.000  H
  C25      1.0000 0.86300  0.77200  0.10310  Biso   1.000  C
  C26      1.0000 0.13700  0.27200  0.89690  Biso   1.000  C
  H37      1.0000 0.87660  0.70190  0.09330  Biso   1.000  H
  H38      1.0000 0.12340  0.20190  0.90670  Biso   1.000  H
  C27      1.0000 0.83000  0.83900  0.05590  Biso   1.000  C
  C28      1.0000 0.17000  0.33900  0.94410  Biso   1.000  C
  H39      1.0000 0.81620  0.81210  0.01310  Biso   1.000  H
  H40      1.0000 0.18380  0.31210  0.98690  Biso   1.000  H
  C29      1.0000 0.81130  0.08500  0.13350  Biso   1.000  C
  C30      1.0000 0.18870  0.58500  0.86650  Biso   1.000  C
  H41      1.0000 0.76580  0.09630  0.16520  Biso   1.000  H
  H42      1.0000 0.23420  0.59630  0.83480  Biso   1.000  H
  H43      1.0000 0.87490  0.11470  0.14940  Biso   1.000  H
  H44      1.0000 0.12510  0.61470  0.85060  Biso   1.000  H
  Cu3      1.0000 0.58170  0.74750  0.91903  Biso   1.000  Cu
  Cu4      1.0000 0.41830  0.24750  0.08097  Biso   1.000  Cu
  Cl3      1.0000 0.69970  0.62880  0.94550  Biso   1.000  Cl
  Cl4      1.0000 0.30030  0.12880  0.05450  Biso   1.000  Cl
  N9       1.0000 0.45610  0.27350  0.99250  Biso   1.000  N
  N10      1.0000 0.54390  0.77350  0.00750  Biso   1.000  N
  C31      1.0000 0.53100  0.34300  0.98880  Biso   1.000  C
  C32      1.0000 0.46900  0.84300  0.01120  Biso   1.000  C
  C33      1.0000 0.56500  0.37000  0.93020  Biso   1.000  C
  C34      1.0000 0.43500  0.87000  0.06980  Biso   1.000  C
  H45      1.0000 0.61790  0.41960  0.92800  Biso   1.000  H
  H46      1.0000 0.38210  0.91960  0.07200  Biso   1.000  H
  C35      1.0000 0.51700  0.32300  0.87540  Biso   1.000  C
  C36      1.0000 0.48300  0.82300  0.12460  Biso   1.000  C
  H47      1.0000 0.53480  0.34430  0.83430  Biso   1.000  H
  H48      1.0000 0.46520  0.84430  0.16570  Biso   1.000  H
  C37      1.0000 0.44700  0.25000  0.87780  Biso   1.000  C
  C38      1.0000 0.55300  0.75000  0.12220  Biso   1.000  C
  H49      1.0000 0.42140  0.21480  0.83910  Biso   1.000  H
  H50      1.0000 0.57860  0.71480  0.16090  Biso   1.000  H
  C39      1.0000 0.41100  0.22300  0.93690  Biso   1.000  C
  C40      1.0000 0.58900  0.72300  0.06310  Biso   1.000  C
  H51      1.0000 0.35910  0.17280  0.93930  Biso   1.000  H
  H52      1.0000 0.64090  0.67280  0.06070  Biso   1.000  H
  C41      1.0000 0.57280  0.38950  0.05180  Biso   1.000  C
  C42      1.0000 0.42720  0.88950  0.94820  Biso   1.000  C
  H53      1.0000 0.64390  0.40050  0.05210  Biso   1.000  H
  H54      1.0000 0.35610  0.90050  0.94790  Biso   1.000  H
  H55      1.0000 0.54150  0.45500  0.05690  Biso   1.000  H
  H56      1.0000 0.45850  0.95500  0.94310  Biso   1.000  H
  N11      1.0000 0.41320  0.24700  0.17580  Biso   1.000  N
  N12      1.0000 0.58680  0.74700  0.82420  Biso   1.000  N
  C43      1.0000 0.47750  0.31800  0.20560  Biso   1.000  C
  C44      1.0000 0.52250  0.81800  0.79440  Biso   1.000  C
  C45      1.0000 0.48000  0.32900  0.27300  Biso   1.000  C
  C46      1.0000 0.52000  0.82900  0.72700  Biso   1.000  C
  H57      1.0000 0.52350  0.37960  0.29540  Biso   1.000  H
  H58      1.0000 0.47650  0.87960  0.70460  Biso   1.000  H
  C47      1.0000 0.41900  0.26700  0.30630  Biso   1.000  C
  C48      1.0000 0.58100  0.76700  0.69370  Biso   1.000  C
  H59      1.0000 0.41850  0.27490  0.35180  Biso   1.000  H
  H60      1.0000 0.58150  0.77490  0.64820  Biso   1.000  H
  C49      1.0000 0.36400  0.20000  0.27620  Biso   1.000  C
  C50      1.0000 0.63600  0.70000  0.72380  Biso   1.000  C
  H61      1.0000 0.32500  0.15430  0.29990  Biso   1.000  H
  H62      1.0000 0.67500  0.65430  0.70010  Biso   1.000  H
  C51      1.0000 0.35700  0.18800  0.21000  Biso   1.000  C
  C52      1.0000 0.64300  0.68800  0.79000  Biso   1.000  C
  H63      1.0000 0.31190  0.13860  0.18800  Biso   1.000  H
  H64      1.0000 0.68810  0.63860  0.81200  Biso   1.000  H
  C53      1.0000 0.54120  0.38510  0.16510  Biso   1.000  C
  C54      1.0000 0.45880  0.88510  0.83490  Biso   1.000  C
  H65      1.0000 0.50780  0.44910  0.15420  Biso   1.000  H
  H66      1.0000 0.49220  0.94910  0.84580  Biso   1.000  H
  H67      1.0000 0.60560  0.39930  0.18840  Biso   1.000  H
  H68      1.0000 0.39440  0.89930  0.81160  Biso   1.000  H
  Cu5      1.0000 0.71740  0.59730  0.47125  Biso   1.000  Cu
  Cu6      1.0000 0.28260  0.09730  0.52875  Biso   1.000  Cu
  Cl5      1.0000 0.78040  0.70430  0.55420  Biso   1.000  Cl
  Cl6      1.0000 0.21960  0.20430  0.44580  Biso   1.000  Cl
  O5       1.0000 0.55510  0.63200  0.46750  Biso   1.000  O
  O6       1.0000 0.44490  0.13200  0.53250  Biso   1.000  O
  H69      1.0000 0.52750  0.61820  0.42730  Biso   1.000  H
  H70      1.0000 0.47250  0.11820  0.57270  Biso   1.000  H
  H71      1.0000 0.52340  0.59830  0.49680  Biso   1.000  H
  H72      1.0000 0.47660  0.09830  0.50320  Biso   1.000  H
  O7       1.0000 0.46100  0.52800  0.55700  Biso   1.000  O
  O8       1.0000 0.53900  0.02800  0.44300  Biso   1.000  O
  H73      1.0000 0.42050  0.56280  0.58130  Biso   1.000  H
  H74      1.0000 0.57950  0.06280  0.41870  Biso   1.000  H
  H75      1.0000 0.45490  0.47680  0.52850  Biso   1.000  H
  H76      1.0000 0.54510  0.97680  0.47150  Biso   1.000  H
  O9       1.0000 0.44100  0.37800  0.46600  Biso   1.000  O
  O10      1.0000 0.55900  0.87800  0.53400  Biso   1.000  O
  H77      1.0000 0.38260  0.41260  0.46370  Biso   1.000  H
  H78      1.0000 0.61740  0.91260  0.53630  Biso   1.000  H
  H79      1.0000 0.44250  0.31360  0.48290  Biso   1.000  H
  H80      1.0000 0.55750  0.81360  0.51710  Biso   1.000  H
  N13      1.0000 0.75110  0.49450  0.40100  Biso   1.000  N
  N14      1.0000 0.24890  0.99450  0.59900  Biso   1.000  N
  C55      1.0000 0.86090  0.46600  0.41440  Biso   1.000  C
  C56      1.0000 0.13910  0.96600  0.58560  Biso   1.000  C
  H81      1.0000 0.87040  0.43430  0.45610  Biso   1.000  H
  H82      1.0000 0.12960  0.93430  0.54390  Biso   1.000  H
  C57      1.0000 0.89210  0.38440  0.36460  Biso   1.000  C
  C58      1.0000 0.10790  0.88440  0.63540  Biso   1.000  C
  H83      1.0000 0.90780  0.42110  0.32720  Biso   1.000  H
  H84      1.0000 0.09220  0.92110  0.67280  Biso   1.000  H
  H85      1.0000 0.83440  0.34210  0.35190  Biso   1.000  H
  H86      1.0000 0.16560  0.84210  0.64810  Biso   1.000  H
  N15      1.0000 0.97790  0.31580  0.38590  Biso   1.000  N
  N16      1.0000 0.02210  0.81580  0.61410  Biso   1.000  N
  C59      1.0000 0.92760  0.56110  0.41590  Biso   1.000  C
  C60      1.0000 0.07240  0.06110  0.58410  Biso   1.000  C
  H87      1.0000 0.90780  0.60910  0.44700  Biso   1.000  H
  H88      1.0000 0.09220  0.10910  0.55300  Biso   1.000  H
  H89      1.0000 0.99650  0.54150  0.42710  Biso   1.000  H
  H90      1.0000 0.00350  0.04150  0.57290  Biso   1.000  H
  H91      1.0000 0.92050  0.59260  0.37420  Biso   1.000  H
  H92      1.0000 0.07950  0.09260  0.62580  Biso   1.000  H
  N17      1.0000 0.70480  0.47180  0.52060  Biso   1.000  N
  N18      1.0000 0.29520  0.97180  0.47940  Biso   1.000  N
  C61      1.0000 0.69080  0.38500  0.48340  Biso   1.000  C
  C62      1.0000 0.30920  0.88500  0.51660  Biso   1.000  C
  C63      1.0000 0.67100  0.29200  0.50820  Biso   1.000  C
  C64      1.0000 0.32900  0.79200  0.49180  Biso   1.000  C
  H93      1.0000 0.65410  0.23390  0.48120  Biso   1.000  H
  H94      1.0000 0.34590  0.73390  0.51880  Biso   1.000  H
  C65      1.0000 0.67600  0.28400  0.57910  Biso   1.000  C
  C66      1.0000 0.32400  0.78400  0.42090  Biso   1.000  C
  H95      1.0000 0.67020  0.21810  0.59890  Biso   1.000  H
  H96      1.0000 0.32980  0.71810  0.40110  Biso   1.000  H
  C67      1.0000 0.68800  0.36600  0.61370  Biso   1.000  C
  C68      1.0000 0.31200  0.86600  0.38630  Biso   1.000  C
  H97      1.0000 0.68550  0.36200  0.65930  Biso   1.000  H
  H98      1.0000 0.31450  0.86200  0.34070  Biso   1.000  H
  C69      1.0000 0.70600  0.45900  0.58590  Biso   1.000  C
  C70      1.0000 0.29400  0.95900  0.41410  Biso   1.000  C
  H99      1.0000 0.72130  0.51800  0.61280  Biso   1.000  H
  H100     1.0000 0.27870  0.01800  0.38720  Biso   1.000  H
  C71      1.0000 0.68230  0.40500  0.41250  Biso   1.000  C
  C72      1.0000 0.31770  0.90500  0.58750  Biso   1.000  C
  H101     1.0000 0.70190  0.34520  0.39020  Biso   1.000  H
  H102     1.0000 0.29810  0.84520  0.60980  Biso   1.000  H
  H103     1.0000 0.61400  0.42200  0.39700  Biso   1.000  H
  H104     1.0000 0.38600  0.92200  0.60300  Biso   1.000  H
  N19      1.0000 0.71460  0.69600  0.40040  Biso   1.000  N
  N20      1.0000 0.28540  0.19600  0.59960  Biso   1.000  N
  C73      1.0000 0.72370  0.65900  0.34020  Biso   1.000  C
  C74      1.0000 0.27630  0.15900  0.65980  Biso   1.000  C
  C75      1.0000 0.71900  0.72400  0.28740  Biso   1.000  C
  C76      1.0000 0.28100  0.22400  0.71260  Biso   1.000  C
  H105     1.0000 0.72730  0.69640  0.24580  Biso   1.000  H
  H106     1.0000 0.27270  0.19640  0.75420  Biso   1.000  H
  C77      1.0000 0.70100  0.82100  0.29420  Biso   1.000  C
  C78      1.0000 0.29900  0.32100  0.70580  Biso   1.000  C
  H107     1.0000 0.69710  0.86440  0.25700  Biso   1.000  H
  H108     1.0000 0.30290  0.36440  0.74300  Biso   1.000  H
  C79      1.0000 0.68900  0.86600  0.35280  Biso   1.000  C
  C80      1.0000 0.31100  0.36600  0.64720  Biso   1.000  C
  H109     1.0000 0.67260  0.93750  0.35780  Biso   1.000  H
  H110     1.0000 0.32740  0.43750  0.64220  Biso   1.000  H
  C81      1.0000 0.70100  0.79400  0.40440  Biso   1.000  C
  C82      1.0000 0.29900  0.29400  0.59560  Biso   1.000  C
  H111     1.0000 0.69990  0.82120  0.44680  Biso   1.000  H
  H112     1.0000 0.30010  0.32120  0.55320  Biso   1.000  H
  C83      1.0000 0.72690  0.54900  0.33660  Biso   1.000  C
  C84      1.0000 0.27310  0.04900  0.66340  Biso   1.000  C
  H113     1.0000 0.66300  0.52410  0.31710  Biso   1.000  H
  H114     1.0000 0.33700  0.02410  0.68290  Biso   1.000  H
  H115     1.0000 0.77690  0.52930  0.30920  Biso   1.000  H
  H116     1.0000 0.22310  0.02930  0.69080  Biso   1.000  H
  Cu7      1.0000 0.89080  0.88550  0.57681  Biso   1.000  Cu
  Cu8      1.0000 0.10920  0.38550  0.42319  Biso   1.000  Cu
  Cl7      1.0000 0.77750  0.00760  0.54140  Biso   1.000  Cl
  Cl8      1.0000 0.22250  0.50760  0.45860  Biso   1.000  Cl
  N21      1.0000 0.05110  0.36500  0.50880  Biso   1.000  N
  N22      1.0000 0.94890  0.86500  0.49120  Biso   1.000  N
  C85      1.0000 0.97690  0.29520  0.50340  Biso   1.000  C
  C86      1.0000 0.02310  0.79520  0.49660  Biso   1.000  C
  C87      1.0000 0.93200  0.26700  0.56050  Biso   1.000  C
  C88      1.0000 0.06800  0.76700  0.43950  Biso   1.000  C
  H117     1.0000 0.88520  0.21150  0.56100  Biso   1.000  H
  H118     1.0000 0.11480  0.71150  0.43900  Biso   1.000  H
  C89      1.0000 0.96400  0.32800  0.61410  Biso   1.000  C
  C90      1.0000 0.03600  0.82800  0.38590  Biso   1.000  C
  H119     1.0000 0.92830  0.31830  0.65120  Biso   1.000  H
  H120     1.0000 0.07170  0.81830  0.34880  Biso   1.000  H
  C91      1.0000 0.04100  0.39900  0.61720  Biso   1.000  C
  C92      1.0000 0.95900  0.89900  0.38280  Biso   1.000  C
  H121     1.0000 0.06540  0.43180  0.65690  Biso   1.000  H
  H122     1.0000 0.93460  0.93180  0.34310  Biso   1.000  H
  C93      1.0000 0.07800  0.41700  0.56460  Biso   1.000  C
  C94      1.0000 0.92200  0.91700  0.43540  Biso   1.000  C
  H123     1.0000 0.12640  0.47110  0.56400  Biso   1.000  H
  H124     1.0000 0.87360  0.97110  0.43600  Biso   1.000  H
  C95      1.0000 0.94690  0.24400  0.43890  Biso   1.000  C
  C96      1.0000 0.05310  0.74400  0.56110  Biso   1.000  C
  H125     1.0000 0.97980  0.17860  0.43700  Biso   1.000  H
  H126     1.0000 0.02020  0.67860  0.56300  Biso   1.000  H
  H127     1.0000 0.87540  0.23290  0.43340  Biso   1.000  H
  H128     1.0000 0.12460  0.73290  0.56660  Biso   1.000  H
  N23      1.0000 0.13260  0.38670  0.33160  Biso   1.000  N
  N24      1.0000 0.86740  0.88670  0.66840  Biso   1.000  N
  C97      1.0000 0.07800  0.32200  0.29480  Biso   1.000  C
  C98      1.0000 0.92200  0.82200  0.70520  Biso   1.000  C
  C99      1.0000 0.07600  0.30900  0.22870  Biso   1.000  C
  C100     1.0000 0.92400  0.80900  0.77130  Biso   1.000  C
  H129     1.0000 0.02930  0.26580  0.20350  Biso   1.000  H
  H130     1.0000 0.97070  0.76580  0.79650  Biso   1.000  H
  C101     1.0000 0.14800  0.36900  0.20250  Biso   1.000  C
  C102     1.0000 0.85200  0.86900  0.79750  Biso   1.000  C
  H131     1.0000 0.15520  0.36400  0.15740  Biso   1.000  H
  H132     1.0000 0.84480  0.86400  0.84260  Biso   1.000  H
  C103     1.0000 0.20800  0.43300  0.23790  Biso   1.000  C
  C104     1.0000 0.79200  0.93300  0.76210  Biso   1.000  C
  H133     1.0000 0.25880  0.47020  0.21860  Biso   1.000  H
  H134     1.0000 0.74120  0.97020  0.78140  Biso   1.000  H
  C105     1.0000 0.20400  0.44500  0.30530  Biso   1.000  C
  C106     1.0000 0.79600  0.94500  0.69470  Biso   1.000  C
  H135     1.0000 0.24680  0.49200  0.33090  Biso   1.000  H
  H136     1.0000 0.75320  0.99200  0.66910  Biso   1.000  H
  C107     1.0000 0.00710  0.25600  0.33020  Biso   1.000  C
  C108     1.0000 0.99290  0.75600  0.66980  Biso   1.000  C
  H137     1.0000 0.94850  0.23590  0.30230  Biso   1.000  H
  H138     1.0000 0.05150  0.73590  0.69770  Biso   1.000  H
  H139     1.0000 0.04210  0.19490  0.34580  Biso   1.000  H
  H140     1.0000 0.95790  0.69490  0.65420  Biso   1.000  H
  Cl9      1.0000 0.71040  0.13890  0.30360  Biso   1.000  Cl
  Cl10     1.0000 0.28960  0.63890  0.69640  Biso   1.000  Cl
  O11      1.0000 0.65000  0.07800  0.26040  Biso   1.000  O
  O12      1.0000 0.35000  0.57800  0.73960  Biso   1.000  O
  O13      1.0000 0.67600  0.14600  0.36530  Biso   1.000  O
  O14      1.0000 0.32400  0.64600  0.63470  Biso   1.000  O
  O15      1.0000 0.72130  0.23500  0.27800  Biso   1.000  O
  O16      1.0000 0.27870  0.73500  0.72200  Biso   1.000  O
  O17      1.0000 0.80100  0.08800  0.30910  Biso   1.000  O
  O18      1.0000 0.19900  0.58800  0.69090  Biso   1.000  O
  Cl11     1.0000 0.11330  0.00200  0.24670  Biso   1.000  Cl
  Cl12     1.0000 0.88670  0.50200  0.75330  Biso   1.000  Cl
  O19      1.0000 0.08470  0.90100  0.24640  Biso   1.000  O
  O20      1.0000 0.91530  0.40100  0.75360  Biso   1.000  O
  O21      1.0000 0.20800  0.00400  0.22200  Biso   1.000  O
  O22      1.0000 0.79200  0.50400  0.77800  Biso   1.000  O
  O23      1.0000 0.12200  0.05200  0.30530  Biso   1.000  O
  O24      1.0000 0.87800  0.55200  0.69470  Biso   1.000  O
  O25      1.0000 0.05200  0.05300  0.20200  Biso   1.000  O
  O26      1.0000 0.94800  0.55300  0.79800  Biso   1.000  O
  Cl13     1.0000 0.84940  0.49250  0.16660  Biso   1.000  Cl
  Cl14     1.0000 0.15060  0.99250  0.83340  Biso   1.000  Cl
  O27      1.0000 0.89500  0.56200  0.21400  Biso   1.000  O
  O28      1.0000 0.10500  0.06200  0.78600  Biso   1.000  O
  O29      1.0000 0.83600  0.40100  0.19270  Biso   1.000  O
  O30      1.0000 0.16400  0.90100  0.80730  Biso   1.000  O
  O31      1.0000 0.89900  0.48800  0.11370  Biso   1.000  O
  O32      1.0000 0.10100  0.98800  0.88630  Biso   1.000  O
  O33      1.0000 0.75600  0.53700  0.15360  Biso   1.000  O
  O34      1.0000 0.24400  0.03700  0.84640  Biso   1.000  O
  Cl15     1.0000 0.43800  0.64150  0.28600  Biso   1.000  Cl
  Cl16     1.0000 0.56200  0.14150  0.71400  Biso   1.000  Cl
  O35      1.0000 0.46700  0.58700  0.34170  Biso   1.000  O
  O36      1.0000 0.53300  0.08700  0.65830  Biso   1.000  O
  O37      1.0000 0.48400  0.59200  0.23920  Biso   1.000  O
  O38      1.0000 0.51600  0.09200  0.76080  Biso   1.000  O
  O39      1.0000 0.47100  0.74000  0.29300  Biso   1.000  O
  O40      1.0000 0.52900  0.24000  0.70700  Biso   1.000  O
  O41      1.0000 0.33100  0.65100  0.27790  Biso   1.000  O
  O42      1.0000 0.66900  0.15100  0.72210  Biso   1.000  O
