data_image0
_cell_length_a       10.8149
_cell_length_b       13.8352
_cell_length_c       14.1575
_cell_angle_alpha    103.553
_cell_angle_beta     95.11
_cell_angle_gamma    110.78

_symmetry_space_group_name_H-M    "P 1"
_symmetry_int_tables_number       1

loop_
  _symmetry_equiv_pos_as_xyz
  'x, y, z'

loop_
  _atom_site_label
  _atom_site_occupancy
  _atom_site_fract_x
  _atom_site_fract_y
  _atom_site_fract_z
  _atom_site_thermal_displace_type
  _atom_site_B_iso_or_equiv
  _atom_site_type_symbol
  C1       1.0000 0.65950  0.08110  0.98640  Biso   1.000  C
  C2       1.0000 0.34050  0.91890  0.01360  Biso   1.000  C
  C3       1.0000 0.70230  0.99360  0.96390  Biso   1.000  C
  C4       1.0000 0.29770  0.00640  0.03610  Biso   1.000  C
  H1       1.0000 0.70990  0.95840  0.90150  Biso   1.000  H
  H2       1.0000 0.29010  0.04160  0.09850  Biso   1.000  H
  C5       1.0000 0.73100  0.96960  0.05270  Biso   1.000  C
  C6       1.0000 0.26900  0.03040  0.94730  Biso   1.000  C
  H3       1.0000 0.75980  0.91520  0.05880  Biso   1.000  H
  H4       1.0000 0.24020  0.08480  0.94120  Biso   1.000  H
  C7       1.0000 0.70890  0.04130  0.12980  Biso   1.000  C
  C8       1.0000 0.29110  0.95870  0.87020  Biso   1.000  C
  H5       1.0000 0.72170  0.04350  0.19630  Biso   1.000  H
  H6       1.0000 0.27830  0.95650  0.80370  Biso   1.000  H
  C9       1.0000 0.66410  0.11000  0.09020  Biso   1.000  C
  C10      1.0000 0.33590  0.89000  0.90980  Biso   1.000  C
  H7       1.0000 0.64140  0.16480  0.12580  Biso   1.000  H
  H8       1.0000 0.35860  0.83520  0.87420  Biso   1.000  H
  C11      1.0000 0.96990  0.25400  0.02170  Biso   1.000  C
  C12      1.0000 0.03010  0.74600  0.97830  Biso   1.000  C
  H9       1.0000 0.94170  0.28660  0.97850  Biso   1.000  H
  H10      1.0000 0.05830  0.71340  0.02150  Biso   1.000  H
  C13      1.0000 0.01280  0.16900  0.99550  Biso   1.000  C
  C14      1.0000 0.98720  0.83100  0.00450  Biso   1.000  C
  H11      1.0000 0.01810  0.13460  0.93200  Biso   1.000  H
  H12      1.0000 0.98190  0.86540  0.06800  Biso   1.000  H
  C15      1.0000 0.04650  0.14510  0.08300  Biso   1.000  C
  C16      1.0000 0.95350  0.85490  0.91700  Biso   1.000  C
  H13      1.0000 0.07850  0.09190  0.08780  Biso   1.000  H
  H14      1.0000 0.92150  0.90810  0.91220  Biso   1.000  H
  C17      1.0000 0.02370  0.21430  0.16050  Biso   1.000  C
  C18      1.0000 0.97630  0.78570  0.83950  Biso   1.000  C
  H15      1.0000 0.03770  0.21560  0.22660  Biso   1.000  H
  H16      1.0000 0.96230  0.78440  0.77340  Biso   1.000  H
  C19      1.0000 0.97650  0.28160  0.12330  Biso   1.000  C
  C20      1.0000 0.02350  0.71840  0.87670  Biso   1.000  C
  H17      1.0000 0.95340  0.33560  0.16000  Biso   1.000  H
  H18      1.0000 0.04660  0.66440  0.84000  Biso   1.000  H
  C21      1.0000 0.61380  0.13020  0.91600  Biso   1.000  C
  C22      1.0000 0.38620  0.86980  0.08400  Biso   1.000  C
  C23      1.0000 0.58290  0.21970  0.94670  Biso   1.000  C
  C24      1.0000 0.41710  0.78030  0.05330  Biso   1.000  C
  H19      1.0000 0.59770  0.25280  0.01430  Biso   1.000  H
  H20      1.0000 0.40230  0.74720  0.98570  Biso   1.000  H
  C25      1.0000 0.51490  0.21340  0.78860  Biso   1.000  C
  C26      1.0000 0.48510  0.78660  0.21140  Biso   1.000  C
  H21      1.0000 0.47920  0.24150  0.74450  Biso   1.000  H
  H22      1.0000 0.52080  0.75850  0.25550  Biso   1.000  H
  C27      1.0000 0.59260  0.08810  0.81500  Biso   1.000  C
  C28      1.0000 0.40740  0.91190  0.18500  Biso   1.000  C
  H23      1.0000 0.61300  0.02830  0.79030  Biso   1.000  H
  H24      1.0000 0.38700  0.97170  0.20970  Biso   1.000  H
  C29      1.0000 0.74070  0.56660  0.09160  Biso   1.000  C
  C30      1.0000 0.25930  0.43340  0.90840  Biso   1.000  C
  C31      1.0000 0.88190  0.59990  0.14370  Biso   1.000  C
  C32      1.0000 0.11810  0.40010  0.85630  Biso   1.000  C
  C33      1.0000 0.95320  0.53660  0.11620  Biso   1.000  C
  C34      1.0000 0.04680  0.46340  0.88380  Biso   1.000  C
  H25      1.0000 0.91210  0.47190  0.06620  Biso   1.000  H
  H26      1.0000 0.08790  0.52810  0.93380  Biso   1.000  H
  C35      1.0000 0.08450  0.56780  0.16170  Biso   1.000  C
  C36      1.0000 0.91550  0.43220  0.83830  Biso   1.000  C
  H27      1.0000 0.13210  0.52480  0.14170  Biso   1.000  H
  H28      1.0000 0.86790  0.47520  0.85830  Biso   1.000  H
  C37      1.0000 0.14490  0.66150  0.23590  Biso   1.000  C
  C38      1.0000 0.85510  0.33850  0.76410  Biso   1.000  C
  H29      1.0000 0.23340  0.68190  0.26700  Biso   1.000  H
  H30      1.0000 0.76660  0.31810  0.73300  Biso   1.000  H
  C39      1.0000 0.07560  0.72630  0.26510  Biso   1.000  C
  C40      1.0000 0.92440  0.27370  0.73490  Biso   1.000  C
  H31      1.0000 0.11720  0.79040  0.31570  Biso   1.000  H
  H32      1.0000 0.88280  0.20960  0.68430  Biso   1.000  H
  C41      1.0000 0.94410  0.69560  0.21890  Biso   1.000  C
  C42      1.0000 0.05590  0.30440  0.78110  Biso   1.000  C
  H33      1.0000 0.89710  0.73930  0.23840  Biso   1.000  H
  H34      1.0000 0.10290  0.26070  0.76160  Biso   1.000  H
  C43      1.0000 0.42830  0.42360  0.14110  Biso   1.000  C
  C44      1.0000 0.57170  0.57640  0.85890  Biso   1.000  C
  C45      1.0000 0.40190  0.38040  0.22750  Biso   1.000  C
  C46      1.0000 0.59810  0.61960  0.77250  Biso   1.000  C
  C47      1.0000 0.39200  0.27830  0.22270  Biso   1.000  C
  C48      1.0000 0.60800  0.72170  0.77730  Biso   1.000  C
  H35      1.0000 0.39730  0.23430  0.16380  Biso   1.000  H
  H36      1.0000 0.60270  0.76570  0.83620  Biso   1.000  H
  C49      1.0000 0.37430  0.23960  0.30300  Biso   1.000  C
  C50      1.0000 0.62570  0.76040  0.69700  Biso   1.000  C
  H37      1.0000 0.36670  0.16940  0.29810  Biso   1.000  H
  H38      1.0000 0.63330  0.83060  0.70190  Biso   1.000  H
  C51      1.0000 0.36790  0.30240  0.38880  Biso   1.000  C
  C52      1.0000 0.63210  0.69760  0.61120  Biso   1.000  C
  H39      1.0000 0.35820  0.27690  0.44400  Biso   1.000  H
  H40      1.0000 0.64180  0.72310  0.55600  Biso   1.000  H
  C53      1.0000 0.37590  0.40360  0.39410  Biso   1.000  C
  C54      1.0000 0.62410  0.59640  0.60590  Biso   1.000  C
  H41      1.0000 0.37030  0.44710  0.45320  Biso   1.000  H
  H42      1.0000 0.62970  0.55290  0.54680  Biso   1.000  H
  C55      1.0000 0.39230  0.44310  0.31310  Biso   1.000  C
  C56      1.0000 0.60770  0.55690  0.68690  Biso   1.000  C
  H43      1.0000 0.39670  0.51240  0.31750  Biso   1.000  H
  H44      1.0000 0.60330  0.48760  0.68250  Biso   1.000  H
  C57      1.0000 0.70900  0.96200  0.53660  Biso   1.000  C
  C58      1.0000 0.29100  0.03800  0.46340  Biso   1.000  C
  C59      1.0000 0.83090  0.93840  0.56100  Biso   1.000  C
  C60      1.0000 0.16910  0.06160  0.43900  Biso   1.000  C
  C61      1.0000 0.90870  0.98400  0.65500  Biso   1.000  C
  C62      1.0000 0.09130  0.01600  0.34500  Biso   1.000  C
  H45      1.0000 0.88560  0.02980  0.70290  Biso   1.000  H
  H46      1.0000 0.11440  0.97020  0.29710  Biso   1.000  H
  C63      1.0000 0.02110  0.96180  0.67800  Biso   1.000  C
  C64      1.0000 0.97890  0.03820  0.32200  Biso   1.000  C
  H47      1.0000 0.07540  0.99470  0.74050  Biso   1.000  H
  H48      1.0000 0.92460  0.00530  0.25950  Biso   1.000  H
  C65      1.0000 0.05190  0.89140  0.60860  Biso   1.000  C
  C66      1.0000 0.94810  0.10860  0.39140  Biso   1.000  C
  H49      1.0000 0.12650  0.87570  0.62450  Biso   1.000  H
  H50      1.0000 0.87350  0.12430  0.37550  Biso   1.000  H
  C67      1.0000 0.97390  0.84380  0.51580  Biso   1.000  C
  C68      1.0000 0.02610  0.15620  0.48420  Biso   1.000  C
  H51      1.0000 0.99510  0.79540  0.46920  Biso   1.000  H
  H52      1.0000 0.00490  0.20460  0.53080  Biso   1.000  H
  C69      1.0000 0.86310  0.86770  0.49130  Biso   1.000  C
  C70      1.0000 0.13690  0.13230  0.50870  Biso   1.000  C
  H53      1.0000 0.81080  0.83620  0.42800  Biso   1.000  H
  H54      1.0000 0.18920  0.16380  0.57200  Biso   1.000  H
  C71      1.0000 0.36470  0.82390  0.53410  Biso   1.000  C
  C72      1.0000 0.63530  0.17610  0.46590  Biso   1.000  C
  C73      1.0000 0.29300  0.72090  0.55770  Biso   1.000  C
  C74      1.0000 0.70700  0.27910  0.44230  Biso   1.000  C
  C75      1.0000 0.28780  0.71970  0.65350  Biso   1.000  C
  C76      1.0000 0.71220  0.28030  0.34650  Biso   1.000  C
  H55      1.0000 0.32580  0.78480  0.70330  Biso   1.000  H
  H56      1.0000 0.67420  0.21520  0.29670  Biso   1.000  H
  C77      1.0000 0.22880  0.62630  0.67910  Biso   1.000  C
  C78      1.0000 0.77120  0.37370  0.32090  Biso   1.000  C
  H57      1.0000 0.22900  0.62810  0.74520  Biso   1.000  H
  H58      1.0000 0.77100  0.37190  0.25480  Biso   1.000  H
  C79      1.0000 0.16980  0.53080  0.60630  Biso   1.000  C
  C80      1.0000 0.83020  0.46920  0.39370  Biso   1.000  C
  H59      1.0000 0.13030  0.46680  0.62260  Biso   1.000  H
  H60      1.0000 0.86970  0.53320  0.37740  Biso   1.000  H
  C81      1.0000 0.16900  0.52940  0.51090  Biso   1.000  C
  C82      1.0000 0.83100  0.47060  0.48910  Biso   1.000  C
  H61      1.0000 0.12500  0.46460  0.46140  Biso   1.000  H
  H62      1.0000 0.87500  0.53540  0.53860  Biso   1.000  H
  C83      1.0000 0.23360  0.62430  0.48530  Biso   1.000  C
  C84      1.0000 0.76640  0.37570  0.51470  Biso   1.000  C
  H63      1.0000 0.23620  0.62190  0.41930  Biso   1.000  H
  H64      1.0000 0.76380  0.37810  0.58070  Biso   1.000  H
  Cu1      1.0000 0.50393  0.40934  0.95081  Biso   1.000  Cu
  Cu2      1.0000 0.49607  0.59066  0.04919  Biso   1.000  Cu
  Cu3      1.0000 0.51671  0.05306  0.59234  Biso   1.000  Cu
  Cu4      1.0000 0.48329  0.94694  0.40766  Biso   1.000  Cu
  Fe1      1.0000 0.84939  0.12543  0.06083  Biso   1.000  Fe
  Fe2      1.0000 0.15061  0.87457  0.93917  Biso   1.000  Fe
  N1       1.0000 0.53280  0.26090  0.88420  Biso   1.000  N
  N2       1.0000 0.46720  0.73910  0.11580  Biso   1.000  N
  N3       1.0000 0.54430  0.12860  0.75074  Biso   1.000  N
  N4       1.0000 0.45570  0.87140  0.24926  Biso   1.000  N
  O1       1.0000 0.44320  0.36310  0.06530  Biso   1.000  O
  O2       1.0000 0.55680  0.63690  0.93470  Biso   1.000  O
  O3       1.0000 0.68830  0.47540  0.02846  Biso   1.000  O
  O4       1.0000 0.31170  0.52460  0.97154  Biso   1.000  O
  O5       1.0000 0.43690  0.51900  0.14956  Biso   1.000  O
  O6       1.0000 0.56310  0.48100  0.85044  Biso   1.000  O
  O7       1.0000 0.68260  0.63100  0.11316  Biso   1.000  O
  O8       1.0000 0.31740  0.36900  0.88684  Biso   1.000  O
  O9       1.0000 0.67650  0.01730  0.60643  Biso   1.000  O
  O10      1.0000 0.32350  0.98270  0.39357  Biso   1.000  O
  O11      1.0000 0.40800  0.90920  0.60439  Biso   1.000  O
  O12      1.0000 0.59200  0.09080  0.39561  Biso   1.000  O
  O13      1.0000 0.64680  0.92500  0.44834  Biso   1.000  O
  O14      1.0000 0.35320  0.07500  0.55166  Biso   1.000  O
  O15      1.0000 0.37870  0.81830  0.44601  Biso   1.000  O
  O16      1.0000 0.62130  0.18170  0.55399  Biso   1.000  O
