data_image0
_cell_length_a       12.961
_cell_length_b       13.587
_cell_length_c       14.243
_cell_angle_alpha    75.775
_cell_angle_beta     88.547
_cell_angle_gamma    65.194

_symmetry_space_group_name_H-M    "P 1"
_symmetry_int_tables_number       1

loop_
  _symmetry_equiv_pos_as_xyz
  'x, y, z'

loop_
  _atom_site_label
  _atom_site_occupancy
  _atom_site_fract_x
  _atom_site_fract_y
  _atom_site_fract_z
  _atom_site_thermal_displace_type
  _atom_site_B_iso_or_equiv
  _atom_site_type_symbol
  Cu1      1.0000 0.98543  0.09960  0.44955  Biso   1.000  Cu
  Cu2      1.0000 0.01457  0.90040  0.55045  Biso   1.000  Cu
  Cu3      1.0000 0.99062  0.46327  0.09183  Biso   1.000  Cu
  Cu4      1.0000 0.00938  0.53673  0.90817  Biso   1.000  Cu
  Fe1      1.0000 0.70077  0.63880  0.47072  Biso   1.000  Fe
  Fe2      1.0000 0.29923  0.36120  0.52928  Biso   1.000  Fe
  O1       1.0000 0.10440  0.08130  0.54350  Biso   1.000  O
  O2       1.0000 0.89560  0.91870  0.45650  Biso   1.000  O
  O3       1.0000 0.86750  0.14700  0.53980  Biso   1.000  O
  O4       1.0000 0.13250  0.85300  0.46020  Biso   1.000  O
  O5       1.0000 0.12710  0.90760  0.63210  Biso   1.000  O
  O6       1.0000 0.87290  0.09240  0.36790  Biso   1.000  O
  O7       1.0000 0.89460  0.97720  0.62780  Biso   1.000  O
  O8       1.0000 0.10540  0.02280  0.37220  Biso   1.000  O
  O9       1.0000 0.89560  0.62400  0.08080  Biso   1.000  O
  O10      1.0000 0.10440  0.37600  0.91920  Biso   1.000  O
  O11      1.0000 0.13100  0.47710  0.11820  Biso   1.000  O
  O12      1.0000 0.86900  0.52290  0.88180  Biso   1.000  O
  O13      1.0000 0.91250  0.68670  0.92350  Biso   1.000  O
  O14      1.0000 0.08750  0.31330  0.07650  Biso   1.000  O
  O15      1.0000 0.14120  0.54530  0.95850  Biso   1.000  O
  O16      1.0000 0.85880  0.45470  0.04150  Biso   1.000  O
  N1       1.0000 0.95990  0.27320  0.37930  Biso   1.000  N
  N2       1.0000 0.04010  0.72680  0.62070  Biso   1.000  N
  N3       1.0000 0.96530  0.41210  0.24610  Biso   1.000  N
  N4       1.0000 0.03470  0.58790  0.75390  Biso   1.000  N
  N5       1.0000 0.82900  0.07300  0.03800  Biso   1.000  N
  N6       1.0000 0.17100  0.92700  0.96200  Biso   1.000  N
  C1       1.0000 0.98110  0.30770  0.28980  Biso   1.000  C
  C2       1.0000 0.01890  0.69230  0.71020  Biso   1.000  C
  C3       1.0000 0.92070  0.34830  0.43180  Biso   1.000  C
  C4       1.0000 0.07930  0.65170  0.56820  Biso   1.000  C
  C5       1.0000 0.90230  0.45890  0.39560  Biso   1.000  C
  C6       1.0000 0.09770  0.54110  0.60440  Biso   1.000  C
  C7       1.0000 0.92480  0.48830  0.30080  Biso   1.000  C
  C8       1.0000 0.07520  0.51170  0.69920  Biso   1.000  C
  C9       1.0000 0.86530  0.53900  0.45580  Biso   1.000  C
  C10      1.0000 0.13470  0.46100  0.54420  Biso   1.000  C
  C11      1.0000 0.84160  0.51600  0.55510  Biso   1.000  C
  C12      1.0000 0.15840  0.48400  0.44490  Biso   1.000  C
  C13      1.0000 0.80730  0.61760  0.58270  Biso   1.000  C
  C14      1.0000 0.19270  0.38240  0.41730  Biso   1.000  C
  C15      1.0000 0.80690  0.70180  0.50950  Biso   1.000  C
  C16      1.0000 0.19310  0.29820  0.49050  Biso   1.000  C
  C17      1.0000 0.84330  0.65420  0.42750  Biso   1.000  C
  C18      1.0000 0.15670  0.34580  0.57250  Biso   1.000  C
  C19      1.0000 0.59710  0.63300  0.37900  Biso   1.000  C
  C20      1.0000 0.40290  0.36700  0.62100  Biso   1.000  C
  C21      1.0000 0.59200  0.56500  0.46200  Biso   1.000  C
  C22      1.0000 0.40800  0.43500  0.53800  Biso   1.000  C
  C23      1.0000 0.54500  0.66400  0.51000  Biso   1.000  C
  C24      1.0000 0.45500  0.33600  0.49000  Biso   1.000  C
  C25      1.0000 0.57130  0.74000  0.36740  Biso   1.000  C
  C26      1.0000 0.42870  0.26000  0.63260  Biso   1.000  C
  C27      1.0000 0.14820  0.99360  0.61510  Biso   1.000  C
  C28      1.0000 0.85180  0.00640  0.38490  Biso   1.000  C
  C29      1.0000 0.24580  0.98660  0.67980  Biso   1.000  C
  C30      1.0000 0.75420  0.01340  0.32020  Biso   1.000  C
  C31      1.0000 0.35860  0.94730  0.63900  Biso   1.000  C
  C32      1.0000 0.64140  0.05270  0.36100  Biso   1.000  C
  C33      1.0000 0.45650  0.93060  0.70300  Biso   1.000  C
  C34      1.0000 0.54350  0.06940  0.29700  Biso   1.000  C
  C35      1.0000 0.56810  0.89420  0.65910  Biso   1.000  C
  C36      1.0000 0.43190  0.10580  0.34090  Biso   1.000  C
  C37      1.0000 0.66720  0.87490  0.72200  Biso   1.000  C
  C38      1.0000 0.33280  0.12510  0.27800  Biso   1.000  C
  C39      1.0000 0.93500  0.14600  0.12010  Biso   1.000  C
  C40      1.0000 0.06500  0.85400  0.87990  Biso   1.000  C
  C41      1.0000 0.87480  0.69990  0.00340  Biso   1.000  C
  C42      1.0000 0.12520  0.30010  0.99660  Biso   1.000  C
  C43      1.0000 0.79440  0.81820  0.00730  Biso   1.000  C
  C44      1.0000 0.20560  0.18180  0.99270  Biso   1.000  C
  C45      1.0000 0.69900  0.82740  0.07070  Biso   1.000  C
  C46      1.0000 0.30100  0.17260  0.92930  Biso   1.000  C
  C47      1.0000 0.18010  0.51670  0.04050  Biso   1.000  C
  C48      1.0000 0.81990  0.48330  0.95950  Biso   1.000  C
  C49      1.0000 0.28410  0.52760  0.06640  Biso   1.000  C
  C50      1.0000 0.71590  0.47240  0.93360  Biso   1.000  C
  C51      1.0000 0.36230  0.44720  0.14370  Biso   1.000  C
  C52      1.0000 0.63770  0.55280  0.85630  Biso   1.000  C
  C53      1.0000 0.47300  0.46100  0.16030  Biso   1.000  C
  C54      1.0000 0.52700  0.53900  0.83970  Biso   1.000  C
  C55      1.0000 0.84530  0.08210  0.60720  Biso   1.000  C
  C56      1.0000 0.15470  0.91790  0.39280  Biso   1.000  C
  C57      1.0000 0.75070  0.13390  0.66630  Biso   1.000  C
  C58      1.0000 0.24930  0.86610  0.33370  Biso   1.000  C
  C59      1.0000 0.60800  0.79500  0.02200  Biso   1.000  C
  C60      1.0000 0.39200  0.20500  0.97800  Biso   1.000  C
  C61      1.0000 0.55600  0.38400  0.21500  Biso   1.000  C
  C62      1.0000 0.44400  0.61600  0.78500  Biso   1.000  C
  C63      1.0000 0.66390  0.39000  0.23490  Biso   1.000  C
  C64      1.0000 0.33610  0.61000  0.76510  Biso   1.000  C
  C65      1.0000 0.73600  0.23400  0.68400  Biso   1.000  C
  C66      1.0000 0.26400  0.76600  0.31600  Biso   1.000  C
  C67      1.0000 0.81400  0.24500  0.75800  Biso   1.000  C
  C68      1.0000 0.18600  0.75500  0.24200  Biso   1.000  C
  C69      1.0000 0.92200  0.19500  0.75000  Biso   1.000  C
  C70      1.0000 0.07800  0.80500  0.25000  Biso   1.000  C
  C71      1.0000 0.87900  0.10500  0.07500  Biso   1.000  C
  C72      1.0000 0.12100  0.89500  0.92500  Biso   1.000  C
  C73      1.0000 0.53950  0.75700  0.45400  Biso   1.000  C
  C74      1.0000 0.46050  0.24300  0.54600  Biso   1.000  C
  C75      1.0000 0.98200  0.24100  0.80530  Biso   1.000  C
  C76      1.0000 0.01800  0.75900  0.19470  Biso   1.000  C
  C77      1.0000 0.49600  0.84500  0.08000  Biso   1.000  C
  C78      1.0000 0.50400  0.15500  0.92000  Biso   1.000  C
  C79      1.0000 0.47300  0.78300  0.04800  Biso   1.000  C
  C80      1.0000 0.52700  0.21700  0.95200  Biso   1.000  C
  H1       1.0000 0.01020  0.25370  0.25300  Biso   1.000  H
  H2       1.0000 0.98980  0.74630  0.74700  Biso   1.000  H
  H3       1.0000 0.90470  0.32460  0.49670  Biso   1.000  H
  H4       1.0000 0.09530  0.67540  0.50330  Biso   1.000  H
  H5       1.0000 0.91190  0.56390  0.27220  Biso   1.000  H
  H6       1.0000 0.08810  0.43610  0.72780  Biso   1.000  H
  H7       1.0000 0.84830  0.44600  0.59500  Biso   1.000  H
  H8       1.0000 0.15170  0.55400  0.40500  Biso   1.000  H
  H9       1.0000 0.78370  0.62620  0.64500  Biso   1.000  H
  H10      1.0000 0.21630  0.37380  0.35500  Biso   1.000  H
  H11      1.0000 0.78710  0.77700  0.51130  Biso   1.000  H
  H12      1.0000 0.21290  0.22300  0.48870  Biso   1.000  H
  H13      1.0000 0.85130  0.69370  0.36480  Biso   1.000  H
  H14      1.0000 0.14870  0.30630  0.63520  Biso   1.000  H
  H15      1.0000 0.62820  0.60100  0.32630  Biso   1.000  H
  H16      1.0000 0.37180  0.39900  0.67370  Biso   1.000  H
  H17      1.0000 0.59940  0.48980  0.48070  Biso   1.000  H
  H18      1.0000 0.40060  0.51020  0.51930  Biso   1.000  H
  H19      1.0000 0.52610  0.65640  0.57530  Biso   1.000  H
  H20      1.0000 0.47390  0.34360  0.42470  Biso   1.000  H
  H21      1.0000 0.57140  0.79400  0.31020  Biso   1.000  H
  H22      1.0000 0.42860  0.20600  0.68980  Biso   1.000  H
  H23      1.0000 0.25220  0.93600  0.74100  Biso   1.000  H
  H24      1.0000 0.74780  0.06400  0.25900  Biso   1.000  H
  H25      1.0000 0.22690  0.05910  0.68840  Biso   1.000  H
  H26      1.0000 0.77310  0.94090  0.31160  Biso   1.000  H
  H27      1.0000 0.35340  0.00130  0.58030  Biso   1.000  H
  H28      1.0000 0.64660  0.99870  0.41970  Biso   1.000  H
  H29      1.0000 0.37400  0.87770  0.62540  Biso   1.000  H
  H30      1.0000 0.62600  0.12230  0.37460  Biso   1.000  H
  H31      1.0000 0.46350  0.87500  0.76100  Biso   1.000  H
  H32      1.0000 0.53650  0.12500  0.23900  Biso   1.000  H
  H33      1.0000 0.44070  0.99960  0.71810  Biso   1.000  H
  H34      1.0000 0.55930  0.00040  0.28190  Biso   1.000  H
  H35      1.0000 0.56110  0.95060  0.60170  Biso   1.000  H
  H36      1.0000 0.43890  0.04940  0.39830  Biso   1.000  H
  H37      1.0000 0.58280  0.82610  0.64270  Biso   1.000  H
  H38      1.0000 0.41720  0.17390  0.35730  Biso   1.000  H
  H39      1.0000 0.70000  0.80030  0.76230  Biso   1.000  H
  H40      1.0000 0.30000  0.19970  0.23770  Biso   1.000  H
  H41      1.0000 0.72330  0.88690  0.68270  Biso   1.000  H
  H42      1.0000 0.27670  0.11310  0.31730  Biso   1.000  H
  H43      1.0000 0.63940  0.92620  0.76140  Biso   1.000  H
  H44      1.0000 0.36060  0.07380  0.23860  Biso   1.000  H
  H45      1.0000 0.98500  0.16480  0.07700  Biso   1.000  H
  H46      1.0000 0.01500  0.83520  0.92300  Biso   1.000  H
  H47      1.0000 0.97730  0.09140  0.17730  Biso   1.000  H
  H48      1.0000 0.02270  0.90860  0.82270  Biso   1.000  H
  H49      1.0000 0.88120  0.21200  0.13580  Biso   1.000  H
  H50      1.0000 0.11880  0.78800  0.86420  Biso   1.000  H
  H51      1.0000 0.83820  0.85000  0.03030  Biso   1.000  H
  H52      1.0000 0.16180  0.15000  0.96970  Biso   1.000  H
  H53      1.0000 0.76190  0.86020  0.94300  Biso   1.000  H
  H54      1.0000 0.23810  0.13980  0.05700  Biso   1.000  H
  H55      1.0000 0.72890  0.77740  0.13310  Biso   1.000  H
  H56      1.0000 0.27110  0.22260  0.86690  Biso   1.000  H
  H57      1.0000 0.66140  0.90220  0.07670  Biso   1.000  H
  H58      1.0000 0.33860  0.09780  0.92330  Biso   1.000  H
  H59      1.0000 0.25920  0.59790  0.08150  Biso   1.000  H
  H60      1.0000 0.74080  0.40210  0.91850  Biso   1.000  H
  H61      1.0000 0.32490  0.52830  0.01010  Biso   1.000  H
  H62      1.0000 0.67510  0.47170  0.98990  Biso   1.000  H
  H63      1.0000 0.38410  0.37550  0.13190  Biso   1.000  H
  H64      1.0000 0.61590  0.62450  0.86810  Biso   1.000  H
  H65      1.0000 0.32450  0.44990  0.20170  Biso   1.000  H
  H66      1.0000 0.67550  0.55010  0.79830  Biso   1.000  H
  H67      1.0000 0.45120  0.52470  0.18570  Biso   1.000  H
  H68      1.0000 0.54880  0.47530  0.81430  Biso   1.000  H
  H69      1.0000 0.49980  0.47610  0.09810  Biso   1.000  H
  H70      1.0000 0.50020  0.52390  0.90190  Biso   1.000  H
  H71      1.0000 0.76370  0.08100  0.72750  Biso   1.000  H
  H72      1.0000 0.23630  0.91900  0.27250  Biso   1.000  H
  H73      1.0000 0.68170  0.14640  0.63350  Biso   1.000  H
  H74      1.0000 0.31830  0.85360  0.36650  Biso   1.000  H
  H75      1.0000 0.59260  0.82950  0.95380  Biso   1.000  H
  H76      1.0000 0.40740  0.17050  0.04620  Biso   1.000  H
  H77      1.0000 0.63610  0.71580  0.03230  Biso   1.000  H
  H78      1.0000 0.36390  0.28420  0.96770  Biso   1.000  H
  H79      1.0000 0.57710  0.32080  0.18880  Biso   1.000  H
  H80      1.0000 0.42290  0.67920  0.81120  Biso   1.000  H
  H81      1.0000 0.52810  0.36910  0.27650  Biso   1.000  H
  H82      1.0000 0.47190  0.63090  0.72350  Biso   1.000  H
  H83      1.0000 0.65860  0.41100  0.29450  Biso   1.000  H
  H84      1.0000 0.34140  0.58900  0.70550  Biso   1.000  H
  H85      1.0000 0.72600  0.31920  0.24000  Biso   1.000  H
  H86      1.0000 0.27400  0.68080  0.76000  Biso   1.000  H
  H87      1.0000 0.67240  0.44610  0.18440  Biso   1.000  H
  H88      1.0000 0.32760  0.55390  0.81560  Biso   1.000  H
  H89      1.0000 0.66130  0.26360  0.70550  Biso   1.000  H
  H90      1.0000 0.33870  0.73640  0.29450  Biso   1.000  H
  H91      1.0000 0.73800  0.28040  0.62340  Biso   1.000  H
  H92      1.0000 0.26200  0.71960  0.37660  Biso   1.000  H
  H93      1.0000 0.79950  0.21560  0.82160  Biso   1.000  H
  H94      1.0000 0.20050  0.78440  0.17840  Biso   1.000  H
  H95      1.0000 0.79460  0.32310  0.74810  Biso   1.000  H
  H96      1.0000 0.20540  0.67690  0.25190  Biso   1.000  H
  H97      1.0000 0.93730  0.20890  0.68350  Biso   1.000  H
  H98      1.0000 0.06270  0.79110  0.31650  Biso   1.000  H
  H99      1.0000 0.94870  0.11620  0.77690  Biso   1.000  H
  H100     1.0000 0.05130  0.88380  0.22310  Biso   1.000  H
  H101     1.0000 0.51470  0.82630  0.47070  Biso   1.000  H
  H102     1.0000 0.48530  0.17370  0.52930  Biso   1.000  H
  H103     1.0000 0.00170  0.19620  0.87060  Biso   1.000  H
  H104     1.0000 0.99830  0.80380  0.12940  Biso   1.000  H
  H105     1.0000 0.04910  0.23860  0.77570  Biso   1.000  H
  H106     1.0000 0.95090  0.76140  0.22430  Biso   1.000  H
  H107     1.0000 0.93170  0.31580  0.80450  Biso   1.000  H
  H108     1.0000 0.06830  0.68420  0.19550  Biso   1.000  H
  H109     1.0000 0.50890  0.82680  0.14910  Biso   1.000  H
  H110     1.0000 0.49110  0.17320  0.85090  Biso   1.000  H
  H111     1.0000 0.44800  0.92300  0.05660  Biso   1.000  H
  H112     1.0000 0.55200  0.07700  0.94340  Biso   1.000  H
  H113     1.0000 0.43120  0.83120  0.98780  Biso   1.000  H
  H114     1.0000 0.56880  0.16880  0.01220  Biso   1.000  H
  H115     1.0000 0.42880  0.75500  0.09120  Biso   1.000  H
  H116     1.0000 0.57120  0.24500  0.90880  Biso   1.000  H
  H117     1.0000 0.53670  0.72090  0.03600  Biso   1.000  H
  H118     1.0000 0.46330  0.27910  0.96400  Biso   1.000  H
