data_image0
_cell_length_a       11.9892
_cell_length_b       6.8589
_cell_length_c       13.2344
_cell_angle_alpha    90
_cell_angle_beta     93.282
_cell_angle_gamma    90

_symmetry_space_group_name_H-M    "P 1"
_symmetry_int_tables_number       1

loop_
  _symmetry_equiv_pos_as_xyz
  'x, y, z'

loop_
  _atom_site_label
  _atom_site_occupancy
  _atom_site_fract_x
  _atom_site_fract_y
  _atom_site_fract_z
  _atom_site_thermal_displace_type
  _atom_site_B_iso_or_equiv
  _atom_site_type_symbol
  Cu1      1.0000 0.47080  0.23523  0.15521  Biso   1.000  Cu
  Cu2      1.0000 0.52920  0.73523  0.84479  Biso   1.000  Cu
  N1       1.0000 0.37164  0.47140  0.14286  Biso   1.000  N
  N2       1.0000 0.62836  0.97140  0.85714  Biso   1.000  N
  H1       1.0000 0.36830  0.53500  0.19900  Biso   1.000  H
  H2       1.0000 0.63170  0.03500  0.80100  Biso   1.000  H
  H3       1.0000 0.39840  0.54100  0.09970  Biso   1.000  H
  H4       1.0000 0.60160  0.04100  0.90030  Biso   1.000  H
  N3       1.0000 0.32638  0.08490  0.14558  Biso   1.000  N
  N4       1.0000 0.67362  0.58490  0.85442  Biso   1.000  N
  H5       1.0000 0.33600  0.97500  0.18800  Biso   1.000  H
  H6       1.0000 0.66400  0.47500  0.81200  Biso   1.000  H
  H7       1.0000 0.31120  0.03400  0.08700  Biso   1.000  H
  H8       1.0000 0.68880  0.53400  0.91300  Biso   1.000  H
  C1       1.0000 0.25679  0.40850  0.11071  Biso   1.000  C
  C2       1.0000 0.74321  0.90850  0.88929  Biso   1.000  C
  H9       1.0000 0.25510  0.37740  0.03840  Biso   1.000  H
  H10      1.0000 0.74490  0.87740  0.96160  Biso   1.000  H
  C3       1.0000 0.23491  0.22130  0.16819  Biso   1.000  C
  C4       1.0000 0.76509  0.72130  0.83181  Biso   1.000  C
  H11      1.0000 0.24030  0.25010  0.24080  Biso   1.000  H
  H12      1.0000 0.75970  0.75010  0.75920  Biso   1.000  H
  C5       1.0000 0.11836  0.13920  0.14059  Biso   1.000  C
  C6       1.0000 0.88164  0.63920  0.85941  Biso   1.000  C
  H13      1.0000 0.10480  0.02730  0.18290  Biso   1.000  H
  H14      1.0000 0.89520  0.52730  0.81710  Biso   1.000  H
  H15      1.0000 0.11430  0.09640  0.07060  Biso   1.000  H
  H16      1.0000 0.88570  0.59640  0.92940  Biso   1.000  H
  C7       1.0000 0.02874  0.29450  0.15532  Biso   1.000  C
  C8       1.0000 0.97126  0.79450  0.84468  Biso   1.000  C
  H17      1.0000 0.95610  0.24320  0.13280  Biso   1.000  H
  H18      1.0000 0.04390  0.74320  0.86720  Biso   1.000  H
  H19      1.0000 0.02690  0.32580  0.22670  Biso   1.000  H
  H20      1.0000 0.97310  0.82580  0.77330  Biso   1.000  H
  C9       1.0000 0.05220  0.47900  0.09611  Biso   1.000  C
  C10      1.0000 0.94780  0.97900  0.90389  Biso   1.000  C
  H21      1.0000 0.99570  0.57590  0.10840  Biso   1.000  H
  H22      1.0000 0.00430  0.07590  0.89160  Biso   1.000  H
  H23      1.0000 0.04800  0.44970  0.02430  Biso   1.000  H
  H24      1.0000 0.95200  0.94970  0.97570  Biso   1.000  H
  C11      1.0000 0.16758  0.56170  0.12667  Biso   1.000  C
  C12      1.0000 0.83242  0.06170  0.87333  Biso   1.000  C
  H25      1.0000 0.18160  0.67610  0.08630  Biso   1.000  H
  H26      1.0000 0.81840  0.17610  0.91370  Biso   1.000  H
  H27      1.0000 0.17030  0.60040  0.19730  Biso   1.000  H
  H28      1.0000 0.82970  0.10040  0.80270  Biso   1.000  H
  N5       1.0000 0.60803  0.39220  0.18830  Biso   1.000  N
  N6       1.0000 0.39197  0.89220  0.81170  Biso   1.000  N
  N7       1.0000 0.67734  0.40650  0.12679  Biso   1.000  N
  N8       1.0000 0.32266  0.90650  0.87321  Biso   1.000  N
  N9       1.0000 0.74615  0.42270  0.06985  Biso   1.000  N
  N10      1.0000 0.25385  0.92270  0.93015  Biso   1.000  N
  N11      1.0000 0.56403  0.98950  0.15586  Biso   1.000  N
  N12      1.0000 0.43597  0.48950  0.84414  Biso   1.000  N
  N13      1.0000 0.53955  0.86980  0.09211  Biso   1.000  N
  N14      1.0000 0.46045  0.36980  0.90789  Biso   1.000  N
  N15      1.0000 0.51707  0.75240  0.03157  Biso   1.000  N
  N16      1.0000 0.48293  0.25240  0.96843  Biso   1.000  N
  Cu3      1.0000 0.53127  0.93630  0.34771  Biso   1.000  Cu
  Cu4      1.0000 0.46873  0.43630  0.65229  Biso   1.000  Cu
  N17      1.0000 0.67429  0.09120  0.36785  Biso   1.000  N
  N18      1.0000 0.32571  0.59120  0.63215  Biso   1.000  N
  H29      1.0000 0.68220  0.15900  0.30830  Biso   1.000  H
  H30      1.0000 0.31780  0.65900  0.69170  Biso   1.000  H
  H31      1.0000 0.67180  0.17200  0.41100  Biso   1.000  H
  H32      1.0000 0.32820  0.67200  0.58900  Biso   1.000  H
  N19      1.0000 0.63376  0.70360  0.34686  Biso   1.000  N
  N20      1.0000 0.36624  0.20360  0.65314  Biso   1.000  N
  H33      1.0000 0.61540  0.61900  0.29640  Biso   1.000  H
  H34      1.0000 0.38460  0.11900  0.70360  Biso   1.000  H
  H35      1.0000 0.63380  0.65800  0.39710  Biso   1.000  H
  H36      1.0000 0.36620  0.15800  0.60290  Biso   1.000  H
  C13      1.0000 0.76794  0.95600  0.39344  Biso   1.000  C
  C14      1.0000 0.23206  0.45600  0.60656  Biso   1.000  C
  H37      1.0000 0.76500  0.92070  0.46500  Biso   1.000  H
  H38      1.0000 0.23500  0.42070  0.53500  Biso   1.000  H
  C15      1.0000 0.74895  0.77210  0.33111  Biso   1.000  C
  C16      1.0000 0.25105  0.27210  0.66889  Biso   1.000  C
  H39      1.0000 0.75270  0.80710  0.25960  Biso   1.000  H
  H40      1.0000 0.24730  0.30710  0.74040  Biso   1.000  H
  C17      1.0000 0.83971  0.62070  0.35661  Biso   1.000  C
  C18      1.0000 0.16029  0.12070  0.64339  Biso   1.000  C
  H41      1.0000 0.82900  0.50880  0.31230  Biso   1.000  H
  H42      1.0000 0.17100  0.00880  0.68770  Biso   1.000  H
  H43      1.0000 0.83440  0.57660  0.42580  Biso   1.000  H
  H44      1.0000 0.16560  0.07660  0.57420  Biso   1.000  H
  C19      1.0000 0.95613  0.70930  0.34383  Biso   1.000  C
  C20      1.0000 0.04387  0.20930  0.65617  Biso   1.000  C
  H45      1.0000 0.01290  0.61480  0.36500  Biso   1.000  H
  H46      1.0000 0.98710  0.11480  0.63500  Biso   1.000  H
  H47      1.0000 0.96440  0.73830  0.27290  Biso   1.000  H
  H48      1.0000 0.03560  0.23830  0.72710  Biso   1.000  H
  C21      1.0000 0.97377  0.89430  0.40536  Biso   1.000  C
  C22      1.0000 0.02623  0.39430  0.59464  Biso   1.000  C
  H49      1.0000 0.04610  0.94970  0.39250  Biso   1.000  H
  H50      1.0000 0.95390  0.44970  0.60750  Biso   1.000  H
  H51      1.0000 0.97350  0.86330  0.47690  Biso   1.000  H
  H52      1.0000 0.02650  0.36330  0.52310  Biso   1.000  H
  C23      1.0000 0.88207  0.04450  0.37836  Biso   1.000  C
  C24      1.0000 0.11793  0.54450  0.62164  Biso   1.000  C
  H53      1.0000 0.89280  0.15870  0.42100  Biso   1.000  H
  H54      1.0000 0.10720  0.65870  0.57900  Biso   1.000  H
  H55      1.0000 0.88640  0.08480  0.30840  Biso   1.000  H
  H56      1.0000 0.11360  0.58480  0.69160  Biso   1.000  H
  N21      1.0000 0.43927  0.18400  0.34529  Biso   1.000  N
  N22      1.0000 0.56073  0.68400  0.65471  Biso   1.000  N
  N23      1.0000 0.46348  0.30290  0.40819  Biso   1.000  N
  N24      1.0000 0.53652  0.80290  0.59181  Biso   1.000  N
  N25      1.0000 0.48609  0.42180  0.46878  Biso   1.000  N
  N26      1.0000 0.51391  0.92180  0.53122  Biso   1.000  N
  N27      1.0000 0.39449  0.77690  0.31199  Biso   1.000  N
  N28      1.0000 0.60551  0.27690  0.68801  Biso   1.000  N
  N29      1.0000 0.32289  0.78410  0.37215  Biso   1.000  N
  N30      1.0000 0.67711  0.28410  0.62785  Biso   1.000  N
  N31      1.0000 0.25299  0.78730  0.42858  Biso   1.000  N
  N32      1.0000 0.74701  0.28730  0.57142  Biso   1.000  N
