data_image0
_cell_length_a       13.024
_cell_length_b       9.848
_cell_length_c       13.067
_cell_angle_alpha    90
_cell_angle_beta     110.184
_cell_angle_gamma    90

_symmetry_space_group_name_H-M    "P 1"
_symmetry_int_tables_number       1

loop_
  _symmetry_equiv_pos_as_xyz
  'x, y, z'

loop_
  _atom_site_label
  _atom_site_occupancy
  _atom_site_fract_x
  _atom_site_fract_y
  _atom_site_fract_z
  _atom_site_thermal_displace_type
  _atom_site_B_iso_or_equiv
  _atom_site_type_symbol
  Cu1      1.0000 0.38903  0.70101  0.36873  Biso   1.000  Cu
  Cu2      1.0000 0.11097  0.20101  0.13127  Biso   1.000  Cu
  Cu3      1.0000 0.61097  0.29899  0.63127  Biso   1.000  Cu
  Cu4      1.0000 0.88903  0.79899  0.86873  Biso   1.000  Cu
  O1       1.0000 0.66140  0.38810  0.08170  Biso   1.000  O
  O2       1.0000 0.83860  0.88810  0.41830  Biso   1.000  O
  O3       1.0000 0.33860  0.61190  0.91830  Biso   1.000  O
  O4       1.0000 0.16140  0.11190  0.58170  Biso   1.000  O
  O5       1.0000 0.59110  0.20950  0.99720  Biso   1.000  O
  O6       1.0000 0.90890  0.70950  0.50280  Biso   1.000  O
  O7       1.0000 0.40890  0.79050  0.00280  Biso   1.000  O
  O8       1.0000 0.09110  0.29050  0.49720  Biso   1.000  O
  O9       1.0000 0.49750  0.33640  0.06420  Biso   1.000  O
  O10      1.0000 0.00250  0.83640  0.43580  Biso   1.000  O
  O11      1.0000 0.50250  0.66360  0.93580  Biso   1.000  O
  O12      1.0000 0.99750  0.16360  0.56420  Biso   1.000  O
  O13      1.0000 0.40530  0.06340  0.87470  Biso   1.000  O
  O14      1.0000 0.09470  0.56340  0.62530  Biso   1.000  O
  O15      1.0000 0.59470  0.93660  0.12530  Biso   1.000  O
  O16      1.0000 0.90530  0.43660  0.37470  Biso   1.000  O
  N1       1.0000 0.60880  0.56010  0.22580  Biso   1.000  N
  N2       1.0000 0.89120  0.06010  0.27420  Biso   1.000  N
  N3       1.0000 0.39120  0.43990  0.77420  Biso   1.000  N
  N4       1.0000 0.10880  0.93990  0.72580  Biso   1.000  N
  N5       1.0000 0.49840  0.64770  0.30120  Biso   1.000  N
  N6       1.0000 0.00160  0.14770  0.19880  Biso   1.000  N
  N7       1.0000 0.50160  0.35230  0.69880  Biso   1.000  N
  N8       1.0000 0.99840  0.85230  0.80120  Biso   1.000  N
  N9       1.0000 0.53380  0.76050  0.49480  Biso   1.000  N
  N10      1.0000 0.96620  0.26050  0.00520  Biso   1.000  N
  N11      1.0000 0.46620  0.23950  0.50520  Biso   1.000  N
  N12      1.0000 0.03380  0.73950  0.99480  Biso   1.000  N
  N13      1.0000 0.28880  0.72780  0.45380  Biso   1.000  N
  N14      1.0000 0.21120  0.22780  0.04620  Biso   1.000  N
  N15      1.0000 0.71120  0.27220  0.54620  Biso   1.000  N
  N16      1.0000 0.78880  0.77220  0.95380  Biso   1.000  N
  N17      1.0000 0.29020  0.54000  0.31250  Biso   1.000  N
  N18      1.0000 0.20980  0.04000  0.18750  Biso   1.000  N
  N19      1.0000 0.70980  0.46000  0.68750  Biso   1.000  N
  N20      1.0000 0.79020  0.96000  0.81250  Biso   1.000  N
  N21      1.0000 0.17480  0.37170  0.23230  Biso   1.000  N
  N22      1.0000 0.32520  0.87170  0.26770  Biso   1.000  N
  N23      1.0000 0.82520  0.62830  0.76770  Biso   1.000  N
  N24      1.0000 0.67480  0.12830  0.73230  Biso   1.000  N
  N25      1.0000 0.58270  0.30950  0.04930  Biso   1.000  N
  N26      1.0000 0.91730  0.80950  0.45070  Biso   1.000  N
  N27      1.0000 0.41730  0.69050  0.95070  Biso   1.000  N
  N28      1.0000 0.08270  0.19050  0.54930  Biso   1.000  N
  C1       1.0000 0.50390  0.58610  0.21460  Biso   1.000  C
  C2       1.0000 0.99610  0.08610  0.28540  Biso   1.000  C
  C3       1.0000 0.49610  0.41390  0.78540  Biso   1.000  C
  C4       1.0000 0.00390  0.91390  0.71460  Biso   1.000  C
  C5       1.0000 0.67320  0.60800  0.32350  Biso   1.000  C
  C6       1.0000 0.82680  0.10800  0.17650  Biso   1.000  C
  C7       1.0000 0.32680  0.39200  0.67650  Biso   1.000  C
  C8       1.0000 0.17320  0.89200  0.82350  Biso   1.000  C
  C9       1.0000 0.60550  0.66330  0.37160  Biso   1.000  C
  C10      1.0000 0.89450  0.16330  0.12840  Biso   1.000  C
  C11      1.0000 0.39450  0.33670  0.62840  Biso   1.000  C
  C12      1.0000 0.10550  0.83670  0.87160  Biso   1.000  C
  C13      1.0000 0.61900  0.72670  0.47490  Biso   1.000  C
  C14      1.0000 0.88100  0.22670  0.02510  Biso   1.000  C
  C15      1.0000 0.38100  0.27330  0.52510  Biso   1.000  C
  C16      1.0000 0.11900  0.77330  0.97490  Biso   1.000  C
  C17      1.0000 0.54550  0.82130  0.60070  Biso   1.000  C
  C18      1.0000 0.95450  0.32130  0.89930  Biso   1.000  C
  C19      1.0000 0.45450  0.17870  0.39930  Biso   1.000  C
  C20      1.0000 0.04550  0.67870  0.10070  Biso   1.000  C
  C21      1.0000 0.47960  0.74600  0.65770  Biso   1.000  C
  C22      1.0000 0.02040  0.24600  0.84230  Biso   1.000  C
  C23      1.0000 0.52040  0.25400  0.34230  Biso   1.000  C
  C24      1.0000 0.97960  0.75400  0.15770  Biso   1.000  C
  C25      1.0000 0.36810  0.80580  0.64580  Biso   1.000  C
  C26      1.0000 0.13190  0.30580  0.85420  Biso   1.000  C
  C27      1.0000 0.63190  0.19420  0.35420  Biso   1.000  C
  C28      1.0000 0.86810  0.69420  0.14580  Biso   1.000  C
  C29      1.0000 0.29580  0.83970  0.53030  Biso   1.000  C
  C30      1.0000 0.20420  0.33970  0.96970  Biso   1.000  C
  C31      1.0000 0.70420  0.16030  0.46970  Biso   1.000  C
  C32      1.0000 0.79580  0.66030  0.03030  Biso   1.000  C
  C33      1.0000 0.20970  0.64260  0.43100  Biso   1.000  C
  C34      1.0000 0.29030  0.14260  0.06900  Biso   1.000  C
  C35      1.0000 0.79030  0.35740  0.56900  Biso   1.000  C
  C36      1.0000 0.70970  0.85740  0.93100  Biso   1.000  C
  C37      1.0000 0.20620  0.53810  0.35410  Biso   1.000  C
  C38      1.0000 0.29380  0.03810  0.14590  Biso   1.000  C
  C39      1.0000 0.79380  0.46190  0.64590  Biso   1.000  C
  C40      1.0000 0.70620  0.96190  0.85410  Biso   1.000  C
  C41      1.0000 0.13580  0.43490  0.30370  Biso   1.000  C
  C42      1.0000 0.36420  0.93490  0.19630  Biso   1.000  C
  C43      1.0000 0.86420  0.56510  0.69630  Biso   1.000  C
  C44      1.0000 0.63580  0.06510  0.80370  Biso   1.000  C
  C45      1.0000 0.26740  0.43890  0.24110  Biso   1.000  C
  C46      1.0000 0.23260  0.93890  0.25890  Biso   1.000  C
  C47      1.0000 0.73260  0.56110  0.75890  Biso   1.000  C
  C48      1.0000 0.76740  0.06110  0.74110  Biso   1.000  C
  H1       1.0000 0.44320  0.56300  0.15260  Biso   1.000  H
  H2       1.0000 0.05680  0.06300  0.34740  Biso   1.000  H
  H3       1.0000 0.55680  0.43700  0.84740  Biso   1.000  H
  H4       1.0000 0.94320  0.93700  0.65260  Biso   1.000  H
  H5       1.0000 0.63290  0.51550  0.17380  Biso   1.000  H
  H6       1.0000 0.86710  0.01550  0.32620  Biso   1.000  H
  H7       1.0000 0.36710  0.48450  0.82620  Biso   1.000  H
  H8       1.0000 0.13290  0.98450  0.67380  Biso   1.000  H
  H9       1.0000 0.75070  0.60380  0.35330  Biso   1.000  H
  H10      1.0000 0.74930  0.10380  0.14670  Biso   1.000  H
  H11      1.0000 0.24930  0.39620  0.64670  Biso   1.000  H
  H12      1.0000 0.25070  0.89620  0.85330  Biso   1.000  H
  H13      1.0000 0.68960  0.74250  0.52650  Biso   1.000  H
  H14      1.0000 0.81040  0.24250  0.97350  Biso   1.000  H
  H15      1.0000 0.31040  0.25750  0.47350  Biso   1.000  H
  H16      1.0000 0.18960  0.75750  0.02650  Biso   1.000  H
  H17      1.0000 0.62070  0.81880  0.64490  Biso   1.000  H
  H18      1.0000 0.87930  0.31880  0.85510  Biso   1.000  H
  H19      1.0000 0.37930  0.18120  0.35510  Biso   1.000  H
  H20      1.0000 0.12070  0.68120  0.14490  Biso   1.000  H
  H21      1.0000 0.52160  0.91280  0.58910  Biso   1.000  H
  H22      1.0000 0.97840  0.41280  0.91090  Biso   1.000  H
  H23      1.0000 0.47840  0.08720  0.41090  Biso   1.000  H
  H24      1.0000 0.02160  0.58720  0.08910  Biso   1.000  H
  H25      1.0000 0.52110  0.74180  0.73310  Biso   1.000  H
  H26      1.0000 0.97890  0.24180  0.76690  Biso   1.000  H
  H27      1.0000 0.47890  0.25820  0.26690  Biso   1.000  H
  H28      1.0000 0.02110  0.75820  0.23310  Biso   1.000  H
  H29      1.0000 0.46710  0.65560  0.62890  Biso   1.000  H
  H30      1.0000 0.03290  0.15560  0.87110  Biso   1.000  H
  H31      1.0000 0.53290  0.34440  0.37110  Biso   1.000  H
  H32      1.0000 0.96710  0.84440  0.12890  Biso   1.000  H
  H33      1.0000 0.38060  0.88790  0.68700  Biso   1.000  H
  H34      1.0000 0.11940  0.38790  0.81300  Biso   1.000  H
  H35      1.0000 0.61940  0.11210  0.31300  Biso   1.000  H
  H36      1.0000 0.88060  0.61210  0.18700  Biso   1.000  H
  H37      1.0000 0.33030  0.74340  0.67470  Biso   1.000  H
  H38      1.0000 0.16970  0.24340  0.82530  Biso   1.000  H
  H39      1.0000 0.66970  0.25660  0.32530  Biso   1.000  H
  H40      1.0000 0.83030  0.75660  0.17470  Biso   1.000  H
  H41      1.0000 0.32470  0.91720  0.50620  Biso   1.000  H
  H42      1.0000 0.17530  0.41720  0.99380  Biso   1.000  H
  H43      1.0000 0.67530  0.08280  0.49380  Biso   1.000  H
  H44      1.0000 0.82470  0.58280  0.00620  Biso   1.000  H
  H45      1.0000 0.22430  0.85930  0.52980  Biso   1.000  H
  H46      1.0000 0.27570  0.35930  0.97020  Biso   1.000  H
  H47      1.0000 0.77570  0.14070  0.47020  Biso   1.000  H
  H48      1.0000 0.72430  0.64070  0.02980  Biso   1.000  H
  H49      1.0000 0.15570  0.64870  0.46430  Biso   1.000  H
  H50      1.0000 0.34430  0.14870  0.03570  Biso   1.000  H
  H51      1.0000 0.84430  0.35130  0.53570  Biso   1.000  H
  H52      1.0000 0.65570  0.85130  0.96430  Biso   1.000  H
  H53      1.0000 0.07070  0.41140  0.31650  Biso   1.000  H
  H54      1.0000 0.42930  0.91140  0.18350  Biso   1.000  H
  H55      1.0000 0.92930  0.58860  0.68350  Biso   1.000  H
  H56      1.0000 0.57070  0.08860  0.81650  Biso   1.000  H
  H57      1.0000 0.31180  0.41660  0.19950  Biso   1.000  H
  H58      1.0000 0.18820  0.91660  0.30050  Biso   1.000  H
  H59      1.0000 0.68820  0.58340  0.80050  Biso   1.000  H
  H60      1.0000 0.81180  0.08340  0.69950  Biso   1.000  H
