data_image0
_cell_length_a       9.3812
_cell_length_b       12.9376
_cell_length_c       18.1801
_cell_angle_alpha    90
_cell_angle_beta     90
_cell_angle_gamma    90

_symmetry_space_group_name_H-M    "P 1"
_symmetry_int_tables_number       1

loop_
  _symmetry_equiv_pos_as_xyz
  'x, y, z'

loop_
  _atom_site_label
  _atom_site_occupancy
  _atom_site_fract_x
  _atom_site_fract_y
  _atom_site_fract_z
  _atom_site_thermal_displace_type
  _atom_site_B_iso_or_equiv
  _atom_site_type_symbol
  C1       1.0000 0.04260  0.25000  0.48650  Biso   1.000  C
  C2       1.0000 0.45740  0.75000  0.98650  Biso   1.000  C
  C3       1.0000 0.54260  0.25000  0.01350  Biso   1.000  C
  C4       1.0000 0.95740  0.75000  0.51350  Biso   1.000  C
  H1       1.0000 0.05300  0.25000  0.43550  Biso   1.000  H
  H2       1.0000 0.44700  0.75000  0.93550  Biso   1.000  H
  H3       1.0000 0.55300  0.25000  0.06450  Biso   1.000  H
  H4       1.0000 0.94700  0.75000  0.56450  Biso   1.000  H
  C5       1.0000 0.99850  0.25000  0.97340  Biso   1.000  C
  C6       1.0000 0.50150  0.75000  0.47340  Biso   1.000  C
  C7       1.0000 0.49850  0.25000  0.52660  Biso   1.000  C
  C8       1.0000 0.00150  0.75000  0.02660  Biso   1.000  C
  H5       1.0000 0.93650  0.25000  0.01330  Biso   1.000  H
  H6       1.0000 0.56350  0.75000  0.51330  Biso   1.000  H
  H7       1.0000 0.43650  0.25000  0.48670  Biso   1.000  H
  H8       1.0000 0.06350  0.75000  0.98670  Biso   1.000  H
  C9       1.0000 0.33560  0.03070  0.87040  Biso   1.000  C
  C10      1.0000 0.16440  0.96930  0.37040  Biso   1.000  C
  C11      1.0000 0.83560  0.46930  0.62960  Biso   1.000  C
  C12      1.0000 0.66440  0.53070  0.12960  Biso   1.000  C
  C13      1.0000 0.66440  0.96930  0.12960  Biso   1.000  C
  C14      1.0000 0.83560  0.03070  0.62960  Biso   1.000  C
  C15      1.0000 0.16440  0.53070  0.37040  Biso   1.000  C
  C16      1.0000 0.33560  0.46930  0.87040  Biso   1.000  C
  H9       1.0000 0.43170  0.04780  0.86750  Biso   1.000  H
  H10      1.0000 0.06830  0.95220  0.36750  Biso   1.000  H
  H11      1.0000 0.93170  0.45220  0.63250  Biso   1.000  H
  H12      1.0000 0.56830  0.54780  0.13250  Biso   1.000  H
  H13      1.0000 0.56830  0.95220  0.13250  Biso   1.000  H
  H14      1.0000 0.93170  0.04780  0.63250  Biso   1.000  H
  H15      1.0000 0.06830  0.54780  0.36750  Biso   1.000  H
  H16      1.0000 0.43170  0.45220  0.86750  Biso   1.000  H
  C17      1.0000 0.13760  0.94220  0.86860  Biso   1.000  C
  C18      1.0000 0.36240  0.05780  0.36860  Biso   1.000  C
  C19      1.0000 0.63760  0.55780  0.63140  Biso   1.000  C
  C20      1.0000 0.86240  0.44220  0.13140  Biso   1.000  C
  C21      1.0000 0.86240  0.05780  0.13140  Biso   1.000  C
  C22      1.0000 0.63760  0.94220  0.63140  Biso   1.000  C
  C23      1.0000 0.36240  0.44220  0.36860  Biso   1.000  C
  C24      1.0000 0.13760  0.55780  0.86860  Biso   1.000  C
  H17      1.0000 0.07260  0.88830  0.86430  Biso   1.000  H
  H18      1.0000 0.42740  0.11170  0.36430  Biso   1.000  H
  H19      1.0000 0.57260  0.61170  0.63570  Biso   1.000  H
  H20      1.0000 0.92740  0.38830  0.13570  Biso   1.000  H
  H21      1.0000 0.92740  0.11170  0.13570  Biso   1.000  H
  H22      1.0000 0.57260  0.88830  0.63570  Biso   1.000  H
  H23      1.0000 0.42740  0.38830  0.36430  Biso   1.000  H
  H24      1.0000 0.07260  0.61170  0.86430  Biso   1.000  H
  C25      1.0000 0.21370  0.56630  0.65920  Biso   1.000  C
  C26      1.0000 0.28630  0.43370  0.15920  Biso   1.000  C
  C27      1.0000 0.71370  0.93370  0.84080  Biso   1.000  C
  C28      1.0000 0.78630  0.06630  0.34080  Biso   1.000  C
  C29      1.0000 0.78630  0.43370  0.34080  Biso   1.000  C
  C30      1.0000 0.71370  0.56630  0.84080  Biso   1.000  C
  C31      1.0000 0.28630  0.06630  0.15920  Biso   1.000  C
  C32      1.0000 0.21370  0.93370  0.65920  Biso   1.000  C
  H25      1.0000 0.21350  0.62420  0.68950  Biso   1.000  H
  H26      1.0000 0.28650  0.37580  0.18950  Biso   1.000  H
  H27      1.0000 0.71350  0.87580  0.81050  Biso   1.000  H
  H28      1.0000 0.78650  0.12420  0.31050  Biso   1.000  H
  H29      1.0000 0.78650  0.37580  0.31050  Biso   1.000  H
  H30      1.0000 0.71350  0.62420  0.81050  Biso   1.000  H
  H31      1.0000 0.28650  0.12420  0.18950  Biso   1.000  H
  H32      1.0000 0.21350  0.87580  0.68950  Biso   1.000  H
  C33      1.0000 0.21730  0.46740  0.56250  Biso   1.000  C
  C34      1.0000 0.28270  0.53260  0.06250  Biso   1.000  C
  C35      1.0000 0.71730  0.03260  0.93750  Biso   1.000  C
  C36      1.0000 0.78270  0.96740  0.43750  Biso   1.000  C
  C37      1.0000 0.78270  0.53260  0.43750  Biso   1.000  C
  C38      1.0000 0.71730  0.46740  0.93750  Biso   1.000  C
  C39      1.0000 0.28270  0.96740  0.06250  Biso   1.000  C
  C40      1.0000 0.21730  0.03260  0.56250  Biso   1.000  C
  H33      1.0000 0.22120  0.44510  0.51390  Biso   1.000  H
  H34      1.0000 0.27880  0.55490  0.01390  Biso   1.000  H
  H35      1.0000 0.72120  0.05490  0.98610  Biso   1.000  H
  H36      1.0000 0.77880  0.94510  0.48610  Biso   1.000  H
  H37      1.0000 0.77880  0.55490  0.48610  Biso   1.000  H
  H38      1.0000 0.72120  0.44510  0.98610  Biso   1.000  H
  H39      1.0000 0.27880  0.94510  0.01390  Biso   1.000  H
  H40      1.0000 0.22120  0.05490  0.51390  Biso   1.000  H
  C41      1.0000 0.20570  0.46720  0.68020  Biso   1.000  C
  C42      1.0000 0.29430  0.53280  0.18020  Biso   1.000  C
  C43      1.0000 0.70570  0.03280  0.81980  Biso   1.000  C
  C44      1.0000 0.79430  0.96720  0.31980  Biso   1.000  C
  C45      1.0000 0.79430  0.53280  0.31980  Biso   1.000  C
  C46      1.0000 0.70570  0.46720  0.81980  Biso   1.000  C
  C47      1.0000 0.29430  0.96720  0.18020  Biso   1.000  C
  C48      1.0000 0.20570  0.03280  0.68020  Biso   1.000  C
  H41      1.0000 0.20080  0.44530  0.72880  Biso   1.000  H
  H42      1.0000 0.29920  0.55470  0.22880  Biso   1.000  H
  H43      1.0000 0.70080  0.05470  0.77120  Biso   1.000  H
  H44      1.0000 0.79920  0.94530  0.27120  Biso   1.000  H
  H45      1.0000 0.79920  0.55470  0.27120  Biso   1.000  H
  H46      1.0000 0.70080  0.44530  0.77120  Biso   1.000  H
  H47      1.0000 0.29920  0.94530  0.22880  Biso   1.000  H
  H48      1.0000 0.20080  0.05470  0.72880  Biso   1.000  H
  C49      1.0000 0.10740  0.04090  0.88440  Biso   1.000  C
  C50      1.0000 0.39260  0.95910  0.38440  Biso   1.000  C
  C51      1.0000 0.60740  0.45910  0.61560  Biso   1.000  C
  C52      1.0000 0.89260  0.54090  0.11560  Biso   1.000  C
  C53      1.0000 0.89260  0.95910  0.11560  Biso   1.000  C
  C54      1.0000 0.60740  0.04090  0.61560  Biso   1.000  C
  C55      1.0000 0.39260  0.54090  0.38440  Biso   1.000  C
  C56      1.0000 0.10740  0.45910  0.88440  Biso   1.000  C
  H49      1.0000 0.01660  0.06690  0.89330  Biso   1.000  H
  H50      1.0000 0.48340  0.93310  0.39330  Biso   1.000  H
  H51      1.0000 0.51660  0.43310  0.60670  Biso   1.000  H
  H52      1.0000 0.98340  0.56690  0.10670  Biso   1.000  H
  H53      1.0000 0.98340  0.93310  0.10670  Biso   1.000  H
  H54      1.0000 0.51660  0.06690  0.60670  Biso   1.000  H
  H55      1.0000 0.48340  0.56690  0.39330  Biso   1.000  H
  H56      1.0000 0.01660  0.43310  0.89330  Biso   1.000  H
  C57      1.0000 0.37520  0.25000  0.75400  Biso   1.000  C
  C58      1.0000 0.12480  0.75000  0.25400  Biso   1.000  C
  C59      1.0000 0.87520  0.25000  0.74600  Biso   1.000  C
  C60      1.0000 0.62480  0.75000  0.24600  Biso   1.000  C
  H57      1.0000 0.45000  0.25000  0.72050  Biso   1.000  H
  H58      1.0000 0.05000  0.75000  0.22050  Biso   1.000  H
  H59      1.0000 0.95000  0.25000  0.77950  Biso   1.000  H
  H60      1.0000 0.55000  0.75000  0.27950  Biso   1.000  H
  N1       1.0000 0.22240  0.56480  0.58350  Biso   1.000  N
  N2       1.0000 0.27760  0.43520  0.08350  Biso   1.000  N
  N3       1.0000 0.72240  0.93520  0.91650  Biso   1.000  N
  N4       1.0000 0.77760  0.06480  0.41650  Biso   1.000  N
  N5       1.0000 0.77760  0.43520  0.41650  Biso   1.000  N
  N6       1.0000 0.72240  0.56480  0.91650  Biso   1.000  N
  N7       1.0000 0.27760  0.06480  0.08350  Biso   1.000  N
  N8       1.0000 0.22240  0.93520  0.58350  Biso   1.000  N
  H61      1.0000 0.22980  0.61770  0.55520  Biso   1.000  H
  H62      1.0000 0.27020  0.38230  0.05520  Biso   1.000  H
  H63      1.0000 0.72980  0.88230  0.94480  Biso   1.000  H
  H64      1.0000 0.77020  0.11770  0.44480  Biso   1.000  H
  H65      1.0000 0.77020  0.38230  0.44480  Biso   1.000  H
  H66      1.0000 0.72980  0.61770  0.94480  Biso   1.000  H
  H67      1.0000 0.27020  0.11770  0.05520  Biso   1.000  H
  H68      1.0000 0.22980  0.88230  0.55520  Biso   1.000  H
  N9       1.0000 0.22950  0.09710  0.88540  Biso   1.000  N
  N10      1.0000 0.27050  0.90290  0.38540  Biso   1.000  N
  N11      1.0000 0.72950  0.40290  0.61460  Biso   1.000  N
  N12      1.0000 0.77050  0.59710  0.11460  Biso   1.000  N
  N13      1.0000 0.77050  0.90290  0.11460  Biso   1.000  N
  N14      1.0000 0.72950  0.09710  0.61460  Biso   1.000  N
  N15      1.0000 0.27050  0.59710  0.38540  Biso   1.000  N
  N16      1.0000 0.22950  0.40290  0.88540  Biso   1.000  N
  N17      1.0000 0.20570  0.40410  0.62190  Biso   1.000  N
  N18      1.0000 0.29430  0.59590  0.12190  Biso   1.000  N
  N19      1.0000 0.70570  0.09590  0.87810  Biso   1.000  N
  N20      1.0000 0.79430  0.90410  0.37810  Biso   1.000  N
  N21      1.0000 0.79430  0.59590  0.37810  Biso   1.000  N
  N22      1.0000 0.70570  0.40410  0.87810  Biso   1.000  N
  N23      1.0000 0.29430  0.90410  0.12190  Biso   1.000  N
  N24      1.0000 0.20570  0.09590  0.62190  Biso   1.000  N
  N25      1.0000 0.28140  0.93580  0.86010  Biso   1.000  N
  N26      1.0000 0.21860  0.06420  0.36010  Biso   1.000  N
  N27      1.0000 0.78140  0.56420  0.63990  Biso   1.000  N
  N28      1.0000 0.71860  0.43580  0.13990  Biso   1.000  N
  N29      1.0000 0.71860  0.06420  0.13990  Biso   1.000  N
  N30      1.0000 0.78140  0.93580  0.63990  Biso   1.000  N
  N31      1.0000 0.21860  0.43580  0.36010  Biso   1.000  N
  N32      1.0000 0.28140  0.56420  0.86010  Biso   1.000  N
  H69      1.0000 0.32900  0.88090  0.85000  Biso   1.000  H
  H70      1.0000 0.17100  0.11910  0.35000  Biso   1.000  H
  H71      1.0000 0.82900  0.61910  0.65000  Biso   1.000  H
  H72      1.0000 0.67100  0.38090  0.15000  Biso   1.000  H
  H73      1.0000 0.67100  0.11910  0.15000  Biso   1.000  H
  H74      1.0000 0.82900  0.88090  0.65000  Biso   1.000  H
  H75      1.0000 0.17100  0.38090  0.35000  Biso   1.000  H
  H76      1.0000 0.32900  0.61910  0.85000  Biso   1.000  H
  O1       1.0000 0.93010  0.21970  0.51790  Biso   1.000  O
  O2       1.0000 0.56990  0.78030  0.01790  Biso   1.000  O
  O3       1.0000 0.43010  0.28030  0.98210  Biso   1.000  O
  O4       1.0000 0.06990  0.71970  0.48210  Biso   1.000  O
  O5       1.0000 0.06990  0.78030  0.48210  Biso   1.000  O
  O6       1.0000 0.43010  0.21970  0.98210  Biso   1.000  O
  O7       1.0000 0.56990  0.71970  0.01790  Biso   1.000  O
  O8       1.0000 0.93010  0.28030  0.51790  Biso   1.000  O
  O9       1.0000 0.40580  0.25000  0.82230  Biso   1.000  O
  O10      1.0000 0.09420  0.75000  0.32230  Biso   1.000  O
  O11      1.0000 0.90580  0.25000  0.67770  Biso   1.000  O
  O12      1.0000 0.59420  0.75000  0.17770  Biso   1.000  O
  O13      1.0000 0.25070  0.25000  0.72930  Biso   1.000  O
  O14      1.0000 0.24930  0.75000  0.22930  Biso   1.000  O
  O15      1.0000 0.75070  0.25000  0.77070  Biso   1.000  O
  O16      1.0000 0.74930  0.75000  0.27070  Biso   1.000  O
  O17      1.0000 0.94500  0.25000  0.91170  Biso   1.000  O
  O18      1.0000 0.55500  0.75000  0.41170  Biso   1.000  O
  O19      1.0000 0.44500  0.25000  0.58830  Biso   1.000  O
  O20      1.0000 0.05500  0.75000  0.08830  Biso   1.000  O
  O21      1.0000 0.16150  0.25000  0.51410  Biso   1.000  O
  O22      1.0000 0.33850  0.75000  0.01410  Biso   1.000  O
  O23      1.0000 0.66150  0.25000  0.98590  Biso   1.000  O
  O24      1.0000 0.83850  0.75000  0.48590  Biso   1.000  O
  O25      1.0000 0.12950  0.25000  0.98720  Biso   1.000  O
  O26      1.0000 0.37050  0.75000  0.48720  Biso   1.000  O
  O27      1.0000 0.62950  0.25000  0.51280  Biso   1.000  O
  O28      1.0000 0.87050  0.75000  0.01280  Biso   1.000  O
  Cu1      1.0000 0.20840  0.25000  0.62076  Biso   1.000  Cu
  Cu2      1.0000 0.29160  0.75000  0.12076  Biso   1.000  Cu
  Cu3      1.0000 0.70840  0.25000  0.87924  Biso   1.000  Cu
  Cu4      1.0000 0.79160  0.75000  0.37924  Biso   1.000  Cu
  Cu5      1.0000 0.25153  0.25000  0.89760  Biso   1.000  Cu
  Cu6      1.0000 0.24847  0.75000  0.39760  Biso   1.000  Cu
  Cu7      1.0000 0.75153  0.25000  0.60240  Biso   1.000  Cu
  Cu8      1.0000 0.74847  0.75000  0.10240  Biso   1.000  Cu
  N33      1.0000 0.98660  0.75000  0.76270  Biso   1.000  N
  N34      1.0000 0.51340  0.25000  0.26270  Biso   1.000  N
  N35      1.0000 0.48660  0.75000  0.73730  Biso   1.000  N
  N36      1.0000 0.01340  0.25000  0.23730  Biso   1.000  N
  O29      1.0000 0.96030  0.75000  0.82840  Biso   1.000  O
  O30      1.0000 0.53970  0.25000  0.32840  Biso   1.000  O
  O31      1.0000 0.46030  0.75000  0.67160  Biso   1.000  O
  O32      1.0000 0.03970  0.25000  0.17160  Biso   1.000  O
  O33      1.0000 0.13400  0.75000  0.76430  Biso   1.000  O
  O34      1.0000 0.36600  0.25000  0.26430  Biso   1.000  O
  O35      1.0000 0.63400  0.75000  0.73570  Biso   1.000  O
  O36      1.0000 0.86600  0.25000  0.23570  Biso   1.000  O
  O37      1.0000 0.96600  0.75000  0.70960  Biso   1.000  O
  O38      1.0000 0.53400  0.25000  0.20960  Biso   1.000  O
  O39      1.0000 0.46600  0.75000  0.79040  Biso   1.000  O
  O40      1.0000 0.03400  0.25000  0.29040  Biso   1.000  O
