data_image0
_cell_length_a       7.1767
_cell_length_b       7.3661
_cell_length_c       12.3418
_cell_angle_alpha    90
_cell_angle_beta     90
_cell_angle_gamma    90

_symmetry_space_group_name_H-M    "P 1"
_symmetry_int_tables_number       1

loop_
  _symmetry_equiv_pos_as_xyz
  'x, y, z'

loop_
  _atom_site_label
  _atom_site_occupancy
  _atom_site_fract_x
  _atom_site_fract_y
  _atom_site_fract_z
  _atom_site_thermal_displace_type
  _atom_site_B_iso_or_equiv
  _atom_site_type_symbol
  Cu1      1.0000 0.75000  0.31543  0.37513  Biso   1.000  Cu
  Cu2      1.0000 0.25000  0.18457  0.87513  Biso   1.000  Cu
  Cu3      1.0000 0.25000  0.68457  0.62487  Biso   1.000  Cu
  Cu4      1.0000 0.75000  0.81543  0.12487  Biso   1.000  Cu
  O1       1.0000 0.75000  0.03500  0.67170  Biso   1.000  O
  O2       1.0000 0.25000  0.46500  0.17170  Biso   1.000  O
  O3       1.0000 0.25000  0.96500  0.32830  Biso   1.000  O
  O4       1.0000 0.75000  0.53500  0.82830  Biso   1.000  O
  O5       1.0000 0.75000  0.58010  0.42550  Biso   1.000  O
  O6       1.0000 0.25000  0.91990  0.92550  Biso   1.000  O
  O7       1.0000 0.25000  0.41990  0.57450  Biso   1.000  O
  O8       1.0000 0.75000  0.08010  0.07450  Biso   1.000  O
  O9       1.0000 0.75000  0.07860  0.49790  Biso   1.000  O
  O10      1.0000 0.25000  0.42140  0.99790  Biso   1.000  O
  O11      1.0000 0.25000  0.92140  0.50210  Biso   1.000  O
  O12      1.0000 0.75000  0.57860  0.00210  Biso   1.000  O
  N1       1.0000 0.75000  0.14110  0.59360  Biso   1.000  N
  N2       1.0000 0.25000  0.35890  0.09360  Biso   1.000  N
  N3       1.0000 0.25000  0.85890  0.40640  Biso   1.000  N
  N4       1.0000 0.75000  0.64110  0.90640  Biso   1.000  N
  C1       1.0000 0.75000  0.68510  0.34480  Biso   1.000  C
  C2       1.0000 0.25000  0.81490  0.84480  Biso   1.000  C
  C3       1.0000 0.25000  0.31490  0.65520  Biso   1.000  C
  C4       1.0000 0.75000  0.18510  0.15520  Biso   1.000  C
  H1       1.0000 0.75000  0.80960  0.35730  Biso   1.000  H
  H2       1.0000 0.25000  0.69040  0.85730  Biso   1.000  H
  H3       1.0000 0.25000  0.19040  0.64270  Biso   1.000  H
  H4       1.0000 0.75000  0.30960  0.14270  Biso   1.000  H
  N5       1.0000 0.47670  0.31460  0.37220  Biso   1.000  N
  N6       1.0000 0.52330  0.18540  0.87220  Biso   1.000  N
  N7       1.0000 0.97670  0.68540  0.62780  Biso   1.000  N
  N8       1.0000 0.02330  0.81460  0.12780  Biso   1.000  N
  N9       1.0000 0.52330  0.68540  0.62780  Biso   1.000  N
  N10      1.0000 0.47670  0.81460  0.12780  Biso   1.000  N
  N11      1.0000 0.02330  0.31460  0.37220  Biso   1.000  N
  N12      1.0000 0.97670  0.18540  0.87220  Biso   1.000  N
  H5       1.0000 0.43690  0.38000  0.31610  Biso   1.000  H
  H6       1.0000 0.56310  0.12000  0.81610  Biso   1.000  H
  H7       1.0000 0.93690  0.62000  0.68390  Biso   1.000  H
  H8       1.0000 0.06310  0.88000  0.18390  Biso   1.000  H
  H9       1.0000 0.56310  0.62000  0.68390  Biso   1.000  H
  H10      1.0000 0.43690  0.88000  0.18390  Biso   1.000  H
  H11      1.0000 0.06310  0.38000  0.31610  Biso   1.000  H
  H12      1.0000 0.93690  0.12000  0.81610  Biso   1.000  H
  H13      1.0000 0.43320  0.36240  0.43340  Biso   1.000  H
  H14      1.0000 0.56680  0.13760  0.93340  Biso   1.000  H
  H15      1.0000 0.93320  0.63760  0.56660  Biso   1.000  H
  H16      1.0000 0.06680  0.86240  0.06660  Biso   1.000  H
  H17      1.0000 0.56680  0.63760  0.56660  Biso   1.000  H
  H18      1.0000 0.43320  0.86240  0.06660  Biso   1.000  H
  H19      1.0000 0.06680  0.36240  0.43340  Biso   1.000  H
  H20      1.0000 0.93320  0.13760  0.93340  Biso   1.000  H
  H21      1.0000 0.43590  0.20100  0.36570  Biso   1.000  H
  H22      1.0000 0.56410  0.29900  0.86570  Biso   1.000  H
  H23      1.0000 0.93590  0.79900  0.63430  Biso   1.000  H
  H24      1.0000 0.06410  0.70100  0.13430  Biso   1.000  H
  H25      1.0000 0.56410  0.79900  0.63430  Biso   1.000  H
  H26      1.0000 0.43590  0.70100  0.13430  Biso   1.000  H
  H27      1.0000 0.06410  0.20100  0.36570  Biso   1.000  H
  H28      1.0000 0.93590  0.29900  0.86570  Biso   1.000  H
  O13      1.0000 0.75000  0.63070  0.24980  Biso   1.000  O
  O14      1.0000 0.25000  0.86930  0.74980  Biso   1.000  O
  O15      1.0000 0.25000  0.36930  0.75020  Biso   1.000  O
  O16      1.0000 0.75000  0.13070  0.25020  Biso   1.000  O
  O17      1.0000 0.75000  0.30410  0.60760  Biso   1.000  O
  O18      1.0000 0.25000  0.19590  0.10760  Biso   1.000  O
  O19      1.0000 0.25000  0.69590  0.39240  Biso   1.000  O
  O20      1.0000 0.75000  0.80410  0.89240  Biso   1.000  O
