data_image0
_cell_length_a       7.4087
_cell_length_b       7.8568
_cell_length_c       12.3745
_cell_angle_alpha    90
_cell_angle_beta     90
_cell_angle_gamma    90

_symmetry_space_group_name_H-M    "P 1"
_symmetry_int_tables_number       1

loop_
  _symmetry_equiv_pos_as_xyz
  'x, y, z'

loop_
  _atom_site_label
  _atom_site_occupancy
  _atom_site_fract_x
  _atom_site_fract_y
  _atom_site_fract_z
  _atom_site_thermal_displace_type
  _atom_site_B_iso_or_equiv
  _atom_site_type_symbol
  Cu1      1.0000 0.16818  0.25000  0.35646  Biso   1.000  Cu
  Cu2      1.0000 0.33182  0.75000  0.85646  Biso   1.000  Cu
  Cu3      1.0000 0.66818  0.25000  0.14354  Biso   1.000  Cu
  Cu4      1.0000 0.83182  0.75000  0.64354  Biso   1.000  Cu
  Cl1      1.0000 0.34420  0.25000  0.60320  Biso   1.000  Cl
  Cl2      1.0000 0.15580  0.75000  0.10320  Biso   1.000  Cl
  Cl3      1.0000 0.84420  0.25000  0.89680  Biso   1.000  Cl
  Cl4      1.0000 0.65580  0.75000  0.39680  Biso   1.000  Cl
  O1       1.0000 0.35600  0.25000  0.24020  Biso   1.000  O
  O2       1.0000 0.14400  0.75000  0.74020  Biso   1.000  O
  O3       1.0000 0.85600  0.25000  0.25980  Biso   1.000  O
  O4       1.0000 0.64400  0.75000  0.75980  Biso   1.000  O
  N1       1.0000 0.17510  0.50320  0.36700  Biso   1.000  N
  N2       1.0000 0.32490  0.49680  0.86700  Biso   1.000  N
  N3       1.0000 0.67510  0.99680  0.13300  Biso   1.000  N
  N4       1.0000 0.82490  0.00320  0.63300  Biso   1.000  N
  N5       1.0000 0.82490  0.49680  0.63300  Biso   1.000  N
  N6       1.0000 0.67510  0.50320  0.13300  Biso   1.000  N
  N7       1.0000 0.32490  0.00320  0.86700  Biso   1.000  N
  N8       1.0000 0.17510  0.99680  0.36700  Biso   1.000  N
  H1       1.0000 0.08860  0.54740  0.32570  Biso   1.000  H
  H2       1.0000 0.41140  0.45260  0.82570  Biso   1.000  H
  H3       1.0000 0.58860  0.95260  0.17430  Biso   1.000  H
  H4       1.0000 0.91140  0.04740  0.67430  Biso   1.000  H
  H5       1.0000 0.91140  0.45260  0.67430  Biso   1.000  H
  H6       1.0000 0.58860  0.54740  0.17430  Biso   1.000  H
  H7       1.0000 0.41140  0.04740  0.82570  Biso   1.000  H
  H8       1.0000 0.08860  0.95260  0.32570  Biso   1.000  H
  H9       1.0000 0.28210  0.54080  0.34460  Biso   1.000  H
  H10      1.0000 0.21790  0.45920  0.84460  Biso   1.000  H
  H11      1.0000 0.78210  0.95920  0.15540  Biso   1.000  H
  H12      1.0000 0.71790  0.04080  0.65540  Biso   1.000  H
  H13      1.0000 0.71790  0.45920  0.65540  Biso   1.000  H
  H14      1.0000 0.78210  0.54080  0.15540  Biso   1.000  H
  H15      1.0000 0.21790  0.04080  0.84460  Biso   1.000  H
  H16      1.0000 0.28210  0.95920  0.34460  Biso   1.000  H
  H17      1.0000 0.15760  0.53440  0.43530  Biso   1.000  H
  H18      1.0000 0.34240  0.46560  0.93530  Biso   1.000  H
  H19      1.0000 0.65760  0.96560  0.06470  Biso   1.000  H
  H20      1.0000 0.84240  0.03440  0.56470  Biso   1.000  H
  H21      1.0000 0.84240  0.46560  0.56470  Biso   1.000  H
  H22      1.0000 0.65760  0.53440  0.06470  Biso   1.000  H
  H23      1.0000 0.34240  0.03440  0.93530  Biso   1.000  H
  H24      1.0000 0.15760  0.96560  0.43530  Biso   1.000  H
  C1       1.0000 0.31160  0.25000  0.13830  Biso   1.000  C
  C2       1.0000 0.18840  0.75000  0.63830  Biso   1.000  C
  C3       1.0000 0.81160  0.25000  0.36170  Biso   1.000  C
  C4       1.0000 0.68840  0.75000  0.86170  Biso   1.000  C
  H25      1.0000 0.19000  0.25000  0.11970  Biso   1.000  H
  H26      1.0000 0.31000  0.75000  0.61970  Biso   1.000  H
  H27      1.0000 0.69000  0.25000  0.38030  Biso   1.000  H
  H28      1.0000 0.81000  0.75000  0.88030  Biso   1.000  H
  O5       1.0000 0.42640  0.25000  0.06550  Biso   1.000  O
  O6       1.0000 0.07360  0.75000  0.56550  Biso   1.000  O
  O7       1.0000 0.92640  0.25000  0.43450  Biso   1.000  O
  O8       1.0000 0.57360  0.75000  0.93450  Biso   1.000  O
  O9       1.0000 0.49410  0.25000  0.67620  Biso   1.000  O
  O10      1.0000 0.00590  0.75000  0.17620  Biso   1.000  O
  O11      1.0000 0.99410  0.25000  0.82380  Biso   1.000  O
  O12      1.0000 0.50590  0.75000  0.32380  Biso   1.000  O
  O13      1.0000 0.23910  0.10100  0.61920  Biso   1.000  O
  O14      1.0000 0.26090  0.89900  0.11920  Biso   1.000  O
  O15      1.0000 0.73910  0.39900  0.88080  Biso   1.000  O
  O16      1.0000 0.76090  0.60100  0.38080  Biso   1.000  O
  O17      1.0000 0.76090  0.89900  0.38080  Biso   1.000  O
  O18      1.0000 0.73910  0.10100  0.88080  Biso   1.000  O
  O19      1.0000 0.26090  0.60100  0.11920  Biso   1.000  O
  O20      1.0000 0.23910  0.39900  0.61920  Biso   1.000  O
  O21      1.0000 0.41350  0.25000  0.49430  Biso   1.000  O
  O22      1.0000 0.08650  0.75000  0.99430  Biso   1.000  O
  O23      1.0000 0.91350  0.25000  0.00570  Biso   1.000  O
  O24      1.0000 0.58650  0.75000  0.50570  Biso   1.000  O
