data_image0
_cell_length_a       10.0909
_cell_length_b       12.7898
_cell_length_c       17.5601
_cell_angle_alpha    95.6425
_cell_angle_beta     99.8511
_cell_angle_gamma    109.665

_symmetry_space_group_name_H-M    "P 1"
_symmetry_int_tables_number       1

loop_
  _symmetry_equiv_pos_as_xyz
  'x, y, z'

loop_
  _atom_site_label
  _atom_site_occupancy
  _atom_site_fract_x
  _atom_site_fract_y
  _atom_site_fract_z
  _atom_site_thermal_displace_type
  _atom_site_B_iso_or_equiv
  _atom_site_type_symbol
  Cu1      1.0000 0.85425  0.46280  0.81964  Biso   1.000  Cu
  Cu2      1.0000 0.14575  0.53720  0.18036  Biso   1.000  Cu
  Cu3      1.0000 0.14283  0.56189  0.67191  Biso   1.000  Cu
  Cu4      1.0000 0.85717  0.43811  0.32809  Biso   1.000  Cu
  N1       1.0000 0.06990  0.39375  0.63251  Biso   1.000  N
  N2       1.0000 0.93010  0.60625  0.36749  Biso   1.000  N
  N3       1.0000 0.21440  0.72536  0.72413  Biso   1.000  N
  N4       1.0000 0.78560  0.27464  0.27587  Biso   1.000  N
  N5       1.0000 0.96200  0.62208  0.87744  Biso   1.000  N
  N6       1.0000 0.03800  0.37792  0.12256  Biso   1.000  N
  N7       1.0000 0.74640  0.30665  0.75504  Biso   1.000  N
  N8       1.0000 0.25360  0.69335  0.24496  Biso   1.000  N
  C1       1.0000 0.94470  0.33510  0.58117  Biso   1.000  C
  C2       1.0000 0.05530  0.66490  0.41883  Biso   1.000  C
  H1       1.0000 0.89240  0.37440  0.55610  Biso   1.000  H
  H2       1.0000 0.10760  0.62560  0.44390  Biso   1.000  H
  C3       1.0000 0.38290  0.43330  0.86615  Biso   1.000  C
  C4       1.0000 0.61710  0.56670  0.13385  Biso   1.000  C
  H3       1.0000 0.40130  0.46750  0.82280  Biso   1.000  H
  H4       1.0000 0.59870  0.53250  0.17720  Biso   1.000  H
  C5       1.0000 0.14110  0.45410  0.84170  Biso   1.000  C
  C6       1.0000 0.85890  0.54590  0.15830  Biso   1.000  C
  C7       1.0000 0.48740  0.40050  0.90949  Biso   1.000  C
  C8       1.0000 0.51260  0.59950  0.09051  Biso   1.000  C
  C9       1.0000 0.85220  0.56360  0.64600  Biso   1.000  C
  C10      1.0000 0.14780  0.43640  0.35400  Biso   1.000  C
  C11      1.0000 0.25130  0.41500  0.88771  Biso   1.000  C
  C12      1.0000 0.74870  0.58500  0.11229  Biso   1.000  C
  C13      1.0000 0.22480  0.36330  0.95208  Biso   1.000  C
  C14      1.0000 0.77520  0.63670  0.04792  Biso   1.000  C
  H5       1.0000 0.13600  0.34880  0.96560  Biso   1.000  H
  H6       1.0000 0.86400  0.65120  0.03440  Biso   1.000  H
  C15      1.0000 0.46050  0.35200  0.97474  Biso   1.000  C
  C16      1.0000 0.53950  0.64800  0.02526  Biso   1.000  C
  H7       1.0000 0.53090  0.33170  0.00440  Biso   1.000  H
  H8       1.0000 0.46910  0.66830  0.99560  Biso   1.000  H
  C17      1.0000 0.73960  0.59830  0.59801  Biso   1.000  C
  C18      1.0000 0.26040  0.40170  0.40199  Biso   1.000  C
  C19      1.0000 0.32940  0.33300  0.99667  Biso   1.000  C
  C20      1.0000 0.67060  0.66700  0.00333  Biso   1.000  C
  H9       1.0000 0.31190  0.30020  0.04070  Biso   1.000  H
  H10      1.0000 0.68810  0.69980  0.95930  Biso   1.000  H
  C21      1.0000 0.78760  0.21960  0.76497  Biso   1.000  C
  C22      1.0000 0.21240  0.78040  0.23503  Biso   1.000  C
  H11      1.0000 0.87220  0.23160  0.80130  Biso   1.000  H
  H12      1.0000 0.12780  0.76840  0.19870  Biso   1.000  H
  C23      1.0000 0.89080  0.21900  0.56424  Biso   1.000  C
  C24      1.0000 0.10920  0.78100  0.43576  Biso   1.000  C
  H13      1.0000 0.80370  0.18110  0.52860  Biso   1.000  H
  H14      1.0000 0.19630  0.81890  0.47140  Biso   1.000  H
  C25      1.0000 0.96740  0.15920  0.60073  Biso   1.000  C
  C26      1.0000 0.03260  0.84080  0.39927  Biso   1.000  C
  C27      1.0000 0.14590  0.33490  0.66525  Biso   1.000  C
  C28      1.0000 0.85410  0.66510  0.33475  Biso   1.000  C
  H15      1.0000 0.23510  0.37460  0.69860  Biso   1.000  H
  H16      1.0000 0.76490  0.62540  0.30140  Biso   1.000  H
  C29      1.0000 0.17470  0.80170  0.68907  Biso   1.000  C
  C30      1.0000 0.82530  0.19830  0.31093  Biso   1.000  C
  H17      1.0000 0.10870  0.77720  0.64120  Biso   1.000  H
  H18      1.0000 0.89130  0.22280  0.35880  Biso   1.000  H
  C31      1.0000 0.09870  0.21960  0.65204  Biso   1.000  C
  C32      1.0000 0.90130  0.78040  0.34796  Biso   1.000  C
  H19      1.0000 0.15380  0.18240  0.67710  Biso   1.000  H
  H20      1.0000 0.84620  0.81760  0.32290  Biso   1.000  H
  C33      1.0000 0.36820  0.87580  0.82790  Biso   1.000  C
  C34      1.0000 0.63180  0.12420  0.17210  Biso   1.000  C
  H21      1.0000 0.43510  0.89870  0.87540  Biso   1.000  H
  H22      1.0000 0.56490  0.10130  0.12460  Biso   1.000  H
  C35      1.0000 0.58500  0.09220  0.66917  Biso   1.000  C
  C36      1.0000 0.41500  0.90780  0.33083  Biso   1.000  C
  C37      1.0000 0.32640  0.95400  0.79050  Biso   1.000  C
  C38      1.0000 0.67360  0.04600  0.20950  Biso   1.000  C
  C39      1.0000 0.13500  0.75550  0.98401  Biso   1.000  C
  C40      1.0000 0.86500  0.24450  0.01599  Biso   1.000  C
  H23      1.0000 0.20220  0.76890  0.03070  Biso   1.000  H
  H24      1.0000 0.79780  0.23110  0.96930  Biso   1.000  H
  C41      1.0000 0.93430  0.70830  0.84979  Biso   1.000  C
  C42      1.0000 0.06570  0.29170  0.15021  Biso   1.000  C
  H25      1.0000 0.86410  0.69260  0.80410  Biso   1.000  H
  H26      1.0000 0.13590  0.30740  0.19590  Biso   1.000  H
  C43      1.0000 0.54280  0.18290  0.65836  Biso   1.000  C
  C44      1.0000 0.45720  0.81710  0.34164  Biso   1.000  C
  H27      1.0000 0.45950  0.17320  0.62170  Biso   1.000  H
  H28      1.0000 0.54050  0.82680  0.37830  Biso   1.000  H
  C45      1.0000 0.38490  0.07900  0.82118  Biso   1.000  C
  C46      1.0000 0.61510  0.92100  0.17882  Biso   1.000  C
  C47      1.0000 0.30910  0.76370  0.79359  Biso   1.000  C
  C48      1.0000 0.69090  0.23630  0.20641  Biso   1.000  C
  H29      1.0000 0.33630  0.71190  0.81990  Biso   1.000  H
  H30      1.0000 0.66370  0.28810  0.18010  Biso   1.000  H
  C49      1.0000 0.62370  0.28670  0.70169  Biso   1.000  C
  C50      1.0000 0.37630  0.71330  0.29831  Biso   1.000  C
  H31      1.0000 0.59270  0.34640  0.69400  Biso   1.000  H
  H32      1.0000 0.40730  0.65360  0.30600  Biso   1.000  H
  C51      1.0000 0.10800  0.84460  0.95457  Biso   1.000  C
  C52      1.0000 0.89200  0.15540  0.04543  Biso   1.000  C
  C53      1.0000 0.06260  0.64750  0.94441  Biso   1.000  C
  C54      1.0000 0.93740  0.35250  0.05559  Biso   1.000  C
  H33      1.0000 0.08390  0.58920  0.96480  Biso   1.000  H
  H34      1.0000 0.91610  0.41080  0.03520  Biso   1.000  H
  C55      1.0000 0.22670  0.91500  0.72019  Biso   1.000  C
  C56      1.0000 0.77330  0.08500  0.27981  Biso   1.000  C
  H35      1.0000 0.19470  0.96460  0.69390  Biso   1.000  H
  H36      1.0000 0.80530  0.03540  0.30610  Biso   1.000  H
  C57      1.0000 0.71040  0.11170  0.72367  Biso   1.000  C
  C58      1.0000 0.28960  0.88830  0.27633  Biso   1.000  C
  H37      1.0000 0.74280  0.05310  0.73260  Biso   1.000  H
  H38      1.0000 0.25720  0.94690  0.26740  Biso   1.000  H
  C59      1.0000 0.00440  0.81860  0.88560  Biso   1.000  C
  C60      1.0000 0.99560  0.18140  0.11440  Biso   1.000  C
  H39      1.0000 0.98240  0.87570  0.86370  Biso   1.000  H
  H40      1.0000 0.01760  0.12430  0.13630  Biso   1.000  H
  C61      1.0000 0.49120  0.97840  0.62202  Biso   1.000  C
  C62      1.0000 0.50880  0.02160  0.37798  Biso   1.000  C
  C63      1.0000 0.19190  0.96250  0.99730  Biso   1.000  C
  C64      1.0000 0.80810  0.03750  0.00270  Biso   1.000  C
  C65      1.0000 0.91480  0.03230  0.59340  Biso   1.000  C
  C66      1.0000 0.08520  0.96770  0.40660  Biso   1.000  C
  C67      1.0000 0.36840  0.60830  0.60512  Biso   1.000  C
  C68      1.0000 0.63160  0.39170  0.39488  Biso   1.000  C
  C69      1.0000 0.62940  0.41800  0.88655  Biso   1.000  C
  C70      1.0000 0.37060  0.58200  0.11345  Biso   1.000  C
  C71      1.0000 0.50690  0.61950  0.57966  Biso   1.000  C
  C72      1.0000 0.49310  0.38050  0.42034  Biso   1.000  C
  C73      1.0000 0.61140  0.58570  0.62214  Biso   1.000  C
  C74      1.0000 0.38860  0.41430  0.37786  Biso   1.000  C
  H41      1.0000 0.59520  0.55450  0.66690  Biso   1.000  H
  H42      1.0000 0.40480  0.44550  0.33310  Biso   1.000  H
  C75      1.0000 0.53090  0.66270  0.51227  Biso   1.000  C
  C76      1.0000 0.46910  0.33730  0.48773  Biso   1.000  C
  H43      1.0000 0.46100  0.68400  0.48320  Biso   1.000  H
  H44      1.0000 0.53900  0.31600  0.51680  Biso   1.000  H
  C77      1.0000 0.76240  0.64330  0.53070  Biso   1.000  C
  C78      1.0000 0.23760  0.35670  0.46930  Biso   1.000  C
  H45      1.0000 0.84810  0.65240  0.51450  Biso   1.000  H
  H46      1.0000 0.15190  0.34760  0.48550  Biso   1.000  H
  C79      1.0000 0.65760  0.67480  0.48724  Biso   1.000  C
  C80      1.0000 0.34240  0.32520  0.51276  Biso   1.000  C
  H47      1.0000 0.67240  0.70390  0.44160  Biso   1.000  H
  H48      1.0000 0.32760  0.29610  0.55840  Biso   1.000  H
  O1       1.0000 0.17730  0.51820  0.79492  Biso   1.000  O
  O2       1.0000 0.82270  0.48180  0.20508  Biso   1.000  O
  O3       1.0000 0.82930  0.52684  0.70611  Biso   1.000  O
  O4       1.0000 0.17070  0.47316  0.29389  Biso   1.000  O
  O5       1.0000 0.01672  0.41821  0.85759  Biso   1.000  O
  O6       1.0000 0.98328  0.58179  0.14241  Biso   1.000  O
  O7       1.0000 0.27870  0.97930  0.06012  Biso   1.000  O
  O8       1.0000 0.72130  0.02070  0.93988  Biso   1.000  O
  N9       1.0000 0.17040  0.04580  0.96495  Biso   1.000  N
  N10      1.0000 0.82960  0.95420  0.03505  Biso   1.000  N
  H49      1.0000 0.21750  0.11440  0.98760  Biso   1.000  H
  H50      1.0000 0.78250  0.88560  0.01240  Biso   1.000  H
  H51      1.0000 0.10930  0.03160  0.92120  Biso   1.000  H
  H52      1.0000 0.89070  0.96840  0.07880  Biso   1.000  H
  N11      1.0000 0.80250  0.97190  0.53730  Biso   1.000  N
  N12      1.0000 0.19750  0.02810  0.46270  Biso   1.000  N
  H53      1.0000 0.76810  0.89980  0.53330  Biso   1.000  H
  H54      1.0000 0.23190  0.10020  0.46670  Biso   1.000  H
  H55      1.0000 0.76340  0.00460  0.50460  Biso   1.000  H
  H56      1.0000 0.23660  0.99540  0.49540  Biso   1.000  H
  N13      1.0000 0.50860  0.11990  0.87421  Biso   1.000  N
  N14      1.0000 0.49140  0.88010  0.12579  Biso   1.000  N
  H57      1.0000 0.54640  0.19090  0.89230  Biso   1.000  H
  H58      1.0000 0.45360  0.80910  0.10770  Biso   1.000  H
  H59      1.0000 0.55070  0.07540  0.89040  Biso   1.000  H
  H60      1.0000 0.44930  0.92460  0.10960  Biso   1.000  H
  O9       1.0000 0.39380  0.97010  0.56774  Biso   1.000  O
  O10      1.0000 0.60620  0.02990  0.43226  Biso   1.000  O
  O11      1.0000 0.97250  0.98880  0.64050  Biso   1.000  O
  O12      1.0000 0.02750  0.01120  0.35950  Biso   1.000  O
  O13      1.0000 0.32040  0.13879  0.79610  Biso   1.000  O
  O14      1.0000 0.67960  0.86121  0.20390  Biso   1.000  O
  O15      1.0000 0.96438  0.57584  0.61892  Biso   1.000  O
  O16      1.0000 0.03562  0.42416  0.38108  Biso   1.000  O
  N15      1.0000 0.51760  0.88950  0.64262  Biso   1.000  N
  N16      1.0000 0.48240  0.11050  0.35738  Biso   1.000  N
  H61      1.0000 0.46500  0.82330  0.61730  Biso   1.000  H
  H62      1.0000 0.53500  0.17670  0.38270  Biso   1.000  H
  H63      1.0000 0.58730  0.89800  0.68130  Biso   1.000  H
  H64      1.0000 0.41270  0.10200  0.31870  Biso   1.000  H
  O17      1.0000 0.70770  0.37053  0.91849  Biso   1.000  O
  O18      1.0000 0.29230  0.62947  0.08151  Biso   1.000  O
  O19      1.0000 0.28020  0.64002  0.56429  Biso   1.000  O
  O20      1.0000 0.71980  0.35998  0.43571  Biso   1.000  O
  O21      1.0000 0.66369  0.47828  0.83445  Biso   1.000  O
  O22      1.0000 0.33631  0.52172  0.16555  Biso   1.000  O
  O23      1.0000 0.34834  0.57099  0.66843  Biso   1.000  O
  O24      1.0000 0.65166  0.42901  0.33157  Biso   1.000  O
  O25      1.0000 0.57910  0.66503  0.80320  Biso   1.000  O
  O26      1.0000 0.42090  0.33497  0.19680  Biso   1.000  O
  H65      1.0000 0.60500  0.61110  0.81470  Biso   1.000  H
  H66      1.0000 0.39500  0.38890  0.18530  Biso   1.000  H
  H67      1.0000 0.51040  0.63900  0.76270  Biso   1.000  H
  H68      1.0000 0.48960  0.36100  0.23730  Biso   1.000  H
  O27      1.0000 0.28530  0.11540  0.20693  Biso   1.000  O
  O28      1.0000 0.71470  0.88460  0.79307  Biso   1.000  O
  H69      1.0000 0.25560  0.13370  0.24710  Biso   1.000  H
  H70      1.0000 0.74440  0.86630  0.75290  Biso   1.000  H
  H71      1.0000 0.33470  0.17730  0.19480  Biso   1.000  H
  H72      1.0000 0.66530  0.82270  0.80520  Biso   1.000  H
  O29      1.0000 0.02930  0.07190  0.81552  Biso   1.000  O
  O30      1.0000 0.97070  0.92810  0.18448  Biso   1.000  O
  H73      1.0000 0.98500  0.05790  0.85260  Biso   1.000  H
  H74      1.0000 0.01500  0.94210  0.14740  Biso   1.000  H
  H75      1.0000 0.99780  0.01320  0.78080  Biso   1.000  H
  H76      1.0000 0.00220  0.98680  0.21920  Biso   1.000  H
