data_image0
_cell_length_a       33.9602
_cell_length_b       33.9602
_cell_length_c       3.9152
_cell_angle_alpha    90
_cell_angle_beta     90
_cell_angle_gamma    120

_symmetry_space_group_name_H-M    "P 1"
_symmetry_int_tables_number       1

loop_
  _symmetry_equiv_pos_as_xyz
  'x, y, z'

loop_
  _atom_site_label
  _atom_site_occupancy
  _atom_site_fract_x
  _atom_site_fract_y
  _atom_site_fract_z
  _atom_site_thermal_displace_type
  _atom_site_B_iso_or_equiv
  _atom_site_type_symbol
  Cu1      1.0000 0.50000  0.00000  0.50000  Biso   1.000  Cu
  Cu2      1.0000 0.00000  0.50000  0.50000  Biso   1.000  Cu
  Cu3      1.0000 0.50000  0.50000  0.50000  Biso   1.000  Cu
  Cu4      1.0000 0.16667  0.33333  0.83333  Biso   1.000  Cu
  Cu5      1.0000 0.66667  0.83333  0.83333  Biso   1.000  Cu
  Cu6      1.0000 0.16667  0.83333  0.83333  Biso   1.000  Cu
  Cu7      1.0000 0.83333  0.66667  0.16667  Biso   1.000  Cu
  Cu8      1.0000 0.33333  0.16667  0.16667  Biso   1.000  Cu
  Cu9      1.0000 0.83333  0.16667  0.16667  Biso   1.000  Cu
  Cl1      1.0000 0.56042  0.04681  0.83800  Biso   1.000  Cl
  Cl2      1.0000 0.95319  0.51361  0.83800  Biso   1.000  Cl
  Cl3      1.0000 0.48639  0.43958  0.83800  Biso   1.000  Cl
  Cl4      1.0000 0.22709  0.38014  0.17133  Biso   1.000  Cl
  Cl5      1.0000 0.61986  0.84694  0.17133  Biso   1.000  Cl
  Cl6      1.0000 0.15306  0.77291  0.17133  Biso   1.000  Cl
  Cl7      1.0000 0.89375  0.71348  0.50467  Biso   1.000  Cl
  Cl8      1.0000 0.28652  0.18028  0.50467  Biso   1.000  Cl
  Cl9      1.0000 0.81972  0.10625  0.50467  Biso   1.000  Cl
  Cl10     1.0000 0.43958  0.95319  0.16200  Biso   1.000  Cl
  Cl11     1.0000 0.04681  0.48639  0.16200  Biso   1.000  Cl
  Cl12     1.0000 0.51361  0.56042  0.16200  Biso   1.000  Cl
  Cl13     1.0000 0.10625  0.28652  0.49533  Biso   1.000  Cl
  Cl14     1.0000 0.71348  0.81972  0.49533  Biso   1.000  Cl
  Cl15     1.0000 0.18028  0.89375  0.49533  Biso   1.000  Cl
  Cl16     1.0000 0.77291  0.61986  0.82867  Biso   1.000  Cl
  Cl17     1.0000 0.38014  0.15306  0.82867  Biso   1.000  Cl
  Cl18     1.0000 0.84694  0.22709  0.82867  Biso   1.000  Cl
  N1       1.0000 0.48025  0.04665  0.48880  Biso   1.000  N
  N2       1.0000 0.95335  0.43360  0.48880  Biso   1.000  N
  N3       1.0000 0.56640  0.51975  0.48880  Biso   1.000  N
  N4       1.0000 0.14692  0.37998  0.82213  Biso   1.000  N
  N5       1.0000 0.62002  0.76693  0.82213  Biso   1.000  N
  N6       1.0000 0.23307  0.85308  0.82213  Biso   1.000  N
  N7       1.0000 0.81358  0.71332  0.15547  Biso   1.000  N
  N8       1.0000 0.28668  0.10027  0.15547  Biso   1.000  N
  N9       1.0000 0.89973  0.18642  0.15547  Biso   1.000  N
  N10      1.0000 0.51975  0.95335  0.51120  Biso   1.000  N
  N11      1.0000 0.04665  0.56640  0.51120  Biso   1.000  N
  N12      1.0000 0.43360  0.48025  0.51120  Biso   1.000  N
  N13      1.0000 0.18642  0.28668  0.84453  Biso   1.000  N
  N14      1.0000 0.71332  0.89973  0.84453  Biso   1.000  N
  N15      1.0000 0.10027  0.81358  0.84453  Biso   1.000  N
  N16      1.0000 0.85308  0.62002  0.17787  Biso   1.000  N
  N17      1.0000 0.37998  0.23307  0.17787  Biso   1.000  N
  N18      1.0000 0.76693  0.14692  0.17787  Biso   1.000  N
  N19      1.0000 0.38064  0.05380  0.74760  Biso   1.000  N
  N20      1.0000 0.94620  0.32684  0.74760  Biso   1.000  N
  N21      1.0000 0.67316  0.61936  0.74760  Biso   1.000  N
  N22      1.0000 0.04731  0.38713  0.08093  Biso   1.000  N
  N23      1.0000 0.61287  0.66017  0.08093  Biso   1.000  N
  N24      1.0000 0.33983  0.95269  0.08093  Biso   1.000  N
  N25      1.0000 0.71397  0.72047  0.41427  Biso   1.000  N
  N26      1.0000 0.27953  0.99351  0.41427  Biso   1.000  N
  N27      1.0000 0.00649  0.28603  0.41427  Biso   1.000  N
  N28      1.0000 0.61936  0.94620  0.25240  Biso   1.000  N
  N29      1.0000 0.05380  0.67316  0.25240  Biso   1.000  N
  N30      1.0000 0.32684  0.38064  0.25240  Biso   1.000  N
  N31      1.0000 0.28603  0.27953  0.58573  Biso   1.000  N
  N32      1.0000 0.72047  0.00649  0.58573  Biso   1.000  N
  N33      1.0000 0.99351  0.71397  0.58573  Biso   1.000  N
  N34      1.0000 0.95269  0.61287  0.91907  Biso   1.000  N
  N35      1.0000 0.38713  0.33983  0.91907  Biso   1.000  N
  N36      1.0000 0.66017  0.04731  0.91907  Biso   1.000  N
  H1       1.0000 0.37040  0.07240  0.74440  Biso   1.000  H
  H2       1.0000 0.92760  0.29800  0.74440  Biso   1.000  H
  H3       1.0000 0.70200  0.62960  0.74440  Biso   1.000  H
  H4       1.0000 0.03707  0.40573  0.07773  Biso   1.000  H
  H5       1.0000 0.59427  0.63133  0.07773  Biso   1.000  H
  H6       1.0000 0.36867  0.96293  0.07773  Biso   1.000  H
  H7       1.0000 0.70373  0.73907  0.41107  Biso   1.000  H
  H8       1.0000 0.26093  0.96467  0.41107  Biso   1.000  H
  H9       1.0000 0.03533  0.29627  0.41107  Biso   1.000  H
  H10      1.0000 0.62960  0.92760  0.25560  Biso   1.000  H
  H11      1.0000 0.07240  0.70200  0.25560  Biso   1.000  H
  H12      1.0000 0.29800  0.37040  0.25560  Biso   1.000  H
  H13      1.0000 0.29627  0.26093  0.58893  Biso   1.000  H
  H14      1.0000 0.73907  0.03533  0.58893  Biso   1.000  H
  H15      1.0000 0.96467  0.70373  0.58893  Biso   1.000  H
  H16      1.0000 0.96293  0.59427  0.92227  Biso   1.000  H
  H17      1.0000 0.40573  0.36867  0.92227  Biso   1.000  H
  H18      1.0000 0.63133  0.03707  0.92227  Biso   1.000  H
  H19      1.0000 0.36440  0.02710  0.83340  Biso   1.000  H
  H20      1.0000 0.97290  0.33730  0.83340  Biso   1.000  H
  H21      1.0000 0.66270  0.63560  0.83340  Biso   1.000  H
  H22      1.0000 0.03107  0.36043  0.16673  Biso   1.000  H
  H23      1.0000 0.63957  0.67063  0.16673  Biso   1.000  H
  H24      1.0000 0.32937  0.96893  0.16673  Biso   1.000  H
  H25      1.0000 0.69773  0.69377  0.50007  Biso   1.000  H
  H26      1.0000 0.30623  0.00397  0.50007  Biso   1.000  H
  H27      1.0000 0.99603  0.30227  0.50007  Biso   1.000  H
  H28      1.0000 0.63560  0.97290  0.16660  Biso   1.000  H
  H29      1.0000 0.02710  0.66270  0.16660  Biso   1.000  H
  H30      1.0000 0.33730  0.36440  0.16660  Biso   1.000  H
  H31      1.0000 0.30227  0.30623  0.49993  Biso   1.000  H
  H32      1.0000 0.69377  0.99603  0.49993  Biso   1.000  H
  H33      1.0000 0.00397  0.69773  0.49993  Biso   1.000  H
  H34      1.0000 0.96893  0.63957  0.83327  Biso   1.000  H
  H35      1.0000 0.36043  0.32937  0.83327  Biso   1.000  H
  H36      1.0000 0.67063  0.03107  0.83327  Biso   1.000  H
  C1       1.0000 0.43931  0.03596  0.61330  Biso   1.000  C
  C2       1.0000 0.96404  0.40335  0.61330  Biso   1.000  C
  C3       1.0000 0.59665  0.56069  0.61330  Biso   1.000  C
  C4       1.0000 0.10598  0.36929  0.94663  Biso   1.000  C
  C5       1.0000 0.63071  0.73668  0.94663  Biso   1.000  C
  C6       1.0000 0.26332  0.89402  0.94663  Biso   1.000  C
  C7       1.0000 0.77264  0.70263  0.27997  Biso   1.000  C
  C8       1.0000 0.29737  0.07002  0.27997  Biso   1.000  C
  C9       1.0000 0.92998  0.22736  0.27997  Biso   1.000  C
  C10      1.0000 0.56069  0.96404  0.38670  Biso   1.000  C
  C11      1.0000 0.03596  0.59665  0.38670  Biso   1.000  C
  C12      1.0000 0.40335  0.43931  0.38670  Biso   1.000  C
  C13      1.0000 0.22736  0.29737  0.72003  Biso   1.000  C
  C14      1.0000 0.70263  0.92998  0.72003  Biso   1.000  C
  C15      1.0000 0.07002  0.77264  0.72003  Biso   1.000  C
  C16      1.0000 0.89402  0.63071  0.05337  Biso   1.000  C
  C17      1.0000 0.36929  0.26332  0.05337  Biso   1.000  C
  C18      1.0000 0.73668  0.10598  0.05337  Biso   1.000  C
  H37      1.0000 0.42090  0.00700  0.70220  Biso   1.000  H
  H38      1.0000 0.99300  0.41390  0.70220  Biso   1.000  H
  H39      1.0000 0.58610  0.57910  0.70220  Biso   1.000  H
  H40      1.0000 0.08757  0.34033  0.03553  Biso   1.000  H
  H41      1.0000 0.65967  0.74723  0.03553  Biso   1.000  H
  H42      1.0000 0.25277  0.91243  0.03553  Biso   1.000  H
  H43      1.0000 0.75423  0.67367  0.36887  Biso   1.000  H
  H44      1.0000 0.32633  0.08057  0.36887  Biso   1.000  H
  H45      1.0000 0.91943  0.24577  0.36887  Biso   1.000  H
  H46      1.0000 0.57910  0.99300  0.29780  Biso   1.000  H
  H47      1.0000 0.00700  0.58610  0.29780  Biso   1.000  H
  H48      1.0000 0.41390  0.42090  0.29780  Biso   1.000  H
  H49      1.0000 0.24577  0.32633  0.63113  Biso   1.000  H
  H50      1.0000 0.67367  0.91943  0.63113  Biso   1.000  H
  H51      1.0000 0.08057  0.75423  0.63113  Biso   1.000  H
  H52      1.0000 0.91243  0.65967  0.96447  Biso   1.000  H
  H53      1.0000 0.34033  0.25277  0.96447  Biso   1.000  H
  H54      1.0000 0.74723  0.08757  0.96447  Biso   1.000  H
  C19      1.0000 0.42328  0.06690  0.61420  Biso   1.000  C
  C20      1.0000 0.93310  0.35638  0.61420  Biso   1.000  C
  C21      1.0000 0.64362  0.57672  0.61420  Biso   1.000  C
  C22      1.0000 0.08995  0.40023  0.94753  Biso   1.000  C
  C23      1.0000 0.59977  0.68971  0.94753  Biso   1.000  C
  C24      1.0000 0.31029  0.91005  0.94753  Biso   1.000  C
  C25      1.0000 0.75661  0.73357  0.28087  Biso   1.000  C
  C26      1.0000 0.26643  0.02305  0.28087  Biso   1.000  C
  C27      1.0000 0.97695  0.24339  0.28087  Biso   1.000  C
  C28      1.0000 0.57672  0.93310  0.38580  Biso   1.000  C
  C29      1.0000 0.06690  0.64362  0.38580  Biso   1.000  C
  C30      1.0000 0.35638  0.42328  0.38580  Biso   1.000  C
  C31      1.0000 0.24339  0.26643  0.71913  Biso   1.000  C
  C32      1.0000 0.73357  0.97695  0.71913  Biso   1.000  C
  C33      1.0000 0.02305  0.75661  0.71913  Biso   1.000  C
  C34      1.0000 0.91005  0.59977  0.05247  Biso   1.000  C
  C35      1.0000 0.40023  0.31029  0.05247  Biso   1.000  C
  C36      1.0000 0.68971  0.08995  0.05247  Biso   1.000  C
  C37      1.0000 0.45063  0.10937  0.47350  Biso   1.000  C
  C38      1.0000 0.89063  0.34126  0.47350  Biso   1.000  C
  C39      1.0000 0.65874  0.54937  0.47350  Biso   1.000  C
  C40      1.0000 0.11730  0.44270  0.80683  Biso   1.000  C
  C41      1.0000 0.55730  0.67459  0.80683  Biso   1.000  C
  C42      1.0000 0.32541  0.88270  0.80683  Biso   1.000  C
  C43      1.0000 0.78396  0.77604  0.14017  Biso   1.000  C
  C44      1.0000 0.22396  0.00793  0.14017  Biso   1.000  C
  C45      1.0000 0.99207  0.21604  0.14017  Biso   1.000  C
  C46      1.0000 0.54937  0.89063  0.52650  Biso   1.000  C
  C47      1.0000 0.10937  0.65874  0.52650  Biso   1.000  C
  C48      1.0000 0.34126  0.45063  0.52650  Biso   1.000  C
  C49      1.0000 0.21604  0.22396  0.85983  Biso   1.000  C
  C50      1.0000 0.77604  0.99207  0.85983  Biso   1.000  C
  C51      1.0000 0.00793  0.78396  0.85983  Biso   1.000  C
  C52      1.0000 0.88270  0.55730  0.19317  Biso   1.000  C
  C53      1.0000 0.44270  0.32541  0.19317  Biso   1.000  C
  C54      1.0000 0.67459  0.11730  0.19317  Biso   1.000  C
  H55      1.0000 0.44080  0.13050  0.46390  Biso   1.000  H
  H56      1.0000 0.86950  0.31030  0.46390  Biso   1.000  H
  H57      1.0000 0.68970  0.55920  0.46390  Biso   1.000  H
  H58      1.0000 0.10747  0.46383  0.79723  Biso   1.000  H
  H59      1.0000 0.53617  0.64363  0.79723  Biso   1.000  H
  H60      1.0000 0.35637  0.89253  0.79723  Biso   1.000  H
  H61      1.0000 0.77413  0.79717  0.13057  Biso   1.000  H
  H62      1.0000 0.20283  0.97697  0.13057  Biso   1.000  H
  H63      1.0000 0.02303  0.22587  0.13057  Biso   1.000  H
  H64      1.0000 0.55920  0.86950  0.53610  Biso   1.000  H
  H65      1.0000 0.13050  0.68970  0.53610  Biso   1.000  H
  H66      1.0000 0.31030  0.44080  0.53610  Biso   1.000  H
  H67      1.0000 0.22587  0.20283  0.86943  Biso   1.000  H
  H68      1.0000 0.79717  0.02303  0.86943  Biso   1.000  H
  H69      1.0000 0.97697  0.77413  0.86943  Biso   1.000  H
  H70      1.0000 0.89253  0.53617  0.20277  Biso   1.000  H
  H71      1.0000 0.46383  0.35637  0.20277  Biso   1.000  H
  H72      1.0000 0.64363  0.10747  0.20277  Biso   1.000  H
  C55      1.0000 0.49323  0.12013  0.34600  Biso   1.000  C
  C56      1.0000 0.87987  0.37310  0.34600  Biso   1.000  C
  C57      1.0000 0.62690  0.50677  0.34600  Biso   1.000  C
  C58      1.0000 0.15990  0.45346  0.67933  Biso   1.000  C
  C59      1.0000 0.54654  0.70643  0.67933  Biso   1.000  C
  C60      1.0000 0.29357  0.84010  0.67933  Biso   1.000  C
  C61      1.0000 0.82656  0.78680  0.01267  Biso   1.000  C
  C62      1.0000 0.21320  0.03977  0.01267  Biso   1.000  C
  C63      1.0000 0.96023  0.17344  0.01267  Biso   1.000  C
  C64      1.0000 0.50677  0.87987  0.65400  Biso   1.000  C
  C65      1.0000 0.12013  0.62690  0.65400  Biso   1.000  C
  C66      1.0000 0.37310  0.49323  0.65400  Biso   1.000  C
  C67      1.0000 0.17344  0.21320  0.98733  Biso   1.000  C
  C68      1.0000 0.78680  0.96023  0.98733  Biso   1.000  C
  C69      1.0000 0.03977  0.82656  0.98733  Biso   1.000  C
  C70      1.0000 0.84010  0.54654  0.32067  Biso   1.000  C
  C71      1.0000 0.45346  0.29357  0.32067  Biso   1.000  C
  C72      1.0000 0.70643  0.15990  0.32067  Biso   1.000  C
  H73      1.0000 0.51220  0.14860  0.25160  Biso   1.000  H
  H74      1.0000 0.85140  0.36360  0.25160  Biso   1.000  H
  H75      1.0000 0.63640  0.48780  0.25160  Biso   1.000  H
  H76      1.0000 0.17887  0.48193  0.58493  Biso   1.000  H
  H77      1.0000 0.51807  0.69693  0.58493  Biso   1.000  H
  H78      1.0000 0.30307  0.82113  0.58493  Biso   1.000  H
  H79      1.0000 0.84553  0.81527  0.91827  Biso   1.000  H
  H80      1.0000 0.18473  0.03027  0.91827  Biso   1.000  H
  H81      1.0000 0.96973  0.15447  0.91827  Biso   1.000  H
  H82      1.0000 0.48780  0.85140  0.74840  Biso   1.000  H
  H83      1.0000 0.14860  0.63640  0.74840  Biso   1.000  H
  H84      1.0000 0.36360  0.51220  0.74840  Biso   1.000  H
  H85      1.0000 0.15447  0.18473  0.08173  Biso   1.000  H
  H86      1.0000 0.81527  0.96973  0.08173  Biso   1.000  H
  H87      1.0000 0.03027  0.84553  0.08173  Biso   1.000  H
  H88      1.0000 0.82113  0.51807  0.41507  Biso   1.000  H
  H89      1.0000 0.48193  0.30307  0.41507  Biso   1.000  H
  H90      1.0000 0.69693  0.17887  0.41507  Biso   1.000  H
  C73      1.0000 0.50721  0.08815  0.36050  Biso   1.000  C
  C74      1.0000 0.91185  0.41906  0.36050  Biso   1.000  C
  C75      1.0000 0.58094  0.49279  0.36050  Biso   1.000  C
  C76      1.0000 0.17388  0.42148  0.69383  Biso   1.000  C
  C77      1.0000 0.57852  0.75239  0.69383  Biso   1.000  C
  C78      1.0000 0.24761  0.82612  0.69383  Biso   1.000  C
  C79      1.0000 0.84054  0.75482  0.02717  Biso   1.000  C
  C80      1.0000 0.24518  0.08573  0.02717  Biso   1.000  C
  C81      1.0000 0.91427  0.15946  0.02717  Biso   1.000  C
  C82      1.0000 0.49279  0.91185  0.63950  Biso   1.000  C
  C83      1.0000 0.08815  0.58094  0.63950  Biso   1.000  C
  C84      1.0000 0.41906  0.50721  0.63950  Biso   1.000  C
  C85      1.0000 0.15946  0.24518  0.97283  Biso   1.000  C
  C86      1.0000 0.75482  0.91427  0.97283  Biso   1.000  C
  C87      1.0000 0.08573  0.84054  0.97283  Biso   1.000  C
  C88      1.0000 0.82612  0.57852  0.30617  Biso   1.000  C
  C89      1.0000 0.42148  0.24761  0.30617  Biso   1.000  C
  C90      1.0000 0.75239  0.17388  0.30617  Biso   1.000  C
  H91      1.0000 0.53590  0.09570  0.27930  Biso   1.000  H
  H92      1.0000 0.90430  0.44020  0.27930  Biso   1.000  H
  H93      1.0000 0.55980  0.46410  0.27930  Biso   1.000  H
  H94      1.0000 0.20257  0.42903  0.61263  Biso   1.000  H
  H95      1.0000 0.57097  0.77353  0.61263  Biso   1.000  H
  H96      1.0000 0.22647  0.79743  0.61263  Biso   1.000  H
  H97      1.0000 0.86923  0.76237  0.94597  Biso   1.000  H
  H98      1.0000 0.23763  0.10687  0.94597  Biso   1.000  H
  H99      1.0000 0.89313  0.13077  0.94597  Biso   1.000  H
  H100     1.0000 0.46410  0.90430  0.72070  Biso   1.000  H
  H101     1.0000 0.09570  0.55980  0.72070  Biso   1.000  H
  H102     1.0000 0.44020  0.53590  0.72070  Biso   1.000  H
  H103     1.0000 0.13077  0.23763  0.05403  Biso   1.000  H
  H104     1.0000 0.76237  0.89313  0.05403  Biso   1.000  H
  H105     1.0000 0.10687  0.86923  0.05403  Biso   1.000  H
  H106     1.0000 0.79743  0.57097  0.38737  Biso   1.000  H
  H107     1.0000 0.42903  0.22647  0.38737  Biso   1.000  H
  H108     1.0000 0.77353  0.20257  0.38737  Biso   1.000  H
  O1       1.0000 0.61440  0.18320  0.80800  Biso   1.000  O
  O2       1.0000 0.81680  0.43120  0.80800  Biso   1.000  O
  O3       1.0000 0.56880  0.38560  0.80800  Biso   1.000  O
  O4       1.0000 0.28107  0.51653  0.14133  Biso   1.000  O
  O5       1.0000 0.48347  0.76453  0.14133  Biso   1.000  O
  O6       1.0000 0.23547  0.71893  0.14133  Biso   1.000  O
  O7       1.0000 0.94773  0.84987  0.47467  Biso   1.000  O
  O8       1.0000 0.15013  0.09787  0.47467  Biso   1.000  O
  O9       1.0000 0.90213  0.05227  0.47467  Biso   1.000  O
  O10      1.0000 0.38560  0.81680  0.19200  Biso   1.000  O
  O11      1.0000 0.18320  0.56880  0.19200  Biso   1.000  O
  O12      1.0000 0.43120  0.61440  0.19200  Biso   1.000  O
  O13      1.0000 0.05227  0.15013  0.52533  Biso   1.000  O
  O14      1.0000 0.84987  0.90213  0.52533  Biso   1.000  O
  O15      1.0000 0.09787  0.94773  0.52533  Biso   1.000  O
  O16      1.0000 0.71893  0.48347  0.85867  Biso   1.000  O
  O17      1.0000 0.51653  0.23547  0.85867  Biso   1.000  O
  O18      1.0000 0.76453  0.28107  0.85867  Biso   1.000  O
