data_image0
_cell_length_a       3.61
_cell_length_b       14.11
_cell_length_c       10.915
_cell_angle_alpha    90
_cell_angle_beta     97.06
_cell_angle_gamma    90

_symmetry_space_group_name_H-M    "P 1"
_symmetry_int_tables_number       1

loop_
  _symmetry_equiv_pos_as_xyz
  'x, y, z'

loop_
  _atom_site_label
  _atom_site_occupancy
  _atom_site_fract_x
  _atom_site_fract_y
  _atom_site_fract_z
  _atom_site_thermal_displace_type
  _atom_site_B_iso_or_equiv
  _atom_site_type_symbol
  Cu1      1.0000 0.45911  0.37002  0.72375  Biso   1.000  Cu
  Cu2      1.0000 0.54089  0.87002  0.27625  Biso   1.000  Cu
  Cu3      1.0000 0.54089  0.62998  0.27625  Biso   1.000  Cu
  Cu4      1.0000 0.45911  0.12998  0.72375  Biso   1.000  Cu
  Cu5      1.0000 0.00000  0.50000  0.50000  Biso   1.000  Cu
  Cu6      1.0000 0.00000  0.00000  0.50000  Biso   1.000  Cu
  O1       1.0000 0.50380  0.25000  0.63930  Biso   1.000  O
  O2       1.0000 0.49620  0.75000  0.36070  Biso   1.000  O
  H1       1.0000 0.33010  0.25000  0.57080  Biso   1.000  H
  H2       1.0000 0.66990  0.75000  0.42920  Biso   1.000  H
  O3       1.0000 0.01550  0.40055  0.61440  Biso   1.000  O
  O4       1.0000 0.98450  0.90055  0.38560  Biso   1.000  O
  O5       1.0000 0.98450  0.59945  0.38560  Biso   1.000  O
  O6       1.0000 0.01550  0.09945  0.61440  Biso   1.000  O
  H3       1.0000 0.91270  0.34930  0.57630  Biso   1.000  H
  H4       1.0000 0.08730  0.84930  0.42370  Biso   1.000  H
  H5       1.0000 0.08730  0.65070  0.42370  Biso   1.000  H
  H6       1.0000 0.91270  0.15070  0.57630  Biso   1.000  H
  O7       1.0000 0.36540  0.57695  0.60820  Biso   1.000  O
  O8       1.0000 0.63460  0.07695  0.39180  Biso   1.000  O
  O9       1.0000 0.63460  0.42305  0.39180  Biso   1.000  O
  O10      1.0000 0.36540  0.92305  0.60820  Biso   1.000  O
  O11      1.0000 0.49980  0.49913  0.78760  Biso   1.000  O
  O12      1.0000 0.50020  0.99913  0.21240  Biso   1.000  O
  O13      1.0000 0.50020  0.50087  0.21240  Biso   1.000  O
  O14      1.0000 0.49980  0.00087  0.78760  Biso   1.000  O
  O15      1.0000 0.18960  0.67019  0.13550  Biso   1.000  O
  O16      1.0000 0.81040  0.17019  0.86450  Biso   1.000  O
  O17      1.0000 0.81040  0.32981  0.86450  Biso   1.000  O
  O18      1.0000 0.18960  0.82981  0.13550  Biso   1.000  O
  C1       1.0000 0.47450  0.57240  0.72320  Biso   1.000  C
  C2       1.0000 0.52550  0.07240  0.27680  Biso   1.000  C
  C3       1.0000 0.52550  0.42760  0.27680  Biso   1.000  C
  C4       1.0000 0.47450  0.92760  0.72320  Biso   1.000  C
  C5       1.0000 0.58670  0.66430  0.78710  Biso   1.000  C
  C6       1.0000 0.41330  0.16430  0.21290  Biso   1.000  C
  C7       1.0000 0.41330  0.33570  0.21290  Biso   1.000  C
  C8       1.0000 0.58670  0.83570  0.78710  Biso   1.000  C
  C9       1.0000 0.49850  0.75000  0.72730  Biso   1.000  C
  C10      1.0000 0.50150  0.25000  0.27270  Biso   1.000  C
  H7       1.0000 0.37990  0.75000  0.64670  Biso   1.000  H
  H8       1.0000 0.62010  0.25000  0.35330  Biso   1.000  H
  C11      1.0000 0.10470  0.75000  0.08830  Biso   1.000  C
  C12      1.0000 0.89530  0.25000  0.91170  Biso   1.000  C
  C13      1.0000 0.88010  0.75000  0.96390  Biso   1.000  C
  C14      1.0000 0.11990  0.25000  0.03610  Biso   1.000  C
  C15      1.0000 0.77800  0.66420  0.90540  Biso   1.000  C
  C16      1.0000 0.22200  0.16420  0.09460  Biso   1.000  C
  C17      1.0000 0.22200  0.33580  0.09460  Biso   1.000  C
  C18      1.0000 0.77800  0.83580  0.90540  Biso   1.000  C
  H9       1.0000 0.83810  0.60710  0.94570  Biso   1.000  H
  H10      1.0000 0.16190  0.10710  0.05430  Biso   1.000  H
  H11      1.0000 0.16190  0.39290  0.05430  Biso   1.000  H
  H12      1.0000 0.83810  0.89290  0.94570  Biso   1.000  H
