data_image0
_cell_length_a       14.1991
_cell_length_b       13.4825
_cell_length_c       14.6649
_cell_angle_alpha    90
_cell_angle_beta     117.027
_cell_angle_gamma    90

_symmetry_space_group_name_H-M    "P 1"
_symmetry_int_tables_number       1

loop_
  _symmetry_equiv_pos_as_xyz
  'x, y, z'

loop_
  _atom_site_label
  _atom_site_occupancy
  _atom_site_fract_x
  _atom_site_fract_y
  _atom_site_fract_z
  _atom_site_thermal_displace_type
  _atom_site_B_iso_or_equiv
  _atom_site_type_symbol
  Cu1      1.0000 0.34303  0.26036  0.16801  Biso   1.000  Cu
  Cu2      1.0000 0.15697  0.76036  0.33199  Biso   1.000  Cu
  Cu3      1.0000 0.65697  0.73964  0.83199  Biso   1.000  Cu
  Cu4      1.0000 0.84303  0.23964  0.66801  Biso   1.000  Cu
  O1       1.0000 0.19767  0.30767  0.12911  Biso   1.000  O
  O2       1.0000 0.30233  0.80767  0.37089  Biso   1.000  O
  O3       1.0000 0.80233  0.69233  0.87089  Biso   1.000  O
  O4       1.0000 0.69767  0.19233  0.62911  Biso   1.000  O
  O5       1.0000 0.24014  0.37864  0.01650  Biso   1.000  O
  O6       1.0000 0.25986  0.87864  0.48350  Biso   1.000  O
  O7       1.0000 0.75986  0.62136  0.98350  Biso   1.000  O
  O8       1.0000 0.74014  0.12136  0.51650  Biso   1.000  O
  O9       1.0000 0.40063  0.38699  0.24642  Biso   1.000  O
  O10      1.0000 0.09937  0.88699  0.25358  Biso   1.000  O
  O11      1.0000 0.59937  0.61301  0.75358  Biso   1.000  O
  O12      1.0000 0.90063  0.11301  0.74642  Biso   1.000  O
  O13      1.0000 0.39639  0.27123  0.35136  Biso   1.000  O
  O14      1.0000 0.10361  0.77123  0.14864  Biso   1.000  O
  O15      1.0000 0.60361  0.72877  0.64864  Biso   1.000  O
  O16      1.0000 0.89639  0.22877  0.85136  Biso   1.000  O
  N1       1.0000 0.30065  0.12072  0.13510  Biso   1.000  N
  N2       1.0000 0.19935  0.62072  0.36490  Biso   1.000  N
  N3       1.0000 0.69935  0.87928  0.86490  Biso   1.000  N
  N4       1.0000 0.80065  0.37928  0.63510  Biso   1.000  N
  N5       1.0000 0.26310  0.97558  0.06008  Biso   1.000  N
  N6       1.0000 0.23690  0.47558  0.43992  Biso   1.000  N
  N7       1.0000 0.73690  0.02442  0.93992  Biso   1.000  N
  N8       1.0000 0.76310  0.52442  0.56008  Biso   1.000  N
  N9       1.0000 0.51359  0.77068  0.81534  Biso   1.000  N
  N10      1.0000 0.98641  0.27068  0.68466  Biso   1.000  N
  N11      1.0000 0.48641  0.22932  0.18466  Biso   1.000  N
  N12      1.0000 0.01359  0.72932  0.31534  Biso   1.000  N
  N13      1.0000 0.37016  0.79016  0.83364  Biso   1.000  N
  N14      1.0000 0.12984  0.29016  0.66636  Biso   1.000  N
  N15      1.0000 0.62984  0.20984  0.16636  Biso   1.000  N
  N16      1.0000 0.87016  0.70984  0.33364  Biso   1.000  N
  C1       1.0000 0.18087  0.37015  0.05845  Biso   1.000  C
  C2       1.0000 0.31913  0.87015  0.44155  Biso   1.000  C
  C3       1.0000 0.81913  0.62985  0.94155  Biso   1.000  C
  C4       1.0000 0.68087  0.12985  0.55845  Biso   1.000  C
  C5       1.0000 0.08590  0.43618  0.02697  Biso   1.000  C
  C6       1.0000 0.41410  0.93618  0.47303  Biso   1.000  C
  C7       1.0000 0.91410  0.56382  0.97303  Biso   1.000  C
  C8       1.0000 0.58590  0.06382  0.52697  Biso   1.000  C
  C9       1.0000 0.07299  0.51800  0.96380  Biso   1.000  C
  C10      1.0000 0.42701  0.01800  0.53620  Biso   1.000  C
  C11      1.0000 0.92701  0.48200  0.03620  Biso   1.000  C
  C12      1.0000 0.57299  0.98200  0.46380  Biso   1.000  C
  H1       1.0000 0.12230  0.53010  0.93890  Biso   1.000  H
  H2       1.0000 0.37770  0.03010  0.56110  Biso   1.000  H
  H3       1.0000 0.87770  0.46990  0.06110  Biso   1.000  H
  H4       1.0000 0.62230  0.96990  0.43890  Biso   1.000  H
  C13      1.0000 0.01221  0.41872  0.06222  Biso   1.000  C
  C14      1.0000 0.48779  0.91872  0.43778  Biso   1.000  C
  C15      1.0000 0.98779  0.58128  0.93778  Biso   1.000  C
  C16      1.0000 0.51221  0.08128  0.56222  Biso   1.000  C
  H5       1.0000 0.02000  0.36350  0.10420  Biso   1.000  H
  H6       1.0000 0.48000  0.86350  0.39580  Biso   1.000  H
  H7       1.0000 0.98000  0.63650  0.89580  Biso   1.000  H
  H8       1.0000 0.52000  0.13650  0.60420  Biso   1.000  H
  C17      1.0000 0.41602  0.35795  0.33513  Biso   1.000  C
  C18      1.0000 0.08398  0.85795  0.16487  Biso   1.000  C
  C19      1.0000 0.58398  0.64205  0.66487  Biso   1.000  C
  C20      1.0000 0.91602  0.14205  0.83513  Biso   1.000  C
  C21      1.0000 0.46000  0.43178  0.42056  Biso   1.000  C
  C22      1.0000 0.04000  0.93178  0.07944  Biso   1.000  C
  C23      1.0000 0.54000  0.56822  0.57944  Biso   1.000  C
  C24      1.0000 0.96000  0.06822  0.92056  Biso   1.000  C
  C25      1.0000 0.51209  0.39908  0.52144  Biso   1.000  C
  C26      1.0000 0.98791  0.89908  0.97856  Biso   1.000  C
  C27      1.0000 0.48791  0.60092  0.47856  Biso   1.000  C
  C28      1.0000 0.01209  0.10092  0.02144  Biso   1.000  C
  H9       1.0000 0.52020  0.33080  0.53570  Biso   1.000  H
  H10      1.0000 0.97980  0.83080  0.96430  Biso   1.000  H
  H11      1.0000 0.47980  0.66920  0.46430  Biso   1.000  H
  H12      1.0000 0.02020  0.16920  0.03570  Biso   1.000  H
  C29      1.0000 0.44804  0.53316  0.39923  Biso   1.000  C
  C30      1.0000 0.05196  0.03316  0.10077  Biso   1.000  C
  C31      1.0000 0.55196  0.46684  0.60077  Biso   1.000  C
  C32      1.0000 0.94804  0.96684  0.89923  Biso   1.000  C
  H13      1.0000 0.41300  0.55530  0.33110  Biso   1.000  H
  H14      1.0000 0.08700  0.05530  0.16890  Biso   1.000  H
  H15      1.0000 0.58700  0.44470  0.66890  Biso   1.000  H
  H16      1.0000 0.91300  0.94470  0.83110  Biso   1.000  H
  C33      1.0000 0.26245  0.07485  0.04601  Biso   1.000  C
  C34      1.0000 0.23755  0.57485  0.45399  Biso   1.000  C
  C35      1.0000 0.73755  0.92515  0.95399  Biso   1.000  C
  C36      1.0000 0.76245  0.42515  0.54601  Biso   1.000  C
  C37      1.0000 0.30474  0.95828  0.16381  Biso   1.000  C
  C38      1.0000 0.19526  0.45828  0.33619  Biso   1.000  C
  C39      1.0000 0.69526  0.04172  0.83619  Biso   1.000  C
  C40      1.0000 0.80474  0.54172  0.66381  Biso   1.000  C
  H17      1.0000 0.31520  0.89630  0.19630  Biso   1.000  H
  H18      1.0000 0.18480  0.39630  0.30370  Biso   1.000  H
  H19      1.0000 0.68480  0.10370  0.80370  Biso   1.000  H
  H20      1.0000 0.81520  0.60370  0.69630  Biso   1.000  H
  C41      1.0000 0.32759  0.04804  0.20950  Biso   1.000  C
  C42      1.0000 0.17241  0.54804  0.29050  Biso   1.000  C
  C43      1.0000 0.67241  0.95196  0.79050  Biso   1.000  C
  C44      1.0000 0.82759  0.45196  0.70950  Biso   1.000  C
  H21      1.0000 0.35700  0.05940  0.28040  Biso   1.000  H
  H22      1.0000 0.14300  0.55940  0.21960  Biso   1.000  H
  H23      1.0000 0.64300  0.94060  0.71960  Biso   1.000  H
  H24      1.0000 0.85700  0.44060  0.78040  Biso   1.000  H
  C45      1.0000 0.23357  0.89944  0.98056  Biso   1.000  C
  C46      1.0000 0.26643  0.39944  0.51944  Biso   1.000  C
  C47      1.0000 0.76643  0.10056  0.01944  Biso   1.000  C
  C48      1.0000 0.73357  0.60056  0.48056  Biso   1.000  C
  H25      1.0000 0.16910  0.92000  0.92030  Biso   1.000  H
  H26      1.0000 0.33090  0.42000  0.57970  Biso   1.000  H
  H27      1.0000 0.83090  0.08000  0.07970  Biso   1.000  H
  H28      1.0000 0.66910  0.58000  0.42030  Biso   1.000  H
  H29      1.0000 0.21860  0.83710  0.00580  Biso   1.000  H
  H30      1.0000 0.28140  0.33710  0.49420  Biso   1.000  H
  H31      1.0000 0.78140  0.16290  0.99420  Biso   1.000  H
  H32      1.0000 0.71860  0.66290  0.50580  Biso   1.000  H
  C49      1.0000 0.32133  0.88296  0.95040  Biso   1.000  C
  C50      1.0000 0.17867  0.38296  0.54960  Biso   1.000  C
  C51      1.0000 0.67867  0.11704  0.04960  Biso   1.000  C
  C52      1.0000 0.82133  0.61704  0.45040  Biso   1.000  C
  H33      1.0000 0.38820  0.87230  0.01220  Biso   1.000  H
  H34      1.0000 0.11180  0.37230  0.48780  Biso   1.000  H
  H35      1.0000 0.61180  0.12770  0.98780  Biso   1.000  H
  H36      1.0000 0.88820  0.62770  0.51220  Biso   1.000  H
  H37      1.0000 0.32910  0.94230  0.91580  Biso   1.000  H
  H38      1.0000 0.17090  0.44230  0.58420  Biso   1.000  H
  H39      1.0000 0.67090  0.05770  0.08420  Biso   1.000  H
  H40      1.0000 0.82910  0.55770  0.41580  Biso   1.000  H
  C53      1.0000 0.22490  0.12411  0.94491  Biso   1.000  C
  C54      1.0000 0.27510  0.62411  0.55509  Biso   1.000  C
  C55      1.0000 0.77510  0.87589  0.05509  Biso   1.000  C
  C56      1.0000 0.72490  0.37589  0.44491  Biso   1.000  C
  H41      1.0000 0.27650  0.11440  0.91940  Biso   1.000  H
  H42      1.0000 0.22350  0.61440  0.58060  Biso   1.000  H
  H43      1.0000 0.72350  0.88560  0.08060  Biso   1.000  H
  H44      1.0000 0.77650  0.38560  0.41940  Biso   1.000  H
  H45      1.0000 0.21600  0.19450  0.95220  Biso   1.000  H
  H46      1.0000 0.28400  0.69450  0.54780  Biso   1.000  H
  H47      1.0000 0.78400  0.80550  0.04780  Biso   1.000  H
  H48      1.0000 0.71600  0.30550  0.45220  Biso   1.000  H
  H49      1.0000 0.15780  0.09560  0.89710  Biso   1.000  H
  H50      1.0000 0.34220  0.59560  0.60290  Biso   1.000  H
  H51      1.0000 0.84220  0.90440  0.10290  Biso   1.000  H
  H52      1.0000 0.65780  0.40440  0.39710  Biso   1.000  H
  C57      1.0000 0.47050  0.75527  0.87728  Biso   1.000  C
  C58      1.0000 0.02950  0.25527  0.62272  Biso   1.000  C
  C59      1.0000 0.52950  0.24473  0.12272  Biso   1.000  C
  C60      1.0000 0.97050  0.74473  0.37728  Biso   1.000  C
  C61      1.0000 0.34993  0.83011  0.74035  Biso   1.000  C
  C62      1.0000 0.15007  0.33011  0.75965  Biso   1.000  C
  C63      1.0000 0.65007  0.16989  0.25965  Biso   1.000  C
  C64      1.0000 0.84993  0.66989  0.24035  Biso   1.000  C
  H53      1.0000 0.28680  0.86040  0.69330  Biso   1.000  H
  H54      1.0000 0.21320  0.36040  0.80670  Biso   1.000  H
  H55      1.0000 0.71320  0.13960  0.30670  Biso   1.000  H
  H56      1.0000 0.78680  0.63960  0.19330  Biso   1.000  H
  C65      1.0000 0.43835  0.81729  0.72965  Biso   1.000  C
  C66      1.0000 0.06165  0.31729  0.77035  Biso   1.000  C
  C67      1.0000 0.56165  0.18271  0.27035  Biso   1.000  C
  C68      1.0000 0.93835  0.68271  0.22965  Biso   1.000  C
  H57      1.0000 0.44730  0.83700  0.67260  Biso   1.000  H
  H58      1.0000 0.05270  0.33700  0.82740  Biso   1.000  H
  H59      1.0000 0.55270  0.16300  0.32740  Biso   1.000  H
  H60      1.0000 0.94730  0.66300  0.17260  Biso   1.000  H
  C69      1.0000 0.29810  0.79389  0.87990  Biso   1.000  C
  C70      1.0000 0.20190  0.29389  0.62010  Biso   1.000  C
  C71      1.0000 0.70190  0.20611  0.12010  Biso   1.000  C
  C72      1.0000 0.79810  0.70611  0.37990  Biso   1.000  C
  H61      1.0000 0.30530  0.73290  0.91890  Biso   1.000  H
  H62      1.0000 0.19470  0.23290  0.58110  Biso   1.000  H
  H63      1.0000 0.69470  0.26710  0.08110  Biso   1.000  H
  H64      1.0000 0.80530  0.76710  0.41890  Biso   1.000  H
  H65      1.0000 0.22500  0.79780  0.82570  Biso   1.000  H
  H66      1.0000 0.27500  0.29780  0.67430  Biso   1.000  H
  H67      1.0000 0.77500  0.20220  0.17430  Biso   1.000  H
  H68      1.0000 0.72500  0.70220  0.32570  Biso   1.000  H
  C73      1.0000 0.52340  0.70660  0.97919  Biso   1.000  C
  C74      1.0000 0.97660  0.20660  0.52081  Biso   1.000  C
  C75      1.0000 0.47660  0.29340  0.02081  Biso   1.000  C
  C76      1.0000 0.02340  0.79340  0.47919  Biso   1.000  C
  H69      1.0000 0.59280  0.68350  0.99130  Biso   1.000  H
  H70      1.0000 0.90720  0.18350  0.50870  Biso   1.000  H
  H71      1.0000 0.40720  0.31650  0.00870  Biso   1.000  H
  H72      1.0000 0.09280  0.81650  0.49130  Biso   1.000  H
  H73      1.0000 0.53070  0.75390  0.03190  Biso   1.000  H
  H74      1.0000 0.96930  0.25390  0.46810  Biso   1.000  H
  H75      1.0000 0.46930  0.24610  0.96810  Biso   1.000  H
  H76      1.0000 0.03070  0.74610  0.53190  Biso   1.000  H
  H77      1.0000 0.48120  0.65070  0.98090  Biso   1.000  H
  H78      1.0000 0.01880  0.15070  0.51910  Biso   1.000  H
  H79      1.0000 0.51880  0.34930  0.01910  Biso   1.000  H
  H80      1.0000 0.98120  0.84930  0.48090  Biso   1.000  H
  O17      1.0000 0.16071  0.05207  0.47728  Biso   1.000  O
  O18      1.0000 0.33929  0.55207  0.02272  Biso   1.000  O
  O19      1.0000 0.83929  0.94793  0.52272  Biso   1.000  O
  O20      1.0000 0.66071  0.44793  0.97728  Biso   1.000  O
  H81      1.0000 0.09900  0.04300  0.42800  Biso   1.000  H
  H82      1.0000 0.40100  0.54300  0.07200  Biso   1.000  H
  H83      1.0000 0.90100  0.95700  0.57200  Biso   1.000  H
  H84      1.0000 0.59900  0.45700  0.92800  Biso   1.000  H
  H85      1.0000 0.18900  0.00100  0.47700  Biso   1.000  H
  H86      1.0000 0.31100  0.50100  0.02300  Biso   1.000  H
  H87      1.0000 0.81100  0.99900  0.52300  Biso   1.000  H
  H88      1.0000 0.68900  0.49900  0.97700  Biso   1.000  H
  O21      1.0000 0.19551  0.04376  0.68194  Biso   1.000  O
  O22      1.0000 0.30449  0.54376  0.81806  Biso   1.000  O
  O23      1.0000 0.80449  0.95624  0.31806  Biso   1.000  O
  O24      1.0000 0.69551  0.45624  0.18194  Biso   1.000  O
  H89      1.0000 0.18800  0.04600  0.62220  Biso   1.000  H
  H90      1.0000 0.31200  0.54600  0.87780  Biso   1.000  H
  H91      1.0000 0.81200  0.95400  0.37780  Biso   1.000  H
  H92      1.0000 0.68800  0.45400  0.12220  Biso   1.000  H
  H93      1.0000 0.21880  0.08600  0.71600  Biso   1.000  H
  H94      1.0000 0.28120  0.58600  0.78400  Biso   1.000  H
  H95      1.0000 0.78120  0.91400  0.28400  Biso   1.000  H
  H96      1.0000 0.71880  0.41400  0.21600  Biso   1.000  H
  O25      1.0000 0.52767  0.52574  0.20687  Biso   1.000  O
  O26      1.0000 0.97233  0.02574  0.29313  Biso   1.000  O
  O27      1.0000 0.47233  0.47426  0.79313  Biso   1.000  O
  O28      1.0000 0.02767  0.97426  0.70687  Biso   1.000  O
  H97      1.0000 0.49900  0.48300  0.22500  Biso   1.000  H
  H98      1.0000 0.00100  0.98300  0.27500  Biso   1.000  H
  H99      1.0000 0.50100  0.51700  0.77500  Biso   1.000  H
  H100     1.0000 0.99900  0.01700  0.72500  Biso   1.000  H
  H101     1.0000 0.57400  0.50100  0.19900  Biso   1.000  H
  H102     1.0000 0.92600  0.00100  0.30100  Biso   1.000  H
  H103     1.0000 0.42600  0.49900  0.80100  Biso   1.000  H
  H104     1.0000 0.07400  0.99900  0.69900  Biso   1.000  H
  O29      1.0000 0.21250  0.19825  0.35960  Biso   1.000  O
  O30      1.0000 0.28750  0.69825  0.14040  Biso   1.000  O
  O31      1.0000 0.78750  0.80175  0.64040  Biso   1.000  O
  O32      1.0000 0.71250  0.30175  0.85960  Biso   1.000  O
  H105     1.0000 0.22300  0.16000  0.40700  Biso   1.000  H
  H106     1.0000 0.27700  0.66000  0.09300  Biso   1.000  H
  H107     1.0000 0.77700  0.84000  0.59300  Biso   1.000  H
  H108     1.0000 0.72300  0.34000  0.90700  Biso   1.000  H
  H109     1.0000 0.27000  0.21400  0.35700  Biso   1.000  H
  H110     1.0000 0.23000  0.71400  0.14300  Biso   1.000  H
  H111     1.0000 0.73000  0.78600  0.64300  Biso   1.000  H
  H112     1.0000 0.77000  0.28600  0.85700  Biso   1.000  H
  O33      1.0000 0.99622  0.23178  0.25910  Biso   1.000  O
  O34      1.0000 0.50378  0.73178  0.24090  Biso   1.000  O
  O35      1.0000 0.00378  0.76822  0.74090  Biso   1.000  O
  O36      1.0000 0.49622  0.26822  0.75910  Biso   1.000  O
  H113     1.0000 0.06080  0.23100  0.28200  Biso   1.000  H
  H114     1.0000 0.43920  0.73100  0.21800  Biso   1.000  H
  H115     1.0000 0.93920  0.76900  0.71800  Biso   1.000  H
  H116     1.0000 0.56080  0.26900  0.78200  Biso   1.000  H
  H117     1.0000 0.97500  0.17580  0.26200  Biso   1.000  H
  H118     1.0000 0.52500  0.67580  0.23800  Biso   1.000  H
  H119     1.0000 0.02500  0.82420  0.73800  Biso   1.000  H
  H120     1.0000 0.47500  0.32420  0.76200  Biso   1.000  H
  O37      1.0000 0.41284  0.09324  0.79365  Biso   1.000  O
  O38      1.0000 0.08716  0.59324  0.70635  Biso   1.000  O
  O39      1.0000 0.58716  0.90676  0.20635  Biso   1.000  O
  O40      1.0000 0.91284  0.40676  0.29365  Biso   1.000  O
  H121     1.0000 0.44660  0.14490  0.79190  Biso   1.000  H
  H122     1.0000 0.05340  0.64490  0.70810  Biso   1.000  H
  H123     1.0000 0.55340  0.85510  0.20810  Biso   1.000  H
  H124     1.0000 0.94660  0.35510  0.29190  Biso   1.000  H
  H125     1.0000 0.38160  0.08230  0.73320  Biso   1.000  H
  H126     1.0000 0.11840  0.58230  0.76680  Biso   1.000  H
  H127     1.0000 0.61840  0.91770  0.26680  Biso   1.000  H
  H128     1.0000 0.88160  0.41770  0.23320  Biso   1.000  H
