data_image0
_cell_length_a       12.0864
_cell_length_b       21.578
_cell_length_c       12.9662
_cell_angle_alpha    90
_cell_angle_beta     115.309
_cell_angle_gamma    90

_symmetry_space_group_name_H-M    "P 1"
_symmetry_int_tables_number       1

loop_
  _symmetry_equiv_pos_as_xyz
  'x, y, z'

loop_
  _atom_site_label
  _atom_site_occupancy
  _atom_site_fract_x
  _atom_site_fract_y
  _atom_site_fract_z
  _atom_site_thermal_displace_type
  _atom_site_B_iso_or_equiv
  _atom_site_type_symbol
  Cu1      1.0000 0.98275  0.90619  0.89015  Biso   1.000  Cu
  Cu2      1.0000 0.51725  0.40619  0.60985  Biso   1.000  Cu
  Cu3      1.0000 0.01725  0.09381  0.10985  Biso   1.000  Cu
  Cu4      1.0000 0.48275  0.59381  0.39015  Biso   1.000  Cu
  Cu5      1.0000 0.72830  0.71100  0.30502  Biso   1.000  Cu
  Cu6      1.0000 0.77170  0.21100  0.19498  Biso   1.000  Cu
  Cu7      1.0000 0.27170  0.28900  0.69498  Biso   1.000  Cu
  Cu8      1.0000 0.22830  0.78900  0.80502  Biso   1.000  Cu
  Cu9      1.0000 0.84672  0.00473  0.42030  Biso   1.000  Cu
  Cu10     1.0000 0.65328  0.50473  0.07970  Biso   1.000  Cu
  Cu11     1.0000 0.15328  0.99527  0.57970  Biso   1.000  Cu
  Cu12     1.0000 0.34672  0.49527  0.92030  Biso   1.000  Cu
  C1       1.0000 0.47460  0.95060  0.26380  Biso   1.000  C
  C2       1.0000 0.02540  0.45060  0.23620  Biso   1.000  C
  C3       1.0000 0.52540  0.04940  0.73620  Biso   1.000  C
  C4       1.0000 0.97460  0.54940  0.76380  Biso   1.000  C
  C5       1.0000 0.47780  0.05400  0.26420  Biso   1.000  C
  C6       1.0000 0.02220  0.55400  0.23580  Biso   1.000  C
  C7       1.0000 0.52220  0.94600  0.73580  Biso   1.000  C
  C8       1.0000 0.97780  0.44600  0.76420  Biso   1.000  C
  C9       1.0000 0.60290  0.00210  0.41990  Biso   1.000  C
  C10      1.0000 0.89710  0.50210  0.08010  Biso   1.000  C
  C11      1.0000 0.39710  0.99790  0.58010  Biso   1.000  C
  C12      1.0000 0.10290  0.49790  0.91990  Biso   1.000  C
  C13      1.0000 0.35670  0.89640  0.08540  Biso   1.000  C
  C14      1.0000 0.14330  0.39640  0.41460  Biso   1.000  C
  C15      1.0000 0.64330  0.10360  0.91460  Biso   1.000  C
  C16      1.0000 0.85670  0.60360  0.58540  Biso   1.000  C
  H1       1.0000 0.36700  0.85660  0.05560  Biso   1.000  H
  H2       1.0000 0.13300  0.35660  0.44440  Biso   1.000  H
  H3       1.0000 0.63300  0.14340  0.94440  Biso   1.000  H
  H4       1.0000 0.86700  0.64340  0.55560  Biso   1.000  H
  H5       1.0000 0.38950  0.92780  0.05270  Biso   1.000  H
  H6       1.0000 0.11050  0.42780  0.44730  Biso   1.000  H
  H7       1.0000 0.61050  0.07220  0.94730  Biso   1.000  H
  H8       1.0000 0.88950  0.57220  0.55270  Biso   1.000  H
  C17      1.0000 0.22200  0.90810  0.04520  Biso   1.000  C
  C18      1.0000 0.27800  0.40810  0.45480  Biso   1.000  C
  C19      1.0000 0.77800  0.09190  0.95480  Biso   1.000  C
  C20      1.0000 0.72200  0.59190  0.54520  Biso   1.000  C
  C21      1.0000 0.45810  0.83770  0.26910  Biso   1.000  C
  C22      1.0000 0.04190  0.33770  0.23090  Biso   1.000  C
  C23      1.0000 0.54190  0.16230  0.73090  Biso   1.000  C
  C24      1.0000 0.95810  0.66230  0.76910  Biso   1.000  C
  H9       1.0000 0.38680  0.81100  0.23680  Biso   1.000  H
  H10      1.0000 0.11320  0.31100  0.26320  Biso   1.000  H
  H11      1.0000 0.61320  0.18900  0.76320  Biso   1.000  H
  H12      1.0000 0.88680  0.68900  0.73680  Biso   1.000  H
  H13      1.0000 0.47560  0.84490  0.34840  Biso   1.000  H
  H14      1.0000 0.02440  0.34490  0.15160  Biso   1.000  H
  H15      1.0000 0.52440  0.15510  0.65160  Biso   1.000  H
  H16      1.0000 0.97560  0.65510  0.84840  Biso   1.000  H
  C25      1.0000 0.56660  0.80450  0.26350  Biso   1.000  C
  C26      1.0000 0.93340  0.30450  0.23650  Biso   1.000  C
  C27      1.0000 0.43340  0.19550  0.73650  Biso   1.000  C
  C28      1.0000 0.06660  0.69550  0.76350  Biso   1.000  C
  C29      1.0000 0.34930  0.10750  0.09130  Biso   1.000  C
  C30      1.0000 0.15070  0.60750  0.40870  Biso   1.000  C
  C31      1.0000 0.65070  0.89250  0.90870  Biso   1.000  C
  C32      1.0000 0.84930  0.39250  0.59130  Biso   1.000  C
  H17      1.0000 0.37640  0.07760  0.05100  Biso   1.000  H
  H18      1.0000 0.12360  0.57760  0.44900  Biso   1.000  H
  H19      1.0000 0.62360  0.92240  0.94900  Biso   1.000  H
  H20      1.0000 0.87640  0.42240  0.55100  Biso   1.000  H
  H21      1.0000 0.34860  0.14790  0.05840  Biso   1.000  H
  H22      1.0000 0.15140  0.64790  0.44160  Biso   1.000  H
  H23      1.0000 0.65140  0.85210  0.94160  Biso   1.000  H
  H24      1.0000 0.84860  0.35210  0.55840  Biso   1.000  H
  C33      1.0000 0.22070  0.09140  0.07200  Biso   1.000  C
  C34      1.0000 0.27930  0.59140  0.42800  Biso   1.000  C
  C35      1.0000 0.77930  0.90860  0.92800  Biso   1.000  C
  C36      1.0000 0.72070  0.40860  0.57200  Biso   1.000  C
  C37      1.0000 0.48290  0.16690  0.26510  Biso   1.000  C
  C38      1.0000 0.01710  0.66690  0.23490  Biso   1.000  C
  C39      1.0000 0.51710  0.83310  0.73490  Biso   1.000  C
  C40      1.0000 0.98290  0.33310  0.76510  Biso   1.000  C
  H25      1.0000 0.50120  0.16320  0.34540  Biso   1.000  H
  H26      1.0000 0.99880  0.66320  0.15460  Biso   1.000  H
  H27      1.0000 0.49880  0.83680  0.65460  Biso   1.000  H
  H28      1.0000 0.00120  0.33680  0.84540  Biso   1.000  H
  H29      1.0000 0.41870  0.19760  0.23210  Biso   1.000  H
  H30      1.0000 0.08130  0.69760  0.26790  Biso   1.000  H
  H31      1.0000 0.58130  0.80240  0.76790  Biso   1.000  H
  H32      1.0000 0.91870  0.30240  0.73210  Biso   1.000  H
  C41      1.0000 0.59620  0.18990  0.25500  Biso   1.000  C
  C42      1.0000 0.90380  0.68990  0.24500  Biso   1.000  C
  C43      1.0000 0.40380  0.81010  0.74500  Biso   1.000  C
  C44      1.0000 0.09620  0.31010  0.75500  Biso   1.000  C
  C45      1.0000 0.73530  0.06260  0.58540  Biso   1.000  C
  C46      1.0000 0.76470  0.56260  0.91460  Biso   1.000  C
  C47      1.0000 0.26470  0.93740  0.41460  Biso   1.000  C
  C48      1.0000 0.23530  0.43740  0.08540  Biso   1.000  C
  H33      1.0000 0.78430  0.05440  0.66580  Biso   1.000  H
  H34      1.0000 0.71570  0.55440  0.83420  Biso   1.000  H
  H35      1.0000 0.21570  0.94560  0.33420  Biso   1.000  H
  H36      1.0000 0.28430  0.44560  0.16580  Biso   1.000  H
  H37      1.0000 0.66130  0.08340  0.57860  Biso   1.000  H
  H38      1.0000 0.83870  0.58340  0.92140  Biso   1.000  H
  H39      1.0000 0.33870  0.91660  0.42140  Biso   1.000  H
  H40      1.0000 0.16130  0.41660  0.07860  Biso   1.000  H
  C49      1.0000 0.80640  0.10700  0.54470  Biso   1.000  C
  C50      1.0000 0.69360  0.60700  0.95530  Biso   1.000  C
  C51      1.0000 0.19360  0.89300  0.45530  Biso   1.000  C
  C52      1.0000 0.30640  0.39300  0.04470  Biso   1.000  C
  C53      1.0000 0.74940  0.94810  0.59130  Biso   1.000  C
  C54      1.0000 0.75060  0.44810  0.90870  Biso   1.000  C
  C55      1.0000 0.25060  0.05190  0.40870  Biso   1.000  C
  C56      1.0000 0.24940  0.55190  0.09130  Biso   1.000  C
  H41      1.0000 0.70240  0.91280  0.54830  Biso   1.000  H
  H42      1.0000 0.79760  0.41280  0.95170  Biso   1.000  H
  H43      1.0000 0.29760  0.08720  0.45170  Biso   1.000  H
  H44      1.0000 0.20240  0.58720  0.04830  Biso   1.000  H
  H45      1.0000 0.73900  0.95060  0.66130  Biso   1.000  H
  H46      1.0000 0.76100  0.45060  0.83870  Biso   1.000  H
  H47      1.0000 0.26100  0.04940  0.33870  Biso   1.000  H
  H48      1.0000 0.23900  0.54940  0.16130  Biso   1.000  H
  C57      1.0000 0.88450  0.93670  0.62150  Biso   1.000  C
  C58      1.0000 0.61550  0.43670  0.87850  Biso   1.000  C
  C59      1.0000 0.11550  0.06330  0.37850  Biso   1.000  C
  C60      1.0000 0.38450  0.56330  0.12150  Biso   1.000  C
  C61      1.0000 0.73110  0.97710  0.18380  Biso   1.000  C
  C62      1.0000 0.76890  0.47710  0.31620  Biso   1.000  C
  C63      1.0000 0.26890  0.02290  0.81620  Biso   1.000  C
  C64      1.0000 0.23110  0.52290  0.68380  Biso   1.000  C
  H49      1.0000 0.72540  0.98660  0.10860  Biso   1.000  H
  H50      1.0000 0.77460  0.48660  0.39140  Biso   1.000  H
  H51      1.0000 0.27460  0.01340  0.89140  Biso   1.000  H
  H52      1.0000 0.22540  0.51340  0.60860  Biso   1.000  H
  H53      1.0000 0.65120  0.96380  0.17590  Biso   1.000  H
  H54      1.0000 0.84880  0.46380  0.32410  Biso   1.000  H
  H55      1.0000 0.34880  0.03620  0.82410  Biso   1.000  H
  H56      1.0000 0.15120  0.53620  0.67590  Biso   1.000  H
  C65      1.0000 0.82430  0.92650  0.23870  Biso   1.000  C
  C66      1.0000 0.67570  0.42650  0.26130  Biso   1.000  C
  C67      1.0000 0.17570  0.07350  0.76130  Biso   1.000  C
  C68      1.0000 0.32430  0.57350  0.73870  Biso   1.000  C
  H57      1.0000 0.79680  0.88800  0.19720  Biso   1.000  H
  H58      1.0000 0.70320  0.38800  0.30280  Biso   1.000  H
  H59      1.0000 0.20320  0.11200  0.80280  Biso   1.000  H
  H60      1.0000 0.29680  0.61200  0.69720  Biso   1.000  H
  H61      1.0000 0.90220  0.93780  0.23920  Biso   1.000  H
  H62      1.0000 0.59780  0.43780  0.26080  Biso   1.000  H
  H63      1.0000 0.09780  0.06220  0.76080  Biso   1.000  H
  H64      1.0000 0.40220  0.56220  0.73920  Biso   1.000  H
  N1       1.0000 0.43200  0.00240  0.20520  Biso   1.000  N
  N2       1.0000 0.06800  0.50240  0.29480  Biso   1.000  N
  N3       1.0000 0.56800  0.99760  0.79480  Biso   1.000  N
  N4       1.0000 0.93200  0.49760  0.70520  Biso   1.000  N
  N5       1.0000 0.56390  0.05720  0.37310  Biso   1.000  N
  N6       1.0000 0.93610  0.55720  0.12690  Biso   1.000  N
  N7       1.0000 0.43610  0.94280  0.62690  Biso   1.000  N
  N8       1.0000 0.06390  0.44280  0.87310  Biso   1.000  N
  N9       1.0000 0.56180  0.94650  0.37280  Biso   1.000  N
  N10      1.0000 0.93820  0.44650  0.12720  Biso   1.000  N
  N11      1.0000 0.43820  0.05350  0.62720  Biso   1.000  N
  N12      1.0000 0.06180  0.55350  0.87280  Biso   1.000  N
  N13      1.0000 0.42950  0.89620  0.20940  Biso   1.000  N
  N14      1.0000 0.07050  0.39620  0.29060  Biso   1.000  N
  N15      1.0000 0.57050  0.10380  0.79060  Biso   1.000  N
  N16      1.0000 0.92950  0.60380  0.70940  Biso   1.000  N
  N17      1.0000 0.43740  0.10840  0.21070  Biso   1.000  N
  N18      1.0000 0.06260  0.60840  0.28930  Biso   1.000  N
  N19      1.0000 0.56260  0.89160  0.78930  Biso   1.000  N
  N20      1.0000 0.93740  0.39160  0.71070  Biso   1.000  N
  N21      1.0000 0.70070  0.00350  0.52590  Biso   1.000  N
  N22      1.0000 0.79930  0.50350  0.97410  Biso   1.000  N
  N23      1.0000 0.29930  0.99650  0.47410  Biso   1.000  N
  N24      1.0000 0.20070  0.49650  0.02590  Biso   1.000  N
  N25      1.0000 0.77170  0.03290  0.25850  Biso   1.000  N
  N26      1.0000 0.72830  0.53290  0.24150  Biso   1.000  N
  N27      1.0000 0.22830  0.96710  0.74150  Biso   1.000  N
  N28      1.0000 0.27170  0.46710  0.75850  Biso   1.000  N
  H65      1.0000 0.70730  0.05770  0.24580  Biso   1.000  H
  H66      1.0000 0.79270  0.55770  0.25420  Biso   1.000  H
  H67      1.0000 0.29270  0.94230  0.75420  Biso   1.000  H
  H68      1.0000 0.20730  0.44230  0.74580  Biso   1.000  H
  H69      1.0000 0.82680  0.05440  0.24320  Biso   1.000  H
  H70      1.0000 0.67320  0.55440  0.25680  Biso   1.000  H
  H71      1.0000 0.17320  0.94560  0.75680  Biso   1.000  H
  H72      1.0000 0.32680  0.44560  0.74320  Biso   1.000  H
  N29      1.0000 0.83680  0.91990  0.35590  Biso   1.000  N
  N30      1.0000 0.66320  0.41990  0.14410  Biso   1.000  N
  N31      1.0000 0.16320  0.08010  0.64410  Biso   1.000  N
  N32      1.0000 0.33680  0.58010  0.85590  Biso   1.000  N
  H73      1.0000 0.90490  0.89820  0.39830  Biso   1.000  H
  H74      1.0000 0.59510  0.39820  0.10170  Biso   1.000  H
  H75      1.0000 0.09510  0.10180  0.60170  Biso   1.000  H
  H76      1.0000 0.40490  0.60180  0.89830  Biso   1.000  H
  H77      1.0000 0.77180  0.89950  0.35590  Biso   1.000  H
  H78      1.0000 0.72820  0.39950  0.14410  Biso   1.000  H
  H79      1.0000 0.22820  0.10050  0.64410  Biso   1.000  H
  H80      1.0000 0.27180  0.60050  0.85590  Biso   1.000  H
  O1       1.0000 0.16010  0.90560  0.93670  Biso   1.000  O
  O2       1.0000 0.33990  0.40560  0.56330  Biso   1.000  O
  O3       1.0000 0.83990  0.09440  0.06330  Biso   1.000  O
  O4       1.0000 0.66010  0.59440  0.43670  Biso   1.000  O
  O5       1.0000 0.17750  0.91860  0.11340  Biso   1.000  O
  O6       1.0000 0.32250  0.41860  0.38660  Biso   1.000  O
  O7       1.0000 0.82250  0.08140  0.88660  Biso   1.000  O
  O8       1.0000 0.67750  0.58140  0.61340  Biso   1.000  O
  O9       1.0000 0.59220  0.75194  0.31670  Biso   1.000  O
  O10      1.0000 0.90780  0.25194  0.18330  Biso   1.000  O
  O11      1.0000 0.40780  0.24806  0.68330  Biso   1.000  O
  O12      1.0000 0.09220  0.74806  0.81670  Biso   1.000  O
  O13      1.0000 0.62310  0.82550  0.21380  Biso   1.000  O
  O14      1.0000 0.87690  0.32550  0.28620  Biso   1.000  O
  O15      1.0000 0.37690  0.17450  0.78620  Biso   1.000  O
  O16      1.0000 0.12310  0.67450  0.71380  Biso   1.000  O
  O17      1.0000 0.14850  0.07570  0.97420  Biso   1.000  O
  O18      1.0000 0.35150  0.57570  0.52580  Biso   1.000  O
  O19      1.0000 0.85150  0.92430  0.02580  Biso   1.000  O
  O20      1.0000 0.64850  0.42430  0.47420  Biso   1.000  O
  O21      1.0000 0.19150  0.09730  0.15340  Biso   1.000  O
  O22      1.0000 0.30850  0.59730  0.34660  Biso   1.000  O
  O23      1.0000 0.80850  0.90270  0.84660  Biso   1.000  O
  O24      1.0000 0.69150  0.40270  0.65340  Biso   1.000  O
  O25      1.0000 0.63710  0.15970  0.19770  Biso   1.000  O
  O26      1.0000 0.86290  0.65970  0.30230  Biso   1.000  O
  O27      1.0000 0.36290  0.84030  0.80230  Biso   1.000  O
  O28      1.0000 0.13710  0.34030  0.69770  Biso   1.000  O
  O29      1.0000 0.64380  0.23880  0.30460  Biso   1.000  O
  O30      1.0000 0.85620  0.73880  0.19540  Biso   1.000  O
  O31      1.0000 0.35620  0.76120  0.69540  Biso   1.000  O
  O32      1.0000 0.14380  0.26120  0.80460  Biso   1.000  O
  O33      1.0000 0.85040  0.08901  0.47750  Biso   1.000  O
  O34      1.0000 0.64960  0.58901  0.02250  Biso   1.000  O
  O35      1.0000 0.14960  0.91099  0.52250  Biso   1.000  O
  O36      1.0000 0.35040  0.41099  0.97750  Biso   1.000  O
  O37      1.0000 0.81970  0.16020  0.58180  Biso   1.000  O
  O38      1.0000 0.68030  0.66020  0.91820  Biso   1.000  O
  O39      1.0000 0.18030  0.83980  0.41820  Biso   1.000  O
  O40      1.0000 0.31970  0.33980  0.08180  Biso   1.000  O
  O41      1.0000 0.93790  0.96960  0.57530  Biso   1.000  O
  O42      1.0000 0.56210  0.46960  0.92470  Biso   1.000  O
  O43      1.0000 0.06210  0.03040  0.42470  Biso   1.000  O
  O44      1.0000 0.43790  0.53040  0.07530  Biso   1.000  O
  O45      1.0000 0.93650  0.89520  0.69240  Biso   1.000  O
  O46      1.0000 0.56350  0.39520  0.80760  Biso   1.000  O
  O47      1.0000 0.06350  0.10480  0.30760  Biso   1.000  O
  O48      1.0000 0.43650  0.60480  0.19240  Biso   1.000  O
  O49      1.0000 0.97360  0.99595  0.86410  Biso   1.000  O
  O50      1.0000 0.52640  0.49595  0.63590  Biso   1.000  O
  O51      1.0000 0.02640  0.00405  0.13590  Biso   1.000  O
  O52      1.0000 0.47360  0.50405  0.36410  Biso   1.000  O
  H81      1.0000 0.02910  0.02100  0.89480  Biso   1.000  H
  H82      1.0000 0.47090  0.52100  0.60520  Biso   1.000  H
  H83      1.0000 0.97090  0.97900  0.10520  Biso   1.000  H
  H84      1.0000 0.52910  0.47900  0.39480  Biso   1.000  H
  H85      1.0000 0.91020  0.00860  0.86520  Biso   1.000  H
  H86      1.0000 0.58980  0.50860  0.63480  Biso   1.000  H
  H87      1.0000 0.08980  0.99140  0.13480  Biso   1.000  H
  H88      1.0000 0.41020  0.49140  0.36520  Biso   1.000  H
  O53      1.0000 0.99470  0.81770  0.92580  Biso   1.000  O
  O54      1.0000 0.50530  0.31770  0.57420  Biso   1.000  O
  O55      1.0000 0.00530  0.18230  0.07420  Biso   1.000  O
  O56      1.0000 0.49470  0.68230  0.42580  Biso   1.000  O
  H89      1.0000 0.94080  0.80280  0.94060  Biso   1.000  H
  H90      1.0000 0.55920  0.30280  0.55940  Biso   1.000  H
  H91      1.0000 0.05920  0.19720  0.05940  Biso   1.000  H
  H92      1.0000 0.44080  0.69720  0.44060  Biso   1.000  H
  H93      1.0000 0.02490  0.79260  0.89780  Biso   1.000  H
  H94      1.0000 0.47510  0.29260  0.60220  Biso   1.000  H
  H95      1.0000 0.97510  0.20740  0.10220  Biso   1.000  H
  H96      1.0000 0.52490  0.70740  0.39780  Biso   1.000  H
  O57      1.0000 0.60960  0.66820  0.16970  Biso   1.000  O
  O58      1.0000 0.89040  0.16820  0.33030  Biso   1.000  O
  O59      1.0000 0.39040  0.33180  0.83030  Biso   1.000  O
  O60      1.0000 0.10960  0.83180  0.66970  Biso   1.000  O
  H97      1.0000 0.54830  0.65120  0.16830  Biso   1.000  H
  H98      1.0000 0.95170  0.15120  0.33170  Biso   1.000  H
  H99      1.0000 0.45170  0.34880  0.83170  Biso   1.000  H
  H100     1.0000 0.04830  0.84880  0.66830  Biso   1.000  H
  H101     1.0000 0.62900  0.65280  0.12200  Biso   1.000  H
  H102     1.0000 0.87100  0.15280  0.37800  Biso   1.000  H
  H103     1.0000 0.37100  0.34720  0.87800  Biso   1.000  H
  H104     1.0000 0.12900  0.84720  0.62200  Biso   1.000  H
  O61      1.0000 0.83950  0.75250  0.44340  Biso   1.000  O
  O62      1.0000 0.66050  0.25250  0.05660  Biso   1.000  O
  O63      1.0000 0.16050  0.24750  0.55660  Biso   1.000  O
  O64      1.0000 0.33950  0.74750  0.94340  Biso   1.000  O
  H105     1.0000 0.82010  0.76250  0.49450  Biso   1.000  H
  H106     1.0000 0.67990  0.26250  0.00550  Biso   1.000  H
  H107     1.0000 0.17990  0.23750  0.50550  Biso   1.000  H
  H108     1.0000 0.32010  0.73750  0.99450  Biso   1.000  H
  H109     1.0000 0.91310  0.74540  0.46940  Biso   1.000  H
  H110     1.0000 0.58690  0.24540  0.03060  Biso   1.000  H
  H111     1.0000 0.08690  0.25460  0.53060  Biso   1.000  H
  H112     1.0000 0.41310  0.75460  0.96940  Biso   1.000  H
  O65      1.0000 0.92690  0.26010  0.50850  Biso   1.000  O
  O66      1.0000 0.57310  0.76010  0.99150  Biso   1.000  O
  O67      1.0000 0.07310  0.73990  0.49150  Biso   1.000  O
  O68      1.0000 0.42690  0.23990  0.00850  Biso   1.000  O
  H113     1.0000 0.90260  0.22510  0.48500  Biso   1.000  H
  H114     1.0000 0.59740  0.72510  0.01500  Biso   1.000  H
  H115     1.0000 0.09740  0.77490  0.51500  Biso   1.000  H
  H116     1.0000 0.40260  0.27490  0.98500  Biso   1.000  H
  H117     1.0000 0.91360  0.27800  0.44860  Biso   1.000  H
  H118     1.0000 0.58640  0.77800  0.05140  Biso   1.000  H
  H119     1.0000 0.08640  0.72200  0.55140  Biso   1.000  H
  H120     1.0000 0.41360  0.22200  0.94860  Biso   1.000  H
  O69      1.0000 0.26510  0.71210  0.10510  Biso   1.000  O
  O70      1.0000 0.23490  0.21210  0.39490  Biso   1.000  O
  O71      1.0000 0.73490  0.28790  0.89490  Biso   1.000  O
  O72      1.0000 0.76510  0.78790  0.60510  Biso   1.000  O
  H121     1.0000 0.30540  0.68980  0.15950  Biso   1.000  H
  H122     1.0000 0.19460  0.18980  0.34050  Biso   1.000  H
  H123     1.0000 0.69460  0.31020  0.84050  Biso   1.000  H
  H124     1.0000 0.80540  0.81020  0.65950  Biso   1.000  H
  H125     1.0000 0.22890  0.73860  0.12420  Biso   1.000  H
  H126     1.0000 0.27110  0.23860  0.37580  Biso   1.000  H
  H127     1.0000 0.77110  0.26140  0.87580  Biso   1.000  H
  H128     1.0000 0.72890  0.76140  0.62420  Biso   1.000  H
  O73      1.0000 0.14270  0.79420  0.19050  Biso   1.000  O
  O74      1.0000 0.35730  0.29420  0.30950  Biso   1.000  O
  O75      1.0000 0.85730  0.20580  0.80950  Biso   1.000  O
  O76      1.0000 0.64270  0.70580  0.69050  Biso   1.000  O
  H129     1.0000 0.15250  0.80670  0.25350  Biso   1.000  H
  H130     1.0000 0.34750  0.30670  0.24650  Biso   1.000  H
  H131     1.0000 0.84750  0.19330  0.74650  Biso   1.000  H
  H132     1.0000 0.65250  0.69330  0.75350  Biso   1.000  H
  H133     1.0000 0.15180  0.82870  0.16860  Biso   1.000  H
  H134     1.0000 0.34820  0.32870  0.33140  Biso   1.000  H
  H135     1.0000 0.84820  0.17130  0.83140  Biso   1.000  H
  H136     1.0000 0.65180  0.67130  0.66860  Biso   1.000  H
  O77      1.0000 0.83860  0.76160  0.97920  Biso   1.000  O
  O78      1.0000 0.66140  0.26160  0.52080  Biso   1.000  O
  O79      1.0000 0.16140  0.23840  0.02080  Biso   1.000  O
  O80      1.0000 0.33860  0.73840  0.47920  Biso   1.000  O
  H137     1.0000 0.79740  0.73330  0.93880  Biso   1.000  H
  H138     1.0000 0.70260  0.23330  0.56120  Biso   1.000  H
  H139     1.0000 0.20260  0.26670  0.06120  Biso   1.000  H
  H140     1.0000 0.29740  0.76670  0.43880  Biso   1.000  H
  H141     1.0000 0.84400  0.75490  0.04340  Biso   1.000  H
  H142     1.0000 0.65600  0.25490  0.45660  Biso   1.000  H
  H143     1.0000 0.15600  0.24510  0.95660  Biso   1.000  H
  H144     1.0000 0.34400  0.74510  0.54340  Biso   1.000  H
  O81      1.0000 0.54000  0.31180  0.12300  Biso   1.000  O
  O82      1.0000 0.96000  0.81180  0.37700  Biso   1.000  O
  O83      1.0000 0.46000  0.68820  0.87700  Biso   1.000  O
  O84      1.0000 0.04000  0.18820  0.62300  Biso   1.000  O
  H145     1.0000 0.57280  0.28900  0.17880  Biso   1.000  H
  H146     1.0000 0.92720  0.78900  0.32120  Biso   1.000  H
  H147     1.0000 0.42720  0.71100  0.82120  Biso   1.000  H
  H148     1.0000 0.07280  0.21100  0.67880  Biso   1.000  H
  H149     1.0000 0.46930  0.32080  0.10910  Biso   1.000  H
  H150     1.0000 0.03070  0.82080  0.39090  Biso   1.000  H
  H151     1.0000 0.53070  0.67920  0.89090  Biso   1.000  H
  H152     1.0000 0.96930  0.17920  0.60910  Biso   1.000  H
