data_image0
_cell_length_a       22.564
_cell_length_b       20.405
_cell_length_c       14.919
_cell_angle_alpha    90
_cell_angle_beta     129.76
_cell_angle_gamma    90

_symmetry_space_group_name_H-M    "P 1"
_symmetry_int_tables_number       1

loop_
  _symmetry_equiv_pos_as_xyz
  'x, y, z'

loop_
  _atom_site_label
  _atom_site_occupancy
  _atom_site_fract_x
  _atom_site_fract_y
  _atom_site_fract_z
  _atom_site_thermal_displace_type
  _atom_site_B_iso_or_equiv
  _atom_site_type_symbol
  Zn1      1.0000 0.55440  0.80450  0.37888  Biso   1.000  Zn
  Zn2      1.0000 0.44560  0.80450  0.12112  Biso   1.000  Zn
  Zn3      1.0000 0.05440  0.30450  0.37888  Biso   1.000  Zn
  Zn4      1.0000 0.94560  0.30450  0.12112  Biso   1.000  Zn
  Zn5      1.0000 0.44560  0.19550  0.62112  Biso   1.000  Zn
  Zn6      1.0000 0.55440  0.19550  0.87888  Biso   1.000  Zn
  Zn7      1.0000 0.94560  0.69550  0.62112  Biso   1.000  Zn
  Zn8      1.0000 0.05440  0.69550  0.87888  Biso   1.000  Zn
  O1       1.0000 0.60350  0.72913  0.35970  Biso   1.000  O
  O2       1.0000 0.39650  0.72913  0.14030  Biso   1.000  O
  O3       1.0000 0.10350  0.22913  0.35970  Biso   1.000  O
  O4       1.0000 0.89650  0.22913  0.14030  Biso   1.000  O
  O5       1.0000 0.39650  0.27087  0.64030  Biso   1.000  O
  O6       1.0000 0.60350  0.27087  0.85970  Biso   1.000  O
  O7       1.0000 0.89650  0.77087  0.64030  Biso   1.000  O
  O8       1.0000 0.10350  0.77087  0.85970  Biso   1.000  O
  O9       1.0000 0.53340  0.74397  0.16840  Biso   1.000  O
  O10      1.0000 0.46660  0.74397  0.33160  Biso   1.000  O
  O11      1.0000 0.03340  0.24397  0.16840  Biso   1.000  O
  O12      1.0000 0.96660  0.24397  0.33160  Biso   1.000  O
  O13      1.0000 0.46660  0.25603  0.83160  Biso   1.000  O
  O14      1.0000 0.53340  0.25603  0.66840  Biso   1.000  O
  O15      1.0000 0.96660  0.75603  0.83160  Biso   1.000  O
  O16      1.0000 0.03340  0.75603  0.66840  Biso   1.000  O
  O17      1.0000 0.98610  0.38091  0.34810  Biso   1.000  O
  O18      1.0000 0.01390  0.38091  0.15190  Biso   1.000  O
  O19      1.0000 0.48610  0.88091  0.34810  Biso   1.000  O
  O20      1.0000 0.51390  0.88091  0.15190  Biso   1.000  O
  O21      1.0000 0.01390  0.61909  0.65190  Biso   1.000  O
  O22      1.0000 0.98610  0.61909  0.84810  Biso   1.000  O
  O23      1.0000 0.51390  0.11909  0.65190  Biso   1.000  O
  O24      1.0000 0.48610  0.11909  0.84810  Biso   1.000  O
  O25      1.0000 0.89140  0.36579  0.15610  Biso   1.000  O
  O26      1.0000 0.10860  0.36579  0.34390  Biso   1.000  O
  O27      1.0000 0.39140  0.86579  0.15610  Biso   1.000  O
  O28      1.0000 0.60860  0.86579  0.34390  Biso   1.000  O
  O29      1.0000 0.10860  0.63421  0.84390  Biso   1.000  O
  O30      1.0000 0.89140  0.63421  0.65610  Biso   1.000  O
  O31      1.0000 0.60860  0.13421  0.84390  Biso   1.000  O
  O32      1.0000 0.39140  0.13421  0.65610  Biso   1.000  O
  C1       1.0000 0.58780  0.71740  0.26310  Biso   1.000  C
  C2       1.0000 0.41220  0.71740  0.23690  Biso   1.000  C
  C3       1.0000 0.08780  0.21740  0.26310  Biso   1.000  C
  C4       1.0000 0.91220  0.21740  0.23690  Biso   1.000  C
  C5       1.0000 0.41220  0.28260  0.73690  Biso   1.000  C
  C6       1.0000 0.58780  0.28260  0.76310  Biso   1.000  C
  C7       1.0000 0.91220  0.78260  0.73690  Biso   1.000  C
  C8       1.0000 0.08780  0.78260  0.76310  Biso   1.000  C
  C9       1.0000 0.63600  0.66920  0.26180  Biso   1.000  C
  C10      1.0000 0.36400  0.66920  0.23820  Biso   1.000  C
  C11      1.0000 0.13600  0.16920  0.26180  Biso   1.000  C
  C12      1.0000 0.86400  0.16920  0.23820  Biso   1.000  C
  C13      1.0000 0.36400  0.33080  0.73820  Biso   1.000  C
  C14      1.0000 0.63600  0.33080  0.76180  Biso   1.000  C
  C15      1.0000 0.86400  0.83080  0.73820  Biso   1.000  C
  C16      1.0000 0.13600  0.83080  0.76180  Biso   1.000  C
  C17      1.0000 0.70100  0.64110  0.36630  Biso   1.000  C
  C18      1.0000 0.29900  0.64110  0.13370  Biso   1.000  C
  C19      1.0000 0.20100  0.14110  0.36630  Biso   1.000  C
  C20      1.0000 0.79900  0.14110  0.13370  Biso   1.000  C
  C21      1.0000 0.29900  0.35890  0.63370  Biso   1.000  C
  C22      1.0000 0.70100  0.35890  0.86630  Biso   1.000  C
  C23      1.0000 0.79900  0.85890  0.63370  Biso   1.000  C
  C24      1.0000 0.20100  0.85890  0.86630  Biso   1.000  C
  H1       1.0000 0.71390  0.65320  0.43850  Biso   1.000  H
  H2       1.0000 0.28610  0.65320  0.06150  Biso   1.000  H
  H3       1.0000 0.21390  0.15320  0.43850  Biso   1.000  H
  H4       1.0000 0.78610  0.15320  0.06150  Biso   1.000  H
  H5       1.0000 0.28610  0.34680  0.56150  Biso   1.000  H
  H6       1.0000 0.71390  0.34680  0.93850  Biso   1.000  H
  H7       1.0000 0.78610  0.84680  0.56150  Biso   1.000  H
  H8       1.0000 0.21390  0.84680  0.93850  Biso   1.000  H
  C25      1.0000 0.74620  0.59590  0.36480  Biso   1.000  C
  C26      1.0000 0.25380  0.59590  0.13520  Biso   1.000  C
  C27      1.0000 0.24620  0.09590  0.36480  Biso   1.000  C
  C28      1.0000 0.75380  0.09590  0.13520  Biso   1.000  C
  C29      1.0000 0.25380  0.40410  0.63520  Biso   1.000  C
  C30      1.0000 0.74620  0.40410  0.86480  Biso   1.000  C
  C31      1.0000 0.75380  0.90410  0.63520  Biso   1.000  C
  C32      1.0000 0.24620  0.90410  0.86480  Biso   1.000  C
  H9       1.0000 0.78870  0.57630  0.43570  Biso   1.000  H
  H10      1.0000 0.21130  0.57630  0.06430  Biso   1.000  H
  H11      1.0000 0.28870  0.07630  0.43570  Biso   1.000  H
  H12      1.0000 0.71130  0.07630  0.06430  Biso   1.000  H
  H13      1.0000 0.21130  0.42370  0.56430  Biso   1.000  H
  H14      1.0000 0.78870  0.42370  0.93570  Biso   1.000  H
  H15      1.0000 0.71130  0.92370  0.56430  Biso   1.000  H
  H16      1.0000 0.28870  0.92370  0.93570  Biso   1.000  H
  C33      1.0000 0.73010  0.57870  0.26010  Biso   1.000  C
  C34      1.0000 0.26990  0.57870  0.23990  Biso   1.000  C
  C35      1.0000 0.23010  0.07870  0.26010  Biso   1.000  C
  C36      1.0000 0.76990  0.07870  0.23990  Biso   1.000  C
  C37      1.0000 0.26990  0.42130  0.73990  Biso   1.000  C
  C38      1.0000 0.73010  0.42130  0.76010  Biso   1.000  C
  C39      1.0000 0.76990  0.92130  0.73990  Biso   1.000  C
  C40      1.0000 0.23010  0.92130  0.76010  Biso   1.000  C
  C41      1.0000 0.66860  0.60940  0.15860  Biso   1.000  C
  C42      1.0000 0.33140  0.60940  0.34140  Biso   1.000  C
  C43      1.0000 0.16860  0.10940  0.15860  Biso   1.000  C
  C44      1.0000 0.83140  0.10940  0.34140  Biso   1.000  C
  C45      1.0000 0.33140  0.39060  0.84140  Biso   1.000  C
  C46      1.0000 0.66860  0.39060  0.65860  Biso   1.000  C
  C47      1.0000 0.83140  0.89060  0.84140  Biso   1.000  C
  C48      1.0000 0.16860  0.89060  0.65860  Biso   1.000  C
  H17      1.0000 0.65810  0.59960  0.08740  Biso   1.000  H
  H18      1.0000 0.34190  0.59960  0.41260  Biso   1.000  H
  H19      1.0000 0.15810  0.09960  0.08740  Biso   1.000  H
  H20      1.0000 0.84190  0.09960  0.41260  Biso   1.000  H
  H21      1.0000 0.34190  0.40040  0.91260  Biso   1.000  H
  H22      1.0000 0.65810  0.40040  0.58740  Biso   1.000  H
  H23      1.0000 0.84190  0.90040  0.91260  Biso   1.000  H
  H24      1.0000 0.15810  0.90040  0.58740  Biso   1.000  H
  C49      1.0000 0.62120  0.65470  0.15820  Biso   1.000  C
  C50      1.0000 0.37880  0.65470  0.34180  Biso   1.000  C
  C51      1.0000 0.12120  0.15470  0.15820  Biso   1.000  C
  C52      1.0000 0.87880  0.15470  0.34180  Biso   1.000  C
  C53      1.0000 0.37880  0.34530  0.84180  Biso   1.000  C
  C54      1.0000 0.62120  0.34530  0.65820  Biso   1.000  C
  C55      1.0000 0.87880  0.84530  0.84180  Biso   1.000  C
  C56      1.0000 0.12120  0.84530  0.65820  Biso   1.000  C
  H25      1.0000 0.57940  0.67510  0.08750  Biso   1.000  H
  H26      1.0000 0.42060  0.67510  0.41250  Biso   1.000  H
  H27      1.0000 0.07940  0.17510  0.08750  Biso   1.000  H
  H28      1.0000 0.92060  0.17510  0.41250  Biso   1.000  H
  H29      1.0000 0.42060  0.32490  0.91250  Biso   1.000  H
  H30      1.0000 0.57940  0.32490  0.58750  Biso   1.000  H
  H31      1.0000 0.92060  0.82490  0.91250  Biso   1.000  H
  H32      1.0000 0.07940  0.82490  0.58750  Biso   1.000  H
  C57      1.0000 0.77910  0.53210  0.25710  Biso   1.000  C
  C58      1.0000 0.22090  0.53210  0.24290  Biso   1.000  C
  C59      1.0000 0.27910  0.03210  0.25710  Biso   1.000  C
  C60      1.0000 0.72090  0.03210  0.24290  Biso   1.000  C
  C61      1.0000 0.22090  0.46790  0.74290  Biso   1.000  C
  C62      1.0000 0.77910  0.46790  0.75710  Biso   1.000  C
  C63      1.0000 0.72090  0.96790  0.74290  Biso   1.000  C
  C64      1.0000 0.27910  0.96790  0.75710  Biso   1.000  C
  C65      1.0000 0.85480  0.51760  0.35990  Biso   1.000  C
  C66      1.0000 0.14520  0.51760  0.14010  Biso   1.000  C
  C67      1.0000 0.35480  0.01760  0.35990  Biso   1.000  C
  C68      1.0000 0.64520  0.01760  0.14010  Biso   1.000  C
  C69      1.0000 0.14520  0.48240  0.64010  Biso   1.000  C
  C70      1.0000 0.85480  0.48240  0.85990  Biso   1.000  C
  C71      1.0000 0.64520  0.98240  0.64010  Biso   1.000  C
  C72      1.0000 0.35480  0.98240  0.85990  Biso   1.000  C
  H33      1.0000 0.87470  0.53860  0.43110  Biso   1.000  H
  H34      1.0000 0.12530  0.53860  0.06890  Biso   1.000  H
  H35      1.0000 0.37470  0.03860  0.43110  Biso   1.000  H
  H36      1.0000 0.62530  0.03860  0.06890  Biso   1.000  H
  H37      1.0000 0.12530  0.46140  0.56890  Biso   1.000  H
  H38      1.0000 0.87470  0.46140  0.93110  Biso   1.000  H
  H39      1.0000 0.62530  0.96140  0.56890  Biso   1.000  H
  H40      1.0000 0.37470  0.96140  0.93110  Biso   1.000  H
  C73      1.0000 0.89970  0.47330  0.35740  Biso   1.000  C
  C74      1.0000 0.10030  0.47330  0.14260  Biso   1.000  C
  C75      1.0000 0.39970  0.97330  0.35740  Biso   1.000  C
  C76      1.0000 0.60030  0.97330  0.14260  Biso   1.000  C
  C77      1.0000 0.10030  0.52670  0.64260  Biso   1.000  C
  C78      1.0000 0.89970  0.52670  0.85740  Biso   1.000  C
  C79      1.0000 0.60030  0.02670  0.64260  Biso   1.000  C
  C80      1.0000 0.39970  0.02670  0.85740  Biso   1.000  C
  H41      1.0000 0.95010  0.46360  0.42720  Biso   1.000  H
  H42      1.0000 0.04990  0.46360  0.07280  Biso   1.000  H
  H43      1.0000 0.45010  0.96360  0.42720  Biso   1.000  H
  H44      1.0000 0.54990  0.96360  0.07280  Biso   1.000  H
  H45      1.0000 0.04990  0.53640  0.57280  Biso   1.000  H
  H46      1.0000 0.95010  0.53640  0.92720  Biso   1.000  H
  H47      1.0000 0.54990  0.03640  0.57280  Biso   1.000  H
  H48      1.0000 0.45010  0.03640  0.92720  Biso   1.000  H
  C81      1.0000 0.87200  0.44240  0.25350  Biso   1.000  C
  C82      1.0000 0.12800  0.44240  0.24650  Biso   1.000  C
  C83      1.0000 0.37200  0.94240  0.25350  Biso   1.000  C
  C84      1.0000 0.62800  0.94240  0.24650  Biso   1.000  C
  C85      1.0000 0.12800  0.55760  0.74650  Biso   1.000  C
  C86      1.0000 0.87200  0.55760  0.75350  Biso   1.000  C
  C87      1.0000 0.62800  0.05760  0.74650  Biso   1.000  C
  C88      1.0000 0.37200  0.05760  0.75350  Biso   1.000  C
  C89      1.0000 0.79720  0.45490  0.15450  Biso   1.000  C
  C90      1.0000 0.20280  0.45490  0.34550  Biso   1.000  C
  C91      1.0000 0.29720  0.95490  0.15450  Biso   1.000  C
  C92      1.0000 0.70280  0.95490  0.34550  Biso   1.000  C
  C93      1.0000 0.20280  0.54510  0.84550  Biso   1.000  C
  C94      1.0000 0.79720  0.54510  0.65450  Biso   1.000  C
  C95      1.0000 0.70280  0.04510  0.84550  Biso   1.000  C
  C96      1.0000 0.29720  0.04510  0.65450  Biso   1.000  C
  H49      1.0000 0.77630  0.43220  0.08420  Biso   1.000  H
  H50      1.0000 0.22370  0.43220  0.41580  Biso   1.000  H
  H51      1.0000 0.27630  0.93220  0.08420  Biso   1.000  H
  H52      1.0000 0.72370  0.93220  0.41580  Biso   1.000  H
  H53      1.0000 0.22370  0.56780  0.91580  Biso   1.000  H
  H54      1.0000 0.77630  0.56780  0.58420  Biso   1.000  H
  H55      1.0000 0.72370  0.06780  0.91580  Biso   1.000  H
  H56      1.0000 0.27630  0.06780  0.58420  Biso   1.000  H
  C97      1.0000 0.75220  0.50050  0.15650  Biso   1.000  C
  C98      1.0000 0.24780  0.50050  0.34350  Biso   1.000  C
  C99      1.0000 0.25220  0.00050  0.15650  Biso   1.000  C
  C100     1.0000 0.74780  0.00050  0.34350  Biso   1.000  C
  C101     1.0000 0.24780  0.49950  0.84350  Biso   1.000  C
  C102     1.0000 0.75220  0.49950  0.65650  Biso   1.000  C
  C103     1.0000 0.74780  0.99950  0.84350  Biso   1.000  C
  C104     1.0000 0.25220  0.99950  0.65650  Biso   1.000  C
  H57      1.0000 0.70180  0.50990  0.08660  Biso   1.000  H
  H58      1.0000 0.29820  0.50990  0.41340  Biso   1.000  H
  H59      1.0000 0.20180  0.00990  0.08660  Biso   1.000  H
  H60      1.0000 0.79820  0.00990  0.41340  Biso   1.000  H
  H61      1.0000 0.29820  0.49010  0.91340  Biso   1.000  H
  H62      1.0000 0.70180  0.49010  0.58660  Biso   1.000  H
  H63      1.0000 0.79820  0.99010  0.91340  Biso   1.000  H
  H64      1.0000 0.20180  0.99010  0.58660  Biso   1.000  H
  C105     1.0000 0.92040  0.39300  0.25230  Biso   1.000  C
  C106     1.0000 0.07960  0.39300  0.24770  Biso   1.000  C
  C107     1.0000 0.42040  0.89300  0.25230  Biso   1.000  C
  C108     1.0000 0.57960  0.89300  0.24770  Biso   1.000  C
  C109     1.0000 0.07960  0.60700  0.74770  Biso   1.000  C
  C110     1.0000 0.92040  0.60700  0.75230  Biso   1.000  C
  C111     1.0000 0.57960  0.10700  0.74770  Biso   1.000  C
  C112     1.0000 0.42040  0.10700  0.75230  Biso   1.000  C
  Cu1      1.0000 0.77620  0.71920  0.00080  Biso   1.000  Cu
  Cu2      1.0000 0.22380  0.71920  0.49920  Biso   1.000  Cu
  Cu3      1.0000 0.27620  0.21920  0.00080  Biso   1.000  Cu
  Cu4      1.0000 0.72380  0.21920  0.49920  Biso   1.000  Cu
  Cu5      1.0000 0.22380  0.28080  0.99920  Biso   1.000  Cu
  Cu6      1.0000 0.77620  0.28080  0.50080  Biso   1.000  Cu
  Cu7      1.0000 0.72380  0.78080  0.99920  Biso   1.000  Cu
  Cu8      1.0000 0.27620  0.78080  0.50080  Biso   1.000  Cu
  N1       1.0000 0.61470  0.79680  0.55060  Biso   1.000  N
  N2       1.0000 0.38530  0.79680  0.94940  Biso   1.000  N
  N3       1.0000 0.11470  0.29680  0.55060  Biso   1.000  N
  N4       1.0000 0.88530  0.29680  0.94940  Biso   1.000  N
  N5       1.0000 0.38530  0.20320  0.44940  Biso   1.000  N
  N6       1.0000 0.61470  0.20320  0.05060  Biso   1.000  N
  N7       1.0000 0.88530  0.70320  0.44940  Biso   1.000  N
  N8       1.0000 0.11470  0.70320  0.05060  Biso   1.000  N
  O33      1.0000 0.74820  0.75760  0.90120  Biso   1.000  O
  O34      1.0000 0.25180  0.75760  0.59880  Biso   1.000  O
  O35      1.0000 0.24820  0.25760  0.90120  Biso   1.000  O
  O36      1.0000 0.75180  0.25760  0.59880  Biso   1.000  O
  O37      1.0000 0.25180  0.24240  0.09880  Biso   1.000  O
  O38      1.0000 0.74820  0.24240  0.40120  Biso   1.000  O
  O39      1.0000 0.75180  0.74240  0.09880  Biso   1.000  O
  O40      1.0000 0.24820  0.74240  0.40120  Biso   1.000  O
  C113     1.0000 0.59240  0.82590  0.60300  Biso   1.000  C
  C114     1.0000 0.40760  0.82590  0.89700  Biso   1.000  C
  C115     1.0000 0.09240  0.32590  0.60300  Biso   1.000  C
  C116     1.0000 0.90760  0.32590  0.89700  Biso   1.000  C
  C117     1.0000 0.40760  0.17410  0.39700  Biso   1.000  C
  C118     1.0000 0.59240  0.17410  0.10300  Biso   1.000  C
  C119     1.0000 0.90760  0.67410  0.39700  Biso   1.000  C
  C120     1.0000 0.09240  0.67410  0.10300  Biso   1.000  C
  H65      1.0000 0.54920  0.85450  0.55800  Biso   1.000  H
  H66      1.0000 0.45080  0.85450  0.94200  Biso   1.000  H
  H67      1.0000 0.04920  0.35450  0.55800  Biso   1.000  H
  H68      1.0000 0.95080  0.35450  0.94200  Biso   1.000  H
  H69      1.0000 0.45080  0.14550  0.44200  Biso   1.000  H
  H70      1.0000 0.54920  0.14550  0.05800  Biso   1.000  H
  H71      1.0000 0.95080  0.64550  0.44200  Biso   1.000  H
  H72      1.0000 0.04920  0.64550  0.05800  Biso   1.000  H
  C121     1.0000 0.62770  0.81760  0.72040  Biso   1.000  C
  C122     1.0000 0.37230  0.81760  0.77960  Biso   1.000  C
  C123     1.0000 0.12770  0.31760  0.72040  Biso   1.000  C
  C124     1.0000 0.87230  0.31760  0.77960  Biso   1.000  C
  C125     1.0000 0.37230  0.18240  0.27960  Biso   1.000  C
  C126     1.0000 0.62770  0.18240  0.22040  Biso   1.000  C
  C127     1.0000 0.87230  0.68240  0.27960  Biso   1.000  C
  C128     1.0000 0.12770  0.68240  0.22040  Biso   1.000  C
  C129     1.0000 0.69400  0.77870  0.78940  Biso   1.000  C
  C130     1.0000 0.30600  0.77870  0.71060  Biso   1.000  C
  C131     1.0000 0.19400  0.27870  0.78940  Biso   1.000  C
  C132     1.0000 0.80600  0.27870  0.71060  Biso   1.000  C
  C133     1.0000 0.30600  0.22130  0.21060  Biso   1.000  C
  C134     1.0000 0.69400  0.22130  0.28940  Biso   1.000  C
  C135     1.0000 0.80600  0.72130  0.21060  Biso   1.000  C
  C136     1.0000 0.19400  0.72130  0.28940  Biso   1.000  C
  C137     1.0000 0.71640  0.74570  0.73310  Biso   1.000  C
  C138     1.0000 0.28360  0.74570  0.76690  Biso   1.000  C
  C139     1.0000 0.21640  0.24570  0.73310  Biso   1.000  C
  C140     1.0000 0.78360  0.24570  0.76690  Biso   1.000  C
  C141     1.0000 0.28360  0.25430  0.26690  Biso   1.000  C
  C142     1.0000 0.71640  0.25430  0.23310  Biso   1.000  C
  C143     1.0000 0.78360  0.75430  0.26690  Biso   1.000  C
  C144     1.0000 0.21640  0.75430  0.23310  Biso   1.000  C
  C145     1.0000 0.67620  0.75660  0.61600  Biso   1.000  C
  C146     1.0000 0.32380  0.75660  0.88400  Biso   1.000  C
  C147     1.0000 0.17620  0.25660  0.61600  Biso   1.000  C
  C148     1.0000 0.82380  0.25660  0.88400  Biso   1.000  C
  C149     1.0000 0.32380  0.24340  0.38400  Biso   1.000  C
  C150     1.0000 0.67620  0.24340  0.11600  Biso   1.000  C
  C151     1.0000 0.82380  0.74340  0.38400  Biso   1.000  C
  C152     1.0000 0.17620  0.74340  0.11600  Biso   1.000  C
  H73      1.0000 0.69270  0.73450  0.57940  Biso   1.000  H
  H74      1.0000 0.30730  0.73450  0.92060  Biso   1.000  H
  H75      1.0000 0.19270  0.23450  0.57940  Biso   1.000  H
  H76      1.0000 0.80730  0.23450  0.92060  Biso   1.000  H
  H77      1.0000 0.30730  0.26550  0.42060  Biso   1.000  H
  H78      1.0000 0.69270  0.26550  0.07940  Biso   1.000  H
  H79      1.0000 0.80730  0.76550  0.42060  Biso   1.000  H
  H80      1.0000 0.19270  0.76550  0.07940  Biso   1.000  H
  C153     1.0000 0.59180  0.86080  0.76260  Biso   1.000  C
  C154     1.0000 0.40820  0.86080  0.73740  Biso   1.000  C
  C155     1.0000 0.09180  0.36080  0.76260  Biso   1.000  C
  C156     1.0000 0.90820  0.36080  0.73740  Biso   1.000  C
  C157     1.0000 0.40820  0.13920  0.23740  Biso   1.000  C
  C158     1.0000 0.59180  0.13920  0.26260  Biso   1.000  C
  C159     1.0000 0.90820  0.63920  0.23740  Biso   1.000  C
  C160     1.0000 0.09180  0.63920  0.26260  Biso   1.000  C
  H81      1.0000 0.61850  0.85600  0.84440  Biso   1.000  H
  H82      1.0000 0.38150  0.85600  0.65560  Biso   1.000  H
  H83      1.0000 0.11850  0.35600  0.84440  Biso   1.000  H
  H84      1.0000 0.88150  0.35600  0.65560  Biso   1.000  H
  H85      1.0000 0.38150  0.14400  0.15560  Biso   1.000  H
  H86      1.0000 0.61850  0.14400  0.34440  Biso   1.000  H
  H87      1.0000 0.88150  0.64400  0.15560  Biso   1.000  H
  H88      1.0000 0.11850  0.64400  0.34440  Biso   1.000  H
  H89      1.0000 0.59470  0.90560  0.74600  Biso   1.000  H
  H90      1.0000 0.40530  0.90560  0.75400  Biso   1.000  H
  H91      1.0000 0.09470  0.40560  0.74600  Biso   1.000  H
  H92      1.0000 0.90530  0.40560  0.75400  Biso   1.000  H
  H93      1.0000 0.40530  0.09440  0.25400  Biso   1.000  H
  H94      1.0000 0.59470  0.09440  0.24600  Biso   1.000  H
  H95      1.0000 0.90530  0.59440  0.25400  Biso   1.000  H
  H96      1.0000 0.09470  0.59440  0.24600  Biso   1.000  H
  H97      1.0000 0.53870  0.84850  0.71880  Biso   1.000  H
  H98      1.0000 0.46130  0.84850  0.78120  Biso   1.000  H
  H99      1.0000 0.03870  0.34850  0.71880  Biso   1.000  H
  H100     1.0000 0.96130  0.34850  0.78120  Biso   1.000  H
  H101     1.0000 0.46130  0.15150  0.28120  Biso   1.000  H
  H102     1.0000 0.53870  0.15150  0.21880  Biso   1.000  H
  H103     1.0000 0.96130  0.65150  0.28120  Biso   1.000  H
  H104     1.0000 0.03870  0.65150  0.21880  Biso   1.000  H
  C161     1.0000 0.78090  0.70160  0.79830  Biso   1.000  C
  C162     1.0000 0.21910  0.70160  0.70170  Biso   1.000  C
  C163     1.0000 0.28090  0.20160  0.79830  Biso   1.000  C
  C164     1.0000 0.71910  0.20160  0.70170  Biso   1.000  C
  C165     1.0000 0.21910  0.29840  0.20170  Biso   1.000  C
  C166     1.0000 0.78090  0.29840  0.29830  Biso   1.000  C
  C167     1.0000 0.71910  0.79840  0.20170  Biso   1.000  C
  C168     1.0000 0.28090  0.79840  0.29830  Biso   1.000  C
  H105     1.0000 0.80060  0.67920  0.76650  Biso   1.000  H
  H106     1.0000 0.19940  0.67920  0.73350  Biso   1.000  H
  H107     1.0000 0.30060  0.17920  0.76650  Biso   1.000  H
  H108     1.0000 0.69940  0.17920  0.73350  Biso   1.000  H
  H109     1.0000 0.19940  0.32080  0.23350  Biso   1.000  H
  H110     1.0000 0.80060  0.32080  0.26650  Biso   1.000  H
  H111     1.0000 0.69940  0.82080  0.23350  Biso   1.000  H
  H112     1.0000 0.30060  0.82080  0.26650  Biso   1.000  H
  N9       1.0000 0.80990  0.69580  0.90910  Biso   1.000  N
  N10      1.0000 0.19010  0.69580  0.59090  Biso   1.000  N
  N11      1.0000 0.30990  0.19580  0.90910  Biso   1.000  N
  N12      1.0000 0.69010  0.19580  0.59090  Biso   1.000  N
  N13      1.0000 0.19010  0.30420  0.09090  Biso   1.000  N
  N14      1.0000 0.80990  0.30420  0.40910  Biso   1.000  N
  N15      1.0000 0.69010  0.80420  0.09090  Biso   1.000  N
  N16      1.0000 0.30990  0.80420  0.40910  Biso   1.000  N
  C169     1.0000 0.87800  0.65390  0.97900  Biso   1.000  C
  C170     1.0000 0.12200  0.65390  0.52100  Biso   1.000  C
  C171     1.0000 0.37800  0.15390  0.97900  Biso   1.000  C
  C172     1.0000 0.62200  0.15390  0.52100  Biso   1.000  C
  C173     1.0000 0.12200  0.34610  0.02100  Biso   1.000  C
  C174     1.0000 0.87800  0.34610  0.47900  Biso   1.000  C
  C175     1.0000 0.62200  0.84610  0.02100  Biso   1.000  C
  C176     1.0000 0.37800  0.84610  0.47900  Biso   1.000  C
  H113     1.0000 0.92490  0.68060  0.03310  Biso   1.000  H
  H114     1.0000 0.07510  0.68060  0.46690  Biso   1.000  H
  H115     1.0000 0.42490  0.18060  0.03310  Biso   1.000  H
  H116     1.0000 0.57510  0.18060  0.46690  Biso   1.000  H
  H117     1.0000 0.07510  0.31940  0.96690  Biso   1.000  H
  H118     1.0000 0.92490  0.31940  0.53310  Biso   1.000  H
  H119     1.0000 0.57510  0.81940  0.96690  Biso   1.000  H
  H120     1.0000 0.42490  0.81940  0.53310  Biso   1.000  H
  H121     1.0000 0.88330  0.62850  0.92800  Biso   1.000  H
  H122     1.0000 0.11670  0.62850  0.57200  Biso   1.000  H
  H123     1.0000 0.38330  0.12850  0.92800  Biso   1.000  H
  H124     1.0000 0.61670  0.12850  0.57200  Biso   1.000  H
  H125     1.0000 0.11670  0.37150  0.07200  Biso   1.000  H
  H126     1.0000 0.88330  0.37150  0.42800  Biso   1.000  H
  H127     1.0000 0.61670  0.87150  0.07200  Biso   1.000  H
  H128     1.0000 0.38330  0.87150  0.42800  Biso   1.000  H
  N17      1.0000 0.65050  0.84660  0.89270  Biso   1.000  N
  N18      1.0000 0.34950  0.84660  0.60730  Biso   1.000  N
  N19      1.0000 0.15050  0.34660  0.89270  Biso   1.000  N
  N20      1.0000 0.84950  0.34660  0.60730  Biso   1.000  N
  N21      1.0000 0.34950  0.15340  0.10730  Biso   1.000  N
  N22      1.0000 0.65050  0.15340  0.39270  Biso   1.000  N
  N23      1.0000 0.84950  0.65340  0.10730  Biso   1.000  N
  N24      1.0000 0.15050  0.65340  0.39270  Biso   1.000  N
  C177     1.0000 0.86480  0.60460  0.05140  Biso   1.000  C
  C178     1.0000 0.13520  0.60460  0.44860  Biso   1.000  C
  C179     1.0000 0.36480  0.10460  0.05140  Biso   1.000  C
  C180     1.0000 0.63520  0.10460  0.44860  Biso   1.000  C
  C181     1.0000 0.13520  0.39540  0.94860  Biso   1.000  C
  C182     1.0000 0.86480  0.39540  0.55140  Biso   1.000  C
  C183     1.0000 0.63520  0.89540  0.94860  Biso   1.000  C
  C184     1.0000 0.36480  0.89540  0.55140  Biso   1.000  C
  H129     1.0000 0.82030  0.57510  0.99890  Biso   1.000  H
  H130     1.0000 0.17970  0.57510  0.50110  Biso   1.000  H
  H131     1.0000 0.32030  0.07510  0.99890  Biso   1.000  H
  H132     1.0000 0.67970  0.07510  0.50110  Biso   1.000  H
  H133     1.0000 0.17970  0.42490  0.00110  Biso   1.000  H
  H134     1.0000 0.82030  0.42490  0.49890  Biso   1.000  H
  H135     1.0000 0.67970  0.92490  0.00110  Biso   1.000  H
  H136     1.0000 0.32030  0.92490  0.49890  Biso   1.000  H
  H137     1.0000 0.91150  0.57840  0.10950  Biso   1.000  H
  H138     1.0000 0.08850  0.57840  0.39050  Biso   1.000  H
  H139     1.0000 0.41150  0.07840  0.10950  Biso   1.000  H
  H140     1.0000 0.58850  0.07840  0.39050  Biso   1.000  H
  H141     1.0000 0.08850  0.42160  0.89050  Biso   1.000  H
  H142     1.0000 0.91150  0.42160  0.60950  Biso   1.000  H
  H143     1.0000 0.58850  0.92160  0.89050  Biso   1.000  H
  H144     1.0000 0.41150  0.92160  0.60950  Biso   1.000  H
  O41      1.0000 0.70330  0.78390  0.88690  Biso   1.000  O
  O42      1.0000 0.29670  0.78390  0.61310  Biso   1.000  O
  O43      1.0000 0.20330  0.28390  0.88690  Biso   1.000  O
  O44      1.0000 0.79670  0.28390  0.61310  Biso   1.000  O
  O45      1.0000 0.29670  0.21610  0.11310  Biso   1.000  O
  O46      1.0000 0.70330  0.21610  0.38690  Biso   1.000  O
  O47      1.0000 0.79670  0.71610  0.11310  Biso   1.000  O
  O48      1.0000 0.20330  0.71610  0.38690  Biso   1.000  O
