data_image0
_cell_length_a       12.0004
_cell_length_b       6.8589
_cell_length_c       13.2287
_cell_angle_alpha    90
_cell_angle_beta     93.281
_cell_angle_gamma    90

_symmetry_space_group_name_H-M    "P 1"
_symmetry_int_tables_number       1

loop_
  _symmetry_equiv_pos_as_xyz
  'x, y, z'

loop_
  _atom_site_label
  _atom_site_occupancy
  _atom_site_fract_x
  _atom_site_fract_y
  _atom_site_fract_z
  _atom_site_thermal_displace_type
  _atom_site_B_iso_or_equiv
  _atom_site_type_symbol
  Cu1      1.0000 0.47076  0.76479  0.15517  Biso   1.000  Cu
  Cu2      1.0000 0.52924  0.26479  0.84483  Biso   1.000  Cu
  N1       1.0000 0.37109  0.52920  0.14269  Biso   1.000  N
  N2       1.0000 0.62891  0.02920  0.85731  Biso   1.000  N
  H1       1.0000 0.36800  0.46700  0.19900  Biso   1.000  H
  H2       1.0000 0.63200  0.96700  0.80100  Biso   1.000  H
  H3       1.0000 0.39800  0.47200  0.09900  Biso   1.000  H
  H4       1.0000 0.60200  0.97200  0.90100  Biso   1.000  H
  N3       1.0000 0.32669  0.91520  0.14549  Biso   1.000  N
  N4       1.0000 0.67331  0.41520  0.85451  Biso   1.000  N
  H5       1.0000 0.33400  0.02800  0.19100  Biso   1.000  H
  H6       1.0000 0.66600  0.52800  0.80900  Biso   1.000  H
  H7       1.0000 0.30800  0.96400  0.08500  Biso   1.000  H
  H8       1.0000 0.69200  0.46400  0.91500  Biso   1.000  H
  C1       1.0000 0.25667  0.59140  0.11083  Biso   1.000  C
  C2       1.0000 0.74333  0.09140  0.88917  Biso   1.000  C
  H9       1.0000 0.25510  0.62250  0.03840  Biso   1.000  H
  H10      1.0000 0.74490  0.12250  0.96160  Biso   1.000  H
  C3       1.0000 0.23499  0.77890  0.16791  Biso   1.000  C
  C4       1.0000 0.76501  0.27890  0.83209  Biso   1.000  C
  H11      1.0000 0.24040  0.75030  0.24060  Biso   1.000  H
  H12      1.0000 0.75960  0.25030  0.75940  Biso   1.000  H
  C5       1.0000 0.11860  0.86100  0.14051  Biso   1.000  C
  C6       1.0000 0.88140  0.36100  0.85949  Biso   1.000  C
  H13      1.0000 0.11450  0.90410  0.07060  Biso   1.000  H
  H14      1.0000 0.88550  0.40410  0.92940  Biso   1.000  H
  H15      1.0000 0.10510  0.97280  0.18300  Biso   1.000  H
  H16      1.0000 0.89490  0.47280  0.81700  Biso   1.000  H
  C7       1.0000 0.02879  0.70550  0.15515  Biso   1.000  C
  C8       1.0000 0.97121  0.20550  0.84485  Biso   1.000  C
  H17      1.0000 0.02680  0.67430  0.22650  Biso   1.000  H
  H18      1.0000 0.97320  0.17430  0.77350  Biso   1.000  H
  H19      1.0000 0.95630  0.75690  0.13250  Biso   1.000  H
  H20      1.0000 0.04370  0.25690  0.86750  Biso   1.000  H
  C9       1.0000 0.05229  0.52130  0.09611  Biso   1.000  C
  C10      1.0000 0.94771  0.02130  0.90389  Biso   1.000  C
  H21      1.0000 0.04780  0.55040  0.02420  Biso   1.000  H
  H22      1.0000 0.95220  0.05040  0.97580  Biso   1.000  H
  H23      1.0000 0.99600  0.42420  0.10860  Biso   1.000  H
  H24      1.0000 0.00400  0.92420  0.89140  Biso   1.000  H
  C11      1.0000 0.16760  0.43890  0.12632  Biso   1.000  C
  C12      1.0000 0.83240  0.93890  0.87368  Biso   1.000  C
  H25      1.0000 0.17040  0.39950  0.19680  Biso   1.000  H
  H26      1.0000 0.82960  0.89950  0.80320  Biso   1.000  H
  H27      1.0000 0.18150  0.32480  0.08560  Biso   1.000  H
  H28      1.0000 0.81850  0.82480  0.91440  Biso   1.000  H
  N5       1.0000 0.60751  0.60690  0.18838  Biso   1.000  N
  N6       1.0000 0.39249  0.10690  0.81162  Biso   1.000  N
  N7       1.0000 0.67716  0.59460  0.12696  Biso   1.000  N
  N8       1.0000 0.32284  0.09460  0.87304  Biso   1.000  N
  N9       1.0000 0.74581  0.57800  0.06984  Biso   1.000  N
  N10      1.0000 0.25419  0.07800  0.93016  Biso   1.000  N
  N11      1.0000 0.56343  0.01050  0.15587  Biso   1.000  N
  N12      1.0000 0.43657  0.51050  0.84413  Biso   1.000  N
  N13      1.0000 0.53941  0.13020  0.09205  Biso   1.000  N
  N14      1.0000 0.46059  0.63020  0.90795  Biso   1.000  N
  N15      1.0000 0.51693  0.24770  0.03149  Biso   1.000  N
  N16      1.0000 0.48307  0.74770  0.96851  Biso   1.000  N
  Cu3      1.0000 0.53127  0.06367  0.34775  Biso   1.000  Cu
  Cu4      1.0000 0.46873  0.56367  0.65225  Biso   1.000  Cu
  N17      1.0000 0.67429  0.90890  0.36801  Biso   1.000  N
  N18      1.0000 0.32571  0.40890  0.63199  Biso   1.000  N
  H29      1.0000 0.68190  0.84700  0.30830  Biso   1.000  H
  H30      1.0000 0.31810  0.34700  0.69170  Biso   1.000  H
  H31      1.0000 0.67200  0.83400  0.41000  Biso   1.000  H
  H32      1.0000 0.32800  0.33400  0.59000  Biso   1.000  H
  N19      1.0000 0.63382  0.29660  0.34713  Biso   1.000  N
  N20      1.0000 0.36618  0.79660  0.65287  Biso   1.000  N
  H33      1.0000 0.61700  0.37900  0.30100  Biso   1.000  H
  H34      1.0000 0.38300  0.87900  0.69900  Biso   1.000  H
  H35      1.0000 0.63000  0.35900  0.40000  Biso   1.000  H
  H36      1.0000 0.37000  0.85900  0.60000  Biso   1.000  H
  C13      1.0000 0.76809  0.04390  0.39361  Biso   1.000  C
  C14      1.0000 0.23191  0.54390  0.60639  Biso   1.000  C
  H37      1.0000 0.76530  0.07910  0.46520  Biso   1.000  H
  H38      1.0000 0.23470  0.57910  0.53480  Biso   1.000  H
  C15      1.0000 0.74908  0.22810  0.33120  Biso   1.000  C
  C16      1.0000 0.25092  0.72810  0.66880  Biso   1.000  C
  H39      1.0000 0.75270  0.19300  0.25960  Biso   1.000  H
  H40      1.0000 0.24730  0.69300  0.74040  Biso   1.000  H
  C17      1.0000 0.83950  0.37940  0.35637  Biso   1.000  C
  C18      1.0000 0.16050  0.87940  0.64363  Biso   1.000  C
  H41      1.0000 0.83410  0.42390  0.42550  Biso   1.000  H
  H42      1.0000 0.16590  0.92390  0.57450  Biso   1.000  H
  H43      1.0000 0.82870  0.49090  0.31180  Biso   1.000  H
  H44      1.0000 0.17130  0.99090  0.68820  Biso   1.000  H
  C19      1.0000 0.95566  0.29110  0.34382  Biso   1.000  C
  C20      1.0000 0.04434  0.79110  0.65618  Biso   1.000  C
  H45      1.0000 0.96410  0.26240  0.27290  Biso   1.000  H
  H46      1.0000 0.03590  0.76240  0.72710  Biso   1.000  H
  H47      1.0000 0.01230  0.38570  0.36520  Biso   1.000  H
  H48      1.0000 0.98770  0.88570  0.63480  Biso   1.000  H
  C21      1.0000 0.97344  0.10540  0.40550  Biso   1.000  C
  C22      1.0000 0.02656  0.60540  0.59450  Biso   1.000  C
  H49      1.0000 0.97330  0.13630  0.47700  Biso   1.000  H
  H50      1.0000 0.02670  0.63630  0.52300  Biso   1.000  H
  H51      1.0000 0.04560  0.05000  0.39260  Biso   1.000  H
  H52      1.0000 0.95440  0.55000  0.60740  Biso   1.000  H
  C23      1.0000 0.88170  0.95570  0.37840  Biso   1.000  C
  C24      1.0000 0.11830  0.45570  0.62160  Biso   1.000  C
  H53      1.0000 0.88590  0.91570  0.30840  Biso   1.000  H
  H54      1.0000 0.11410  0.41570  0.69160  Biso   1.000  H
  H55      1.0000 0.89240  0.84120  0.42090  Biso   1.000  H
  H56      1.0000 0.10760  0.34120  0.57910  Biso   1.000  H
  N21      1.0000 0.43884  0.81630  0.34537  Biso   1.000  N
  N22      1.0000 0.56116  0.31630  0.65463  Biso   1.000  N
  N23      1.0000 0.46352  0.69660  0.40813  Biso   1.000  N
  N24      1.0000 0.53648  0.19660  0.59187  Biso   1.000  N
  N25      1.0000 0.48608  0.57760  0.46858  Biso   1.000  N
  N26      1.0000 0.51392  0.07760  0.53142  Biso   1.000  N
  N27      1.0000 0.39430  0.22230  0.31193  Biso   1.000  N
  N28      1.0000 0.60570  0.72230  0.68807  Biso   1.000  N
  N29      1.0000 0.32294  0.21640  0.37208  Biso   1.000  N
  N30      1.0000 0.67706  0.71640  0.62792  Biso   1.000  N
  N31      1.0000 0.25292  0.21200  0.42815  Biso   1.000  N
  N32      1.0000 0.74708  0.71200  0.57185  Biso   1.000  N
