data_image0
_cell_length_a       10.104
_cell_length_b       11.11
_cell_length_c       9.998
_cell_angle_alpha    112.47
_cell_angle_beta     102.01
_cell_angle_gamma    90.97

_symmetry_space_group_name_H-M    "P 1"
_symmetry_int_tables_number       1

loop_
  _symmetry_equiv_pos_as_xyz
  'x, y, z'

loop_
  _atom_site_label
  _atom_site_occupancy
  _atom_site_fract_x
  _atom_site_fract_y
  _atom_site_fract_z
  _atom_site_thermal_displace_type
  _atom_site_B_iso_or_equiv
  _atom_site_type_symbol
  Cu1      1.0000 0.94340  0.95320  0.21870  Biso   1.000  Cu
  Cu2      1.0000 0.05660  0.04680  0.78130  Biso   1.000  Cu
  P1       1.0000 0.84830  0.09460  0.52490  Biso   1.000  P
  P2       1.0000 0.15170  0.90540  0.47510  Biso   1.000  P
  P3       1.0000 0.97460  0.17410  0.08790  Biso   1.000  P
  P4       1.0000 0.02540  0.82590  0.91210  Biso   1.000  P
  O1       1.0000 0.86500  0.07620  0.37100  Biso   1.000  O
  O2       1.0000 0.13500  0.92380  0.62900  Biso   1.000  O
  O3       1.0000 0.02390  0.87130  0.35500  Biso   1.000  O
  O4       1.0000 0.97610  0.12870  0.64500  Biso   1.000  O
  O5       1.0000 0.89880  0.06770  0.10800  Biso   1.000  O
  O6       1.0000 0.10120  0.93230  0.89200  Biso   1.000  O
  O7       1.0000 0.03470  0.84300  0.07200  Biso   1.000  O
  O8       1.0000 0.96530  0.15700  0.92800  Biso   1.000  O
  O9       1.0000 0.74080  0.81700  0.11100  Biso   1.000  O
  O10      1.0000 0.25920  0.18300  0.88900  Biso   1.000  O
  C1       1.0000 0.75500  0.95000  0.51400  Biso   1.000  C
  C2       1.0000 0.24500  0.05000  0.48600  Biso   1.000  C
  C3       1.0000 0.73900  0.22400  0.57600  Biso   1.000  C
  C4       1.0000 0.26100  0.77600  0.42400  Biso   1.000  C
  C5       1.0000 0.78100  0.32900  0.70500  Biso   1.000  C
  C6       1.0000 0.21900  0.67100  0.29500  Biso   1.000  C
  C7       1.0000 0.70100  0.43700  0.74900  Biso   1.000  C
  C8       1.0000 0.29900  0.56300  0.25100  Biso   1.000  C
  C9       1.0000 0.57600  0.42400  0.65300  Biso   1.000  C
  C10      1.0000 0.42400  0.57600  0.34700  Biso   1.000  C
  C11      1.0000 0.53500  0.32500  0.52500  Biso   1.000  C
  C12      1.0000 0.46500  0.67500  0.47500  Biso   1.000  C
  C13      1.0000 0.61700  0.22100  0.48400  Biso   1.000  C
  C14      1.0000 0.38300  0.77900  0.51600  Biso   1.000  C
  C15      1.0000 0.14900  0.20100  0.18900  Biso   1.000  C
  C16      1.0000 0.85100  0.79900  0.81100  Biso   1.000  C
  C17      1.0000 0.90700  0.32800  0.17600  Biso   1.000  C
  C18      1.0000 0.09300  0.67200  0.82400  Biso   1.000  C
  C19      1.0000 0.90400  0.42600  0.12200  Biso   1.000  C
  C20      1.0000 0.09600  0.57400  0.87800  Biso   1.000  C
  C21      1.0000 0.85400  0.54400  0.19300  Biso   1.000  C
  C22      1.0000 0.14600  0.45600  0.80700  Biso   1.000  C
  C23      1.0000 0.80800  0.56200  0.31700  Biso   1.000  C
  C24      1.0000 0.19200  0.43800  0.68300  Biso   1.000  C
  C25      1.0000 0.80700  0.46800  0.37200  Biso   1.000  C
  C26      1.0000 0.19300  0.53200  0.62800  Biso   1.000  C
  C27      1.0000 0.85600  0.34800  0.29700  Biso   1.000  C
  C28      1.0000 0.14400  0.65200  0.70300  Biso   1.000  C
  N1       1.0000 0.51600  0.82000  0.08000  Biso   1.000  N
  N2       1.0000 0.48400  0.18000  0.92000  Biso   1.000  N
  C29      1.0000 0.64200  0.87300  0.11800  Biso   1.000  C
  C30      1.0000 0.35800  0.12700  0.88200  Biso   1.000  C
  C31      1.0000 0.49100  0.67100  0.02000  Biso   1.000  C
  C32      1.0000 0.50900  0.32900  0.98000  Biso   1.000  C
  C33      1.0000 0.39600  0.89500  0.09600  Biso   1.000  C
  C34      1.0000 0.60400  0.10500  0.90400  Biso   1.000  C
