data_image0
_cell_length_a       11.6776
_cell_length_b       18.6014
_cell_length_c       13.2518
_cell_angle_alpha    90
_cell_angle_beta     108.458
_cell_angle_gamma    90

_symmetry_space_group_name_H-M    "P 1"
_symmetry_int_tables_number       1

loop_
  _symmetry_equiv_pos_as_xyz
  'x, y, z'

loop_
  _atom_site_label
  _atom_site_occupancy
  _atom_site_fract_x
  _atom_site_fract_y
  _atom_site_fract_z
  _atom_site_thermal_displace_type
  _atom_site_B_iso_or_equiv
  _atom_site_type_symbol
  Cu1      1.0000 0.30667  0.08568  0.75474  Biso   1.000  Cu
  Cu2      1.0000 0.69332  0.58568  0.74526  Biso   1.000  Cu
  Cu3      1.0000 0.69332  0.91432  0.24526  Biso   1.000  Cu
  Cu4      1.0000 0.30667  0.41432  0.25474  Biso   1.000  Cu
  Cl1      1.0000 0.30917  0.05906  0.92225  Biso   1.000  Cl
  Cl2      1.0000 0.69083  0.55906  0.57775  Biso   1.000  Cl
  Cl3      1.0000 0.69083  0.94094  0.07775  Biso   1.000  Cl
  Cl4      1.0000 0.30917  0.44094  0.42225  Biso   1.000  Cl
  Cl5      1.0000 0.30832  0.02359  0.60865  Biso   1.000  Cl
  Cl6      1.0000 0.69168  0.52359  0.89135  Biso   1.000  Cl
  Cl7      1.0000 0.69168  0.97641  0.39135  Biso   1.000  Cl
  Cl8      1.0000 0.30832  0.47641  0.10865  Biso   1.000  Cl
  S1       1.0000 0.51628  0.10228  0.79508  Biso   1.000  S
  S2       1.0000 0.48372  0.60228  0.70492  Biso   1.000  S
  S3       1.0000 0.48372  0.89772  0.20492  Biso   1.000  S
  S4       1.0000 0.51628  0.39772  0.29508  Biso   1.000  S
  S5       1.0000 0.09422  0.09165  0.70917  Biso   1.000  S
  S6       1.0000 0.90578  0.59165  0.79083  Biso   1.000  S
  S7       1.0000 0.90578  0.90835  0.29083  Biso   1.000  S
  S8       1.0000 0.09422  0.40835  0.20917  Biso   1.000  S
  O1       1.0000 0.90273  0.21222  0.60523  Biso   1.000  O
  O2       1.0000 0.09727  0.71222  0.89477  Biso   1.000  O
  O3       1.0000 0.09727  0.78778  0.39477  Biso   1.000  O
  O4       1.0000 0.90273  0.28778  0.10523  Biso   1.000  O
  O5       1.0000 0.69969  0.23377  0.85552  Biso   1.000  O
  O6       1.0000 0.30031  0.73377  0.64448  Biso   1.000  O
  O7       1.0000 0.30031  0.76623  0.14448  Biso   1.000  O
  O8       1.0000 0.69969  0.26623  0.35552  Biso   1.000  O
  C1       1.0000 0.85968  0.26741  0.65925  Biso   1.000  C
  C2       1.0000 0.14032  0.76741  0.84075  Biso   1.000  C
  C3       1.0000 0.14032  0.73259  0.34075  Biso   1.000  C
  C4       1.0000 0.85968  0.23259  0.15925  Biso   1.000  C
  H1       1.0000 0.80370  0.30000  0.60760  Biso   1.000  H
  H2       1.0000 0.19630  0.80000  0.89240  Biso   1.000  H
  H3       1.0000 0.19630  0.70000  0.39240  Biso   1.000  H
  H4       1.0000 0.80370  0.20000  0.10760  Biso   1.000  H
  H5       1.0000 0.92780  0.29610  0.70520  Biso   1.000  H
  H6       1.0000 0.07220  0.79610  0.79480  Biso   1.000  H
  H7       1.0000 0.07220  0.70390  0.29480  Biso   1.000  H
  H8       1.0000 0.92780  0.20390  0.20520  Biso   1.000  H
  C5       1.0000 0.79525  0.22851  0.72520  Biso   1.000  C
  C6       1.0000 0.20475  0.72851  0.77480  Biso   1.000  C
  C7       1.0000 0.20475  0.77149  0.27480  Biso   1.000  C
  C8       1.0000 0.79525  0.27149  0.22520  Biso   1.000  C
  H9       1.0000 0.85190  0.19440  0.77320  Biso   1.000  H
  H10      1.0000 0.14810  0.69440  0.72680  Biso   1.000  H
  H11      1.0000 0.14810  0.80560  0.22680  Biso   1.000  H
  H12      1.0000 0.85190  0.30560  0.27320  Biso   1.000  H
  H13      1.0000 0.72780  0.20030  0.67750  Biso   1.000  H
  H14      1.0000 0.27220  0.70030  0.82250  Biso   1.000  H
  H15      1.0000 0.27220  0.79970  0.32250  Biso   1.000  H
  H16      1.0000 0.72780  0.29970  0.17750  Biso   1.000  H
  C9       1.0000 0.74610  0.27889  0.79085  Biso   1.000  C
  C10      1.0000 0.25390  0.77889  0.70915  Biso   1.000  C
  C11      1.0000 0.25390  0.72111  0.20915  Biso   1.000  C
  C12      1.0000 0.74610  0.22111  0.29085  Biso   1.000  C
  H17      1.0000 0.81090  0.31030  0.83550  Biso   1.000  H
  H18      1.0000 0.18910  0.81030  0.66450  Biso   1.000  H
  H19      1.0000 0.18910  0.68970  0.16450  Biso   1.000  H
  H20      1.0000 0.81090  0.18970  0.33550  Biso   1.000  H
  H21      1.0000 0.68140  0.30950  0.74430  Biso   1.000  H
  H22      1.0000 0.31860  0.80950  0.75570  Biso   1.000  H
  H23      1.0000 0.31860  0.69050  0.25570  Biso   1.000  H
  H24      1.0000 0.68140  0.19050  0.24430  Biso   1.000  H
  C13      1.0000 0.62409  0.26222  0.90521  Biso   1.000  C
  C14      1.0000 0.37591  0.76222  0.59479  Biso   1.000  C
  C15      1.0000 0.37591  0.73778  0.09479  Biso   1.000  C
  C16      1.0000 0.62409  0.23778  0.40521  Biso   1.000  C
  C17      1.0000 0.60890  0.33509  0.91834  Biso   1.000  C
  C18      1.0000 0.39110  0.83509  0.58166  Biso   1.000  C
  C19      1.0000 0.39110  0.66491  0.08166  Biso   1.000  C
  C20      1.0000 0.60890  0.16491  0.41834  Biso   1.000  C
  H25      1.0000 0.65200  0.36950  0.89150  Biso   1.000  H
  H26      1.0000 0.34800  0.86950  0.60850  Biso   1.000  H
  H27      1.0000 0.34800  0.63050  0.10850  Biso   1.000  H
  H28      1.0000 0.65200  0.13050  0.39150  Biso   1.000  H
  C21      1.0000 0.52910  0.35720  0.97165  Biso   1.000  C
  C22      1.0000 0.47090  0.85720  0.52835  Biso   1.000  C
  C23      1.0000 0.47090  0.64280  0.02835  Biso   1.000  C
  C24      1.0000 0.52910  0.14280  0.47165  Biso   1.000  C
  H29      1.0000 0.51820  0.40710  0.98120  Biso   1.000  H
  H30      1.0000 0.48180  0.90710  0.51880  Biso   1.000  H
  H31      1.0000 0.48180  0.59290  0.01880  Biso   1.000  H
  H32      1.0000 0.51820  0.09290  0.48120  Biso   1.000  H
  C25      1.0000 0.46590  0.30749  0.01057  Biso   1.000  C
  C26      1.0000 0.53410  0.80749  0.48943  Biso   1.000  C
  C27      1.0000 0.53410  0.69251  0.98943  Biso   1.000  C
  C28      1.0000 0.46590  0.19251  0.51057  Biso   1.000  C
  H33      1.0000 0.41130  0.32300  0.04620  Biso   1.000  H
  H34      1.0000 0.58870  0.82300  0.45380  Biso   1.000  H
  H35      1.0000 0.58870  0.67700  0.95380  Biso   1.000  H
  H36      1.0000 0.41130  0.17700  0.54620  Biso   1.000  H
  C29      1.0000 0.48267  0.23491  0.99719  Biso   1.000  C
  C30      1.0000 0.51733  0.73491  0.50281  Biso   1.000  C
  C31      1.0000 0.51733  0.76509  0.00281  Biso   1.000  C
  C32      1.0000 0.48267  0.26509  0.49719  Biso   1.000  C
  H37      1.0000 0.43950  0.20070  0.02430  Biso   1.000  H
  H38      1.0000 0.56050  0.70070  0.47570  Biso   1.000  H
  H39      1.0000 0.56050  0.79930  0.97570  Biso   1.000  H
  H40      1.0000 0.43950  0.29930  0.52430  Biso   1.000  H
  C33      1.0000 0.56134  0.21120  0.94498  Biso   1.000  C
  C34      1.0000 0.43866  0.71120  0.55502  Biso   1.000  C
  C35      1.0000 0.43866  0.78880  0.05502  Biso   1.000  C
  C36      1.0000 0.56134  0.28880  0.44498  Biso   1.000  C
  C37      1.0000 0.58299  0.13284  0.93256  Biso   1.000  C
  C38      1.0000 0.41701  0.63284  0.56744  Biso   1.000  C
  C39      1.0000 0.41701  0.86716  0.06744  Biso   1.000  C
  C40      1.0000 0.58299  0.36716  0.43256  Biso   1.000  C
  H41      1.0000 0.54820  0.10470  0.97920  Biso   1.000  H
  H42      1.0000 0.45180  0.60470  0.52080  Biso   1.000  H
  H43      1.0000 0.45180  0.89530  0.02080  Biso   1.000  H
  H44      1.0000 0.54820  0.39530  0.47920  Biso   1.000  H
  H45      1.0000 0.67100  0.12370  0.95570  Biso   1.000  H
  H46      1.0000 0.32900  0.62370  0.54430  Biso   1.000  H
  H47      1.0000 0.32900  0.87630  0.04430  Biso   1.000  H
  H48      1.0000 0.67100  0.37630  0.45570  Biso   1.000  H
  C41      1.0000 0.58095  0.01263  0.80801  Biso   1.000  C
  C42      1.0000 0.41905  0.51263  0.69199  Biso   1.000  C
  C43      1.0000 0.41905  0.98737  0.19199  Biso   1.000  C
  C44      1.0000 0.58095  0.48737  0.30801  Biso   1.000  C
  H49      1.0000 0.59070  0.99400  0.88020  Biso   1.000  H
  H50      1.0000 0.40930  0.49400  0.61980  Biso   1.000  H
  H51      1.0000 0.40930  0.00600  0.11980  Biso   1.000  H
  H52      1.0000 0.59070  0.50600  0.38020  Biso   1.000  H
  H53      1.0000 0.52490  0.98020  0.75610  Biso   1.000  H
  H54      1.0000 0.47510  0.48020  0.74390  Biso   1.000  H
  H55      1.0000 0.47510  0.01980  0.24390  Biso   1.000  H
  H56      1.0000 0.52490  0.51980  0.25610  Biso   1.000  H
  C45      1.0000 0.70170  0.01213  0.78933  Biso   1.000  C
  C46      1.0000 0.29830  0.51213  0.71067  Biso   1.000  C
  C47      1.0000 0.29830  0.98787  0.21067  Biso   1.000  C
  C48      1.0000 0.70170  0.48787  0.28933  Biso   1.000  C
  C49      1.0000 0.70707  0.00783  0.68601  Biso   1.000  C
  C50      1.0000 0.29293  0.50783  0.81399  Biso   1.000  C
  C51      1.0000 0.29293  0.99217  0.31399  Biso   1.000  C
  C52      1.0000 0.70707  0.49217  0.18601  Biso   1.000  C
  H57      1.0000 0.63430  0.00780  0.62770  Biso   1.000  H
  H58      1.0000 0.36570  0.50780  0.87230  Biso   1.000  H
  H59      1.0000 0.36570  0.99220  0.37230  Biso   1.000  H
  H60      1.0000 0.63430  0.49220  0.12770  Biso   1.000  H
  C53      1.0000 0.81729  0.00359  0.66682  Biso   1.000  C
  C54      1.0000 0.18271  0.50359  0.83318  Biso   1.000  C
  C55      1.0000 0.18271  0.99641  0.33318  Biso   1.000  C
  C56      1.0000 0.81729  0.49641  0.16682  Biso   1.000  C
  H61      1.0000 0.81900  0.00020  0.59580  Biso   1.000  H
  H62      1.0000 0.18100  0.50020  0.90420  Biso   1.000  H
  H63      1.0000 0.18100  0.99980  0.40420  Biso   1.000  H
  H64      1.0000 0.81900  0.49980  0.09580  Biso   1.000  H
  C57      1.0000 0.92452  0.00433  0.75052  Biso   1.000  C
  C58      1.0000 0.07548  0.50433  0.74948  Biso   1.000  C
  C59      1.0000 0.07548  0.99567  0.24948  Biso   1.000  C
  C60      1.0000 0.92452  0.49567  0.25052  Biso   1.000  C
  C61      1.0000 0.91914  0.00964  0.85343  Biso   1.000  C
  C62      1.0000 0.08086  0.50964  0.64657  Biso   1.000  C
  C63      1.0000 0.08086  0.99036  0.14657  Biso   1.000  C
  C64      1.0000 0.91914  0.49036  0.35343  Biso   1.000  C
  H65      1.0000 0.99200  0.01100  0.91150  Biso   1.000  H
  H66      1.0000 0.00800  0.51100  0.58850  Biso   1.000  H
  H67      1.0000 0.00800  0.98900  0.08850  Biso   1.000  H
  H68      1.0000 0.99200  0.48900  0.41150  Biso   1.000  H
  C65      1.0000 0.80910  0.01293  0.87303  Biso   1.000  C
  C66      1.0000 0.19090  0.51293  0.62697  Biso   1.000  C
  C67      1.0000 0.19090  0.98707  0.12697  Biso   1.000  C
  C68      1.0000 0.80910  0.48707  0.37303  Biso   1.000  C
  H69      1.0000 0.80750  0.01570  0.94410  Biso   1.000  H
  H70      1.0000 0.19250  0.51570  0.55590  Biso   1.000  H
  H71      1.0000 0.19250  0.98430  0.05590  Biso   1.000  H
  H72      1.0000 0.80750  0.48430  0.44410  Biso   1.000  H
  C69      1.0000 0.04467  0.00145  0.73108  Biso   1.000  C
  C70      1.0000 0.95533  0.50145  0.76892  Biso   1.000  C
  C71      1.0000 0.95533  0.99855  0.26892  Biso   1.000  C
  C72      1.0000 0.04467  0.49855  0.23108  Biso   1.000  C
  H73      1.0000 0.03780  0.97110  0.66800  Biso   1.000  H
  H74      1.0000 0.96220  0.47110  0.83200  Biso   1.000  H
  H75      1.0000 0.96220  0.02890  0.33200  Biso   1.000  H
  H76      1.0000 0.03780  0.52890  0.16800  Biso   1.000  H
  H77      1.0000 0.10540  0.97930  0.79320  Biso   1.000  H
  H78      1.0000 0.89460  0.47930  0.70680  Biso   1.000  H
  H79      1.0000 0.89460  0.02070  0.20680  Biso   1.000  H
  H80      1.0000 0.10540  0.52070  0.29320  Biso   1.000  H
  C73      1.0000 0.02582  0.09831  0.56495  Biso   1.000  C
  C74      1.0000 0.97418  0.59831  0.93505  Biso   1.000  C
  C75      1.0000 0.97418  0.90169  0.43505  Biso   1.000  C
  C76      1.0000 0.02582  0.40169  0.06495  Biso   1.000  C
  H81      1.0000 0.06330  0.06250  0.52990  Biso   1.000  H
  H82      1.0000 0.93670  0.56250  0.97010  Biso   1.000  H
  H83      1.0000 0.93670  0.93750  0.47010  Biso   1.000  H
  H84      1.0000 0.06330  0.43750  0.02990  Biso   1.000  H
  H85      1.0000 0.93850  0.08740  0.54540  Biso   1.000  H
  H86      1.0000 0.06150  0.58740  0.95460  Biso   1.000  H
  H87      1.0000 0.06150  0.91260  0.45460  Biso   1.000  H
  H88      1.0000 0.93850  0.41260  0.04540  Biso   1.000  H
  C77      1.0000 0.04245  0.17224  0.52629  Biso   1.000  C
  C78      1.0000 0.95755  0.67224  0.97371  Biso   1.000  C
  C79      1.0000 0.95755  0.82776  0.47371  Biso   1.000  C
  C80      1.0000 0.04245  0.32776  0.02629  Biso   1.000  C
  C81      1.0000 0.12004  0.18485  0.46766  Biso   1.000  C
  C82      1.0000 0.87996  0.68485  0.03234  Biso   1.000  C
  C83      1.0000 0.87996  0.81515  0.53234  Biso   1.000  C
  C84      1.0000 0.12004  0.31515  0.96766  Biso   1.000  C
  H89      1.0000 0.16290  0.14580  0.45050  Biso   1.000  H
  H90      1.0000 0.83710  0.64580  0.04950  Biso   1.000  H
  H91      1.0000 0.83710  0.85420  0.54950  Biso   1.000  H
  H92      1.0000 0.16290  0.35420  0.95050  Biso   1.000  H
  C85      1.0000 0.13600  0.25322  0.43386  Biso   1.000  C
  C86      1.0000 0.86400  0.75322  0.06614  Biso   1.000  C
  C87      1.0000 0.86400  0.74678  0.56614  Biso   1.000  C
  C88      1.0000 0.13600  0.24678  0.93386  Biso   1.000  C
  H93      1.0000 0.18890  0.26110  0.39330  Biso   1.000  H
  H94      1.0000 0.81110  0.76110  0.10670  Biso   1.000  H
  H95      1.0000 0.81110  0.73890  0.60670  Biso   1.000  H
  H96      1.0000 0.18890  0.23890  0.89330  Biso   1.000  H
  C89      1.0000 0.07440  0.30990  0.45959  Biso   1.000  C
  C90      1.0000 0.92560  0.80990  0.04041  Biso   1.000  C
  C91      1.0000 0.92560  0.69010  0.54041  Biso   1.000  C
  C92      1.0000 0.07440  0.19010  0.95959  Biso   1.000  C
  H97      1.0000 0.08600  0.35710  0.43710  Biso   1.000  H
  H98      1.0000 0.91400  0.85710  0.06290  Biso   1.000  H
  H99      1.0000 0.91400  0.64290  0.56290  Biso   1.000  H
  H100     1.0000 0.08600  0.14290  0.93710  Biso   1.000  H
  C93      1.0000 0.99564  0.29932  0.51782  Biso   1.000  C
  C94      1.0000 0.00436  0.79932  0.98218  Biso   1.000  C
  C95      1.0000 0.00436  0.70068  0.48218  Biso   1.000  C
  C96      1.0000 0.99564  0.20068  0.01782  Biso   1.000  C
  H101     1.0000 0.95360  0.33880  0.53510  Biso   1.000  H
  H102     1.0000 0.04640  0.83880  0.96490  Biso   1.000  H
  H103     1.0000 0.04640  0.66120  0.46490  Biso   1.000  H
  H104     1.0000 0.95360  0.16120  0.03510  Biso   1.000  H
  C97      1.0000 0.97927  0.23019  0.55036  Biso   1.000  C
  C98      1.0000 0.02073  0.73019  0.94964  Biso   1.000  C
  C99      1.0000 0.02073  0.76981  0.44964  Biso   1.000  C
  C100     1.0000 0.97927  0.26981  0.05036  Biso   1.000  C
  N1       1.0000 0.29745  0.20188  0.72607  Biso   1.000  N
  N2       1.0000 0.70255  0.70188  0.77393  Biso   1.000  N
  N3       1.0000 0.70255  0.79812  0.27393  Biso   1.000  N
  N4       1.0000 0.29745  0.29812  0.22607  Biso   1.000  N
  C101     1.0000 0.30001  0.26228  0.71571  Biso   1.000  C
  C102     1.0000 0.69999  0.76228  0.78429  Biso   1.000  C
  C103     1.0000 0.69999  0.73772  0.28429  Biso   1.000  C
  C104     1.0000 0.30001  0.23772  0.21571  Biso   1.000  C
  C105     1.0000 0.30390  0.34005  0.70290  Biso   1.000  C
  C106     1.0000 0.69610  0.84005  0.79710  Biso   1.000  C
  C107     1.0000 0.69610  0.65995  0.29710  Biso   1.000  C
  C108     1.0000 0.30390  0.15995  0.20290  Biso   1.000  C
