data_image0
_cell_length_a       10.9008
_cell_length_b       24.1824
_cell_length_c       20.8565
_cell_angle_alpha    90
_cell_angle_beta     91.678
_cell_angle_gamma    90

_symmetry_space_group_name_H-M    "P 1"
_symmetry_int_tables_number       1

loop_
  _symmetry_equiv_pos_as_xyz
  'x, y, z'

loop_
  _atom_site_label
  _atom_site_occupancy
  _atom_site_fract_x
  _atom_site_fract_y
  _atom_site_fract_z
  _atom_site_thermal_displace_type
  _atom_site_B_iso_or_equiv
  _atom_site_type_symbol
  Pb1      1.0000 0.98332  0.56728  0.56128  Biso   1.000  Pb
  Pb2      1.0000 0.01668  0.06728  0.93872  Biso   1.000  Pb
  Pb3      1.0000 0.01668  0.43272  0.43872  Biso   1.000  Pb
  Pb4      1.0000 0.98332  0.93272  0.06128  Biso   1.000  Pb
  Pb5      1.0000 0.65964  0.54694  0.47726  Biso   1.000  Pb
  Pb6      1.0000 0.34036  0.04694  0.02274  Biso   1.000  Pb
  Pb7      1.0000 0.34036  0.45306  0.52274  Biso   1.000  Pb
  Pb8      1.0000 0.65964  0.95306  0.97726  Biso   1.000  Pb
  Cu1      1.0000 0.71625  0.05036  0.49769  Biso   1.000  Cu
  Cu2      1.0000 0.28375  0.55036  0.00231  Biso   1.000  Cu
  Cu3      1.0000 0.28375  0.94964  0.50231  Biso   1.000  Cu
  Cu4      1.0000 0.71625  0.44964  0.99769  Biso   1.000  Cu
  O1       1.0000 0.79560  0.64380  0.51970  Biso   1.000  O
  O2       1.0000 0.20440  0.14380  0.98030  Biso   1.000  O
  O3       1.0000 0.20440  0.35620  0.48030  Biso   1.000  O
  O4       1.0000 0.79560  0.85620  0.01970  Biso   1.000  O
  O5       1.0000 0.98110  0.66310  0.55830  Biso   1.000  O
  O6       1.0000 0.01890  0.16310  0.94170  Biso   1.000  O
  O7       1.0000 0.01890  0.33690  0.44170  Biso   1.000  O
  O8       1.0000 0.98110  0.83690  0.05830  Biso   1.000  O
  O9       1.0000 0.27900  0.04330  0.13380  Biso   1.000  O
  O10      1.0000 0.72100  0.54330  0.36620  Biso   1.000  O
  O11      1.0000 0.72100  0.95670  0.86620  Biso   1.000  O
  O12      1.0000 0.27900  0.45670  0.63380  Biso   1.000  O
  O13      1.0000 0.10660  0.04600  0.07810  Biso   1.000  O
  O14      1.0000 0.89340  0.54600  0.42190  Biso   1.000  O
  O15      1.0000 0.89340  0.95400  0.92190  Biso   1.000  O
  O16      1.0000 0.10660  0.45400  0.57810  Biso   1.000  O
  O17      1.0000 0.76220  0.45400  0.48840  Biso   1.000  O
  O18      1.0000 0.23780  0.95400  0.01160  Biso   1.000  O
  O19      1.0000 0.23780  0.54600  0.51160  Biso   1.000  O
  O20      1.0000 0.76220  0.04600  0.98840  Biso   1.000  O
  O21      1.0000 0.56550  0.45440  0.45940  Biso   1.000  O
  O22      1.0000 0.43450  0.95440  0.04060  Biso   1.000  O
  O23      1.0000 0.43450  0.54560  0.54060  Biso   1.000  O
  O24      1.0000 0.56550  0.04560  0.95940  Biso   1.000  O
  O25      1.0000 0.12420  0.08040  0.84440  Biso   1.000  O
  O26      1.0000 0.87580  0.58040  0.65560  Biso   1.000  O
  O27      1.0000 0.87580  0.91960  0.15560  Biso   1.000  O
  O28      1.0000 0.12420  0.41960  0.34440  Biso   1.000  O
  O29      1.0000 0.25960  0.03200  0.90070  Biso   1.000  O
  O30      1.0000 0.74040  0.53200  0.59930  Biso   1.000  O
  O31      1.0000 0.74040  0.96800  0.09930  Biso   1.000  O
  O32      1.0000 0.25960  0.46800  0.40070  Biso   1.000  O
  O33      1.0000 0.14210  0.58810  0.63950  Biso   1.000  O
  O34      1.0000 0.85790  0.08810  0.86050  Biso   1.000  O
  O35      1.0000 0.85790  0.41190  0.36050  Biso   1.000  O
  O36      1.0000 0.14210  0.91190  0.13950  Biso   1.000  O
  O37      1.0000 0.48110  0.59130  0.39000  Biso   1.000  O
  O38      1.0000 0.51890  0.09130  0.11000  Biso   1.000  O
  O39      1.0000 0.51890  0.40870  0.61000  Biso   1.000  O
  O40      1.0000 0.48110  0.90870  0.89000  Biso   1.000  O
  N1       1.0000 0.82520  0.99550  0.45580  Biso   1.000  N
  N2       1.0000 0.17480  0.49550  0.04420  Biso   1.000  N
  N3       1.0000 0.17480  0.00450  0.54420  Biso   1.000  N
  N4       1.0000 0.82520  0.50450  0.95580  Biso   1.000  N
  N5       1.0000 0.76290  0.10710  0.43350  Biso   1.000  N
  N6       1.0000 0.23710  0.60710  0.06650  Biso   1.000  N
  N7       1.0000 0.23710  0.89290  0.56650  Biso   1.000  N
  N8       1.0000 0.76290  0.39290  0.93350  Biso   1.000  N
  N9       1.0000 0.62410  0.10730  0.54570  Biso   1.000  N
  N10      1.0000 0.37590  0.60730  0.95430  Biso   1.000  N
  N11      1.0000 0.37590  0.89270  0.45430  Biso   1.000  N
  N12      1.0000 0.62410  0.39270  0.04570  Biso   1.000  N
  N13      1.0000 0.65640  0.99170  0.55660  Biso   1.000  N
  N14      1.0000 0.34360  0.49170  0.94340  Biso   1.000  N
  N15      1.0000 0.34360  0.00830  0.44340  Biso   1.000  N
  N16      1.0000 0.65640  0.50830  0.05660  Biso   1.000  N
  N17      1.0000 0.20180  0.63150  0.73060  Biso   1.000  N
  N18      1.0000 0.79820  0.13150  0.76940  Biso   1.000  N
  N19      1.0000 0.79820  0.36850  0.26940  Biso   1.000  N
  N20      1.0000 0.20180  0.86850  0.23060  Biso   1.000  N
  C1       1.0000 0.87620  0.67640  0.53700  Biso   1.000  C
  C2       1.0000 0.12380  0.17640  0.96300  Biso   1.000  C
  C3       1.0000 0.12380  0.32360  0.46300  Biso   1.000  C
  C4       1.0000 0.87620  0.82360  0.03700  Biso   1.000  C
  C5       1.0000 0.84730  0.73800  0.53270  Biso   1.000  C
  C6       1.0000 0.15270  0.23800  0.96730  Biso   1.000  C
  C7       1.0000 0.15270  0.26200  0.46730  Biso   1.000  C
  C8       1.0000 0.84730  0.76200  0.03270  Biso   1.000  C
  C9       1.0000 0.93550  0.77600  0.55110  Biso   1.000  C
  C10      1.0000 0.06450  0.27600  0.94890  Biso   1.000  C
  C11      1.0000 0.06450  0.22400  0.44890  Biso   1.000  C
  C12      1.0000 0.93550  0.72400  0.05110  Biso   1.000  C
  H1       1.0000 0.01150  0.76400  0.56720  Biso   1.000  H
  H2       1.0000 0.98850  0.26400  0.93280  Biso   1.000  H
  H3       1.0000 0.98850  0.23600  0.43280  Biso   1.000  H
  H4       1.0000 0.01150  0.73600  0.06720  Biso   1.000  H
  C13      1.0000 0.91120  0.83210  0.54570  Biso   1.000  C
  C14      1.0000 0.08880  0.33210  0.95430  Biso   1.000  C
  C15      1.0000 0.08880  0.16790  0.45430  Biso   1.000  C
  C16      1.0000 0.91120  0.66790  0.04570  Biso   1.000  C
  H5       1.0000 0.97280  0.85740  0.55640  Biso   1.000  H
  H6       1.0000 0.02720  0.35740  0.94360  Biso   1.000  H
  H7       1.0000 0.02720  0.14260  0.44360  Biso   1.000  H
  H8       1.0000 0.97280  0.64260  0.05640  Biso   1.000  H
  C17      1.0000 0.79810  0.85140  0.52490  Biso   1.000  C
  C18      1.0000 0.20190  0.35140  0.97510  Biso   1.000  C
  C19      1.0000 0.20190  0.14860  0.47510  Biso   1.000  C
  C20      1.0000 0.79810  0.64860  0.02490  Biso   1.000  C
  C21      1.0000 0.70960  0.81260  0.50690  Biso   1.000  C
  C22      1.0000 0.29040  0.31260  0.99310  Biso   1.000  C
  C23      1.0000 0.29040  0.18740  0.49310  Biso   1.000  C
  C24      1.0000 0.70960  0.68740  0.00690  Biso   1.000  C
  H9       1.0000 0.63280  0.82450  0.49200  Biso   1.000  H
  H10      1.0000 0.36720  0.32450  0.00800  Biso   1.000  H
  H11      1.0000 0.36720  0.17550  0.50800  Biso   1.000  H
  H12      1.0000 0.63280  0.67550  0.99200  Biso   1.000  H
  C25      1.0000 0.73390  0.75680  0.51070  Biso   1.000  C
  C26      1.0000 0.26610  0.25680  0.98930  Biso   1.000  C
  C27      1.0000 0.26610  0.24320  0.48930  Biso   1.000  C
  C28      1.0000 0.73390  0.74320  0.01070  Biso   1.000  C
  H13      1.0000 0.67340  0.73150  0.49840  Biso   1.000  H
  H14      1.0000 0.32660  0.23150  0.00160  Biso   1.000  H
  H15      1.0000 0.32660  0.26850  0.50160  Biso   1.000  H
  H16      1.0000 0.67340  0.76850  0.99840  Biso   1.000  H
  C29      1.0000 0.77390  0.91250  0.51740  Biso   1.000  C
  C30      1.0000 0.22610  0.41250  0.98260  Biso   1.000  C
  C31      1.0000 0.22610  0.08750  0.48260  Biso   1.000  C
  C32      1.0000 0.77390  0.58750  0.01740  Biso   1.000  C
  C33      1.0000 0.84340  0.94200  0.47330  Biso   1.000  C
  C34      1.0000 0.15660  0.44200  0.02670  Biso   1.000  C
  C35      1.0000 0.15660  0.05800  0.52670  Biso   1.000  C
  C36      1.0000 0.84340  0.55800  0.97330  Biso   1.000  C
  C37      1.0000 0.93840  0.91840  0.43390  Biso   1.000  C
  C38      1.0000 0.06160  0.41840  0.06610  Biso   1.000  C
  C39      1.0000 0.06160  0.08160  0.56610  Biso   1.000  C
  C40      1.0000 0.93840  0.58160  0.93390  Biso   1.000  C
  H17      1.0000 0.97070  0.88290  0.43700  Biso   1.000  H
  H18      1.0000 0.02930  0.38290  0.06300  Biso   1.000  H
  H19      1.0000 0.02930  0.11710  0.56300  Biso   1.000  H
  H20      1.0000 0.97070  0.61710  0.93700  Biso   1.000  H
  C41      1.0000 0.96980  0.95750  0.39280  Biso   1.000  C
  C42      1.0000 0.03020  0.45750  0.10720  Biso   1.000  C
  C43      1.0000 0.03020  0.04250  0.60720  Biso   1.000  C
  C44      1.0000 0.96980  0.54250  0.89280  Biso   1.000  C
  H21      1.0000 0.02890  0.95420  0.36170  Biso   1.000  H
  H22      1.0000 0.97110  0.45420  0.13830  Biso   1.000  H
  H23      1.0000 0.97110  0.04580  0.63830  Biso   1.000  H
  H24      1.0000 0.02890  0.54580  0.86170  Biso   1.000  H
  C45      1.0000 0.89900  0.00490  0.40410  Biso   1.000  C
  C46      1.0000 0.10100  0.50490  0.09590  Biso   1.000  C
  C47      1.0000 0.10100  0.99510  0.59590  Biso   1.000  C
  C48      1.0000 0.89900  0.49510  0.90410  Biso   1.000  C
  C49      1.0000 0.89560  0.05130  0.36500  Biso   1.000  C
  C50      1.0000 0.10440  0.55130  0.13500  Biso   1.000  C
  C51      1.0000 0.10440  0.94870  0.63500  Biso   1.000  C
  C52      1.0000 0.89560  0.44870  0.86500  Biso   1.000  C
  C53      1.0000 0.96680  0.05070  0.30470  Biso   1.000  C
  C54      1.0000 0.03320  0.55070  0.19530  Biso   1.000  C
  C55      1.0000 0.03320  0.94930  0.69530  Biso   1.000  C
  C56      1.0000 0.96680  0.44930  0.80470  Biso   1.000  C
  C57      1.0000 0.09540  0.04940  0.30670  Biso   1.000  C
  C58      1.0000 0.90460  0.54940  0.19330  Biso   1.000  C
  C59      1.0000 0.90460  0.95060  0.69330  Biso   1.000  C
  C60      1.0000 0.09540  0.45060  0.80670  Biso   1.000  C
  H25      1.0000 0.13870  0.04970  0.34580  Biso   1.000  H
  H26      1.0000 0.86130  0.54970  0.15420  Biso   1.000  H
  H27      1.0000 0.86130  0.95030  0.65420  Biso   1.000  H
  H28      1.0000 0.13870  0.45030  0.84580  Biso   1.000  H
  C61      1.0000 0.15630  0.04760  0.25020  Biso   1.000  C
  C62      1.0000 0.84370  0.54760  0.24980  Biso   1.000  C
  C63      1.0000 0.84370  0.95240  0.74980  Biso   1.000  C
  C64      1.0000 0.15630  0.45240  0.75020  Biso   1.000  C
  H29      1.0000 0.24160  0.04630  0.25150  Biso   1.000  H
  H30      1.0000 0.75840  0.54630  0.24850  Biso   1.000  H
  H31      1.0000 0.75840  0.95370  0.74850  Biso   1.000  H
  H32      1.0000 0.24160  0.45370  0.75150  Biso   1.000  H
  C65      1.0000 0.09410  0.04780  0.19100  Biso   1.000  C
  C66      1.0000 0.90590  0.54780  0.30900  Biso   1.000  C
  C67      1.0000 0.90590  0.95220  0.80900  Biso   1.000  C
  C68      1.0000 0.09410  0.45220  0.69100  Biso   1.000  C
  C69      1.0000 0.16260  0.04600  0.12990  Biso   1.000  C
  C70      1.0000 0.83740  0.54600  0.37010  Biso   1.000  C
  C71      1.0000 0.83740  0.95400  0.87010  Biso   1.000  C
  C72      1.0000 0.16260  0.45400  0.62990  Biso   1.000  C
  C73      1.0000 0.96930  0.05100  0.18990  Biso   1.000  C
  C74      1.0000 0.03070  0.55100  0.31010  Biso   1.000  C
  C75      1.0000 0.03070  0.94900  0.81010  Biso   1.000  C
  C76      1.0000 0.96930  0.44900  0.68990  Biso   1.000  C
  H33      1.0000 0.92590  0.05330  0.15100  Biso   1.000  H
  H34      1.0000 0.07410  0.55330  0.34900  Biso   1.000  H
  H35      1.0000 0.07410  0.94670  0.84900  Biso   1.000  H
  H36      1.0000 0.92590  0.44670  0.65100  Biso   1.000  H
  C77      1.0000 0.90690  0.05090  0.24710  Biso   1.000  C
  C78      1.0000 0.09310  0.55090  0.25290  Biso   1.000  C
  C79      1.0000 0.09310  0.94910  0.75290  Biso   1.000  C
  C80      1.0000 0.90690  0.44910  0.74710  Biso   1.000  C
  H37      1.0000 0.82150  0.05100  0.24560  Biso   1.000  H
  H38      1.0000 0.17850  0.55100  0.25440  Biso   1.000  H
  H39      1.0000 0.17850  0.94900  0.75440  Biso   1.000  H
  H40      1.0000 0.82150  0.44900  0.74560  Biso   1.000  H
  C81      1.0000 0.82940  0.09880  0.38000  Biso   1.000  C
  C82      1.0000 0.17060  0.59880  0.12000  Biso   1.000  C
  C83      1.0000 0.17060  0.90120  0.62000  Biso   1.000  C
  C84      1.0000 0.82940  0.40120  0.88000  Biso   1.000  C
  C85      1.0000 0.83350  0.14940  0.34420  Biso   1.000  C
  C86      1.0000 0.16650  0.64940  0.15580  Biso   1.000  C
  C87      1.0000 0.16650  0.85060  0.65580  Biso   1.000  C
  C88      1.0000 0.83350  0.35060  0.84420  Biso   1.000  C
  H41      1.0000 0.87040  0.15440  0.30490  Biso   1.000  H
  H42      1.0000 0.12960  0.65440  0.19510  Biso   1.000  H
  H43      1.0000 0.12960  0.84560  0.69510  Biso   1.000  H
  H44      1.0000 0.87040  0.34560  0.80490  Biso   1.000  H
  C89      1.0000 0.77450  0.18850  0.37750  Biso   1.000  C
  C90      1.0000 0.22550  0.68850  0.12250  Biso   1.000  C
  C91      1.0000 0.22550  0.81150  0.62250  Biso   1.000  C
  C92      1.0000 0.77450  0.31150  0.87750  Biso   1.000  C
  H45      1.0000 0.76470  0.22550  0.36640  Biso   1.000  H
  H46      1.0000 0.23530  0.72550  0.13360  Biso   1.000  H
  H47      1.0000 0.23530  0.77450  0.63360  Biso   1.000  H
  H48      1.0000 0.76470  0.27450  0.86640  Biso   1.000  H
  C93      1.0000 0.73030  0.16170  0.43300  Biso   1.000  C
  C94      1.0000 0.26970  0.66170  0.06700  Biso   1.000  C
  C95      1.0000 0.26970  0.83830  0.56700  Biso   1.000  C
  C96      1.0000 0.73030  0.33830  0.93300  Biso   1.000  C
  C97      1.0000 0.67490  0.19030  0.48370  Biso   1.000  C
  C98      1.0000 0.32510  0.69030  0.01630  Biso   1.000  C
  C99      1.0000 0.32510  0.80970  0.51630  Biso   1.000  C
  C100     1.0000 0.67490  0.30970  0.98370  Biso   1.000  C
  C101     1.0000 0.66850  0.25120  0.47980  Biso   1.000  C
  C102     1.0000 0.33150  0.75120  0.02020  Biso   1.000  C
  C103     1.0000 0.33150  0.74880  0.52020  Biso   1.000  C
  C104     1.0000 0.66850  0.24880  0.97980  Biso   1.000  C
  C105     1.0000 0.75910  0.28210  0.50670  Biso   1.000  C
  C106     1.0000 0.24090  0.78210  0.99330  Biso   1.000  C
  C107     1.0000 0.24090  0.71790  0.49330  Biso   1.000  C
  C108     1.0000 0.75910  0.21790  0.00670  Biso   1.000  C
  H49      1.0000 0.82470  0.26410  0.52720  Biso   1.000  H
  H50      1.0000 0.17530  0.76410  0.97280  Biso   1.000  H
  H51      1.0000 0.17530  0.73590  0.47280  Biso   1.000  H
  H52      1.0000 0.82470  0.23590  0.02720  Biso   1.000  H
  C109     1.0000 0.75920  0.33880  0.50530  Biso   1.000  C
  C110     1.0000 0.24080  0.83880  0.99470  Biso   1.000  C
  C111     1.0000 0.24080  0.66120  0.49470  Biso   1.000  C
  C112     1.0000 0.75920  0.16120  0.00530  Biso   1.000  C
  H53      1.0000 0.82470  0.35820  0.52410  Biso   1.000  H
  H54      1.0000 0.17530  0.85820  0.97590  Biso   1.000  H
  H55      1.0000 0.17530  0.64180  0.47590  Biso   1.000  H
  H56      1.0000 0.82470  0.14180  0.02410  Biso   1.000  H
  C113     1.0000 0.66330  0.36750  0.47630  Biso   1.000  C
  C114     1.0000 0.33670  0.86750  0.02370  Biso   1.000  C
  C115     1.0000 0.33670  0.63250  0.52370  Biso   1.000  C
  C116     1.0000 0.66330  0.13250  0.97630  Biso   1.000  C
  C117     1.0000 0.66300  0.42900  0.47470  Biso   1.000  C
  C118     1.0000 0.33700  0.92900  0.02530  Biso   1.000  C
  C119     1.0000 0.33700  0.57100  0.52530  Biso   1.000  C
  C120     1.0000 0.66300  0.07100  0.97470  Biso   1.000  C
  C121     1.0000 0.56640  0.33700  0.44840  Biso   1.000  C
  C122     1.0000 0.43360  0.83700  0.05160  Biso   1.000  C
  C123     1.0000 0.43360  0.66300  0.55160  Biso   1.000  C
  C124     1.0000 0.56640  0.16300  0.94840  Biso   1.000  C
  H57      1.0000 0.49930  0.35470  0.42900  Biso   1.000  H
  H58      1.0000 0.50070  0.85470  0.07100  Biso   1.000  H
  H59      1.0000 0.50070  0.64530  0.57100  Biso   1.000  H
  H60      1.0000 0.49930  0.14530  0.92900  Biso   1.000  H
  C125     1.0000 0.57300  0.27910  0.45020  Biso   1.000  C
  C126     1.0000 0.42700  0.77910  0.04980  Biso   1.000  C
  C127     1.0000 0.42700  0.72090  0.54980  Biso   1.000  C
  C128     1.0000 0.57300  0.22090  0.95020  Biso   1.000  C
  H61      1.0000 0.51000  0.25880  0.43060  Biso   1.000  H
  H62      1.0000 0.49000  0.75880  0.06940  Biso   1.000  H
  H63      1.0000 0.49000  0.74120  0.56940  Biso   1.000  H
  H64      1.0000 0.51000  0.24120  0.93060  Biso   1.000  H
  C129     1.0000 0.62520  0.16430  0.53550  Biso   1.000  C
  C130     1.0000 0.37480  0.66430  0.96450  Biso   1.000  C
  C131     1.0000 0.37480  0.83570  0.46450  Biso   1.000  C
  C132     1.0000 0.62520  0.33570  0.03550  Biso   1.000  C
  C133     1.0000 0.56390  0.19110  0.58650  Biso   1.000  C
  C134     1.0000 0.43610  0.69110  0.91350  Biso   1.000  C
  C135     1.0000 0.43610  0.80890  0.41350  Biso   1.000  C
  C136     1.0000 0.56390  0.30890  0.08650  Biso   1.000  C
  H65      1.0000 0.55510  0.22910  0.59180  Biso   1.000  H
  H66      1.0000 0.44490  0.72910  0.90820  Biso   1.000  H
  H67      1.0000 0.44490  0.77090  0.40820  Biso   1.000  H
  H68      1.0000 0.55510  0.27090  0.09180  Biso   1.000  H
  C137     1.0000 0.52150  0.15210  0.62530  Biso   1.000  C
  C138     1.0000 0.47850  0.65210  0.87470  Biso   1.000  C
  C139     1.0000 0.47850  0.84790  0.37470  Biso   1.000  C
  C140     1.0000 0.52150  0.34790  0.12530  Biso   1.000  C
  H69      1.0000 0.47630  0.15800  0.66180  Biso   1.000  H
  H70      1.0000 0.52370  0.65800  0.83820  Biso   1.000  H
  H71      1.0000 0.52370  0.84200  0.33820  Biso   1.000  H
  H72      1.0000 0.47630  0.34200  0.16180  Biso   1.000  H
  C141     1.0000 0.55790  0.09920  0.60060  Biso   1.000  C
  C142     1.0000 0.44210  0.59920  0.89940  Biso   1.000  C
  C143     1.0000 0.44210  0.90080  0.39940  Biso   1.000  C
  C144     1.0000 0.55790  0.40080  0.10060  Biso   1.000  C
  C145     1.0000 0.52960  0.04830  0.62740  Biso   1.000  C
  C146     1.0000 0.47040  0.54830  0.87260  Biso   1.000  C
  C147     1.0000 0.47040  0.95170  0.37260  Biso   1.000  C
  C148     1.0000 0.52960  0.45170  0.12740  Biso   1.000  C
  C149     1.0000 0.45080  0.04900  0.68480  Biso   1.000  C
  C150     1.0000 0.54920  0.54900  0.81520  Biso   1.000  C
  C151     1.0000 0.54920  0.95100  0.31520  Biso   1.000  C
  C152     1.0000 0.45080  0.45100  0.18480  Biso   1.000  C
  C153     1.0000 0.33080  0.06730  0.68060  Biso   1.000  C
  C154     1.0000 0.66920  0.56730  0.81940  Biso   1.000  C
  C155     1.0000 0.66920  0.93270  0.31940  Biso   1.000  C
  C156     1.0000 0.33080  0.43270  0.18060  Biso   1.000  C
  H73      1.0000 0.29670  0.07810  0.64120  Biso   1.000  H
  H74      1.0000 0.70330  0.57810  0.85880  Biso   1.000  H
  H75      1.0000 0.70330  0.92190  0.35880  Biso   1.000  H
  H76      1.0000 0.29670  0.42190  0.14120  Biso   1.000  H
  C157     1.0000 0.26180  0.06960  0.73440  Biso   1.000  C
  C158     1.0000 0.73820  0.56960  0.76560  Biso   1.000  C
  C159     1.0000 0.73820  0.93040  0.26560  Biso   1.000  C
  C160     1.0000 0.26180  0.43040  0.23440  Biso   1.000  C
  H77      1.0000 0.18170  0.08270  0.73070  Biso   1.000  H
  H78      1.0000 0.81830  0.58270  0.76930  Biso   1.000  H
  H79      1.0000 0.81830  0.91730  0.26930  Biso   1.000  H
  H80      1.0000 0.18170  0.41730  0.23070  Biso   1.000  H
  C161     1.0000 0.30650  0.05350  0.79280  Biso   1.000  C
  C162     1.0000 0.69350  0.55350  0.70720  Biso   1.000  C
  C163     1.0000 0.69350  0.94650  0.20720  Biso   1.000  C
  C164     1.0000 0.30650  0.44650  0.29280  Biso   1.000  C
  C165     1.0000 0.22540  0.05550  0.85110  Biso   1.000  C
  C166     1.0000 0.77460  0.55550  0.64890  Biso   1.000  C
  C167     1.0000 0.77460  0.94450  0.14890  Biso   1.000  C
  C168     1.0000 0.22540  0.44450  0.35110  Biso   1.000  C
  C169     1.0000 0.42580  0.03510  0.79860  Biso   1.000  C
  C170     1.0000 0.57420  0.53510  0.70140  Biso   1.000  C
  C171     1.0000 0.57420  0.96490  0.20140  Biso   1.000  C
  C172     1.0000 0.42580  0.46490  0.29860  Biso   1.000  C
  H81      1.0000 0.45930  0.02460  0.83830  Biso   1.000  H
  H82      1.0000 0.54070  0.52460  0.66170  Biso   1.000  H
  H83      1.0000 0.54070  0.97540  0.16170  Biso   1.000  H
  H84      1.0000 0.45930  0.47540  0.33830  Biso   1.000  H
  C173     1.0000 0.49490  0.03280  0.74370  Biso   1.000  C
  C174     1.0000 0.50510  0.53280  0.75630  Biso   1.000  C
  C175     1.0000 0.50510  0.96720  0.25630  Biso   1.000  C
  C176     1.0000 0.49490  0.46720  0.24370  Biso   1.000  C
  H85      1.0000 0.57500  0.01960  0.74730  Biso   1.000  H
  H86      1.0000 0.42500  0.51960  0.75270  Biso   1.000  H
  H87      1.0000 0.42500  0.98040  0.25270  Biso   1.000  H
  H88      1.0000 0.57500  0.48040  0.24730  Biso   1.000  H
  C177     1.0000 0.57070  0.99830  0.60280  Biso   1.000  C
  C178     1.0000 0.42930  0.49830  0.89720  Biso   1.000  C
  C179     1.0000 0.42930  0.00170  0.39720  Biso   1.000  C
  C180     1.0000 0.57070  0.50170  0.10280  Biso   1.000  C
  C181     1.0000 0.53790  0.94540  0.62820  Biso   1.000  C
  C182     1.0000 0.46210  0.44540  0.87180  Biso   1.000  C
  C183     1.0000 0.46210  0.05460  0.37180  Biso   1.000  C
  C184     1.0000 0.53790  0.55460  0.12820  Biso   1.000  C
  H89      1.0000 0.48220  0.93840  0.66020  Biso   1.000  H
  H90      1.0000 0.51780  0.43840  0.83980  Biso   1.000  H
  H91      1.0000 0.51780  0.06160  0.33980  Biso   1.000  H
  H92      1.0000 0.48220  0.56160  0.16020  Biso   1.000  H
  C185     1.0000 0.60430  0.90820  0.59630  Biso   1.000  C
  C186     1.0000 0.39570  0.40820  0.90370  Biso   1.000  C
  C187     1.0000 0.39570  0.09180  0.40370  Biso   1.000  C
  C188     1.0000 0.60430  0.59180  0.09630  Biso   1.000  C
  H93      1.0000 0.60020  0.87010  0.60140  Biso   1.000  H
  H94      1.0000 0.39980  0.37010  0.89860  Biso   1.000  H
  H95      1.0000 0.39980  0.12990  0.39860  Biso   1.000  H
  H96      1.0000 0.60020  0.62990  0.10140  Biso   1.000  H
  C189     1.0000 0.68180  0.93650  0.55370  Biso   1.000  C
  C190     1.0000 0.31820  0.43650  0.94630  Biso   1.000  C
  C191     1.0000 0.31820  0.06350  0.44630  Biso   1.000  C
  C192     1.0000 0.68180  0.56350  0.05370  Biso   1.000  C
  C193     1.0000 0.12920  0.59770  0.69270  Biso   1.000  C
  C194     1.0000 0.87080  0.09770  0.80730  Biso   1.000  C
  C195     1.0000 0.87080  0.40230  0.30730  Biso   1.000  C
  C196     1.0000 0.12920  0.90230  0.19270  Biso   1.000  C
  H97      1.0000 0.06300  0.58090  0.71210  Biso   1.000  H
  H98      1.0000 0.93700  0.08090  0.78790  Biso   1.000  H
  H99      1.0000 0.93700  0.41910  0.28790  Biso   1.000  H
  H100     1.0000 0.06300  0.91910  0.21210  Biso   1.000  H
  C197     1.0000 0.30390  0.65800  0.70920  Biso   1.000  C
  C198     1.0000 0.69610  0.15800  0.79080  Biso   1.000  C
  C199     1.0000 0.69610  0.34200  0.29080  Biso   1.000  C
  C200     1.0000 0.30390  0.84200  0.20920  Biso   1.000  C
  H101     1.0000 0.31540  0.64870  0.66500  Biso   1.000  H
  H102     1.0000 0.68460  0.14870  0.83500  Biso   1.000  H
  H103     1.0000 0.68460  0.35130  0.33500  Biso   1.000  H
  H104     1.0000 0.31540  0.85130  0.16500  Biso   1.000  H
  H105     1.0000 0.37460  0.64650  0.73440  Biso   1.000  H
  H106     1.0000 0.62540  0.14650  0.76560  Biso   1.000  H
  H107     1.0000 0.62540  0.35350  0.26560  Biso   1.000  H
  H108     1.0000 0.37460  0.85350  0.23440  Biso   1.000  H
  H109     1.0000 0.29350  0.69720  0.71330  Biso   1.000  H
  H110     1.0000 0.70650  0.19720  0.78670  Biso   1.000  H
  H111     1.0000 0.70650  0.30280  0.28670  Biso   1.000  H
  H112     1.0000 0.29350  0.80280  0.21330  Biso   1.000  H
  C201     1.0000 0.17770  0.63720  0.80040  Biso   1.000  C
  C202     1.0000 0.82230  0.13720  0.69960  Biso   1.000  C
  C203     1.0000 0.82230  0.36280  0.19960  Biso   1.000  C
  C204     1.0000 0.17770  0.86280  0.30040  Biso   1.000  C
  H113     1.0000 0.10250  0.61860  0.80990  Biso   1.000  H
  H114     1.0000 0.89750  0.11860  0.69010  Biso   1.000  H
  H115     1.0000 0.89750  0.38140  0.19010  Biso   1.000  H
  H116     1.0000 0.10250  0.88140  0.30990  Biso   1.000  H
  H117     1.0000 0.17080  0.67560  0.81120  Biso   1.000  H
  H118     1.0000 0.82920  0.17560  0.68880  Biso   1.000  H
  H119     1.0000 0.82920  0.32440  0.18880  Biso   1.000  H
  H120     1.0000 0.17080  0.82440  0.31120  Biso   1.000  H
  H121     1.0000 0.24410  0.62090  0.82510  Biso   1.000  H
  H122     1.0000 0.75590  0.12090  0.67490  Biso   1.000  H
  H123     1.0000 0.75590  0.37910  0.17490  Biso   1.000  H
  H124     1.0000 0.24410  0.87910  0.32510  Biso   1.000  H
