data_image0
_cell_length_a       15.7895
_cell_length_b       7.13275
_cell_length_c       8.72068
_cell_angle_alpha    90
_cell_angle_beta     90
_cell_angle_gamma    90

_symmetry_space_group_name_H-M    "P 1"
_symmetry_int_tables_number       1

loop_
  _symmetry_equiv_pos_as_xyz
  'x, y, z'

loop_
  _atom_site_label
  _atom_site_occupancy
  _atom_site_fract_x
  _atom_site_fract_y
  _atom_site_fract_z
  _atom_site_thermal_displace_type
  _atom_site_B_iso_or_equiv
  _atom_site_type_symbol
  Cu1      1.0000 0.00000  0.00000  0.00000  Biso   1.000  Cu
  Cu2      1.0000 0.50000  0.50000  0.50000  Biso   1.000  Cu
  Cu3      1.0000 0.00000  0.50000  0.00000  Biso   1.000  Cu
  Cu4      1.0000 0.50000  0.00000  0.50000  Biso   1.000  Cu
  N1       1.0000 0.00000  0.25000  0.23447  Biso   1.000  N
  N2       1.0000 0.50000  0.75000  0.73447  Biso   1.000  N
  N3       1.0000 0.00000  0.75000  0.76553  Biso   1.000  N
  N4       1.0000 0.50000  0.25000  0.26553  Biso   1.000  N
  N5       1.0000 0.09299  0.84533  0.09429  Biso   1.000  N
  N6       1.0000 0.59299  0.34533  0.59429  Biso   1.000  N
  N7       1.0000 0.09299  0.15467  0.90571  Biso   1.000  N
  N8       1.0000 0.59299  0.65467  0.40571  Biso   1.000  N
  N9       1.0000 0.90701  0.34533  0.90571  Biso   1.000  N
  N10      1.0000 0.90701  0.65467  0.09429  Biso   1.000  N
  N11      1.0000 0.40701  0.84533  0.40571  Biso   1.000  N
  N12      1.0000 0.40701  0.15467  0.59429  Biso   1.000  N
  N13      1.0000 0.90701  0.15467  0.90571  Biso   1.000  N
  N14      1.0000 0.40701  0.65467  0.40571  Biso   1.000  N
  N15      1.0000 0.90701  0.84533  0.09429  Biso   1.000  N
  N16      1.0000 0.40701  0.34533  0.59429  Biso   1.000  N
  N17      1.0000 0.09299  0.65467  0.09429  Biso   1.000  N
  N18      1.0000 0.09299  0.34533  0.90571  Biso   1.000  N
  N19      1.0000 0.59299  0.15467  0.59429  Biso   1.000  N
  N20      1.0000 0.59299  0.84533  0.40571  Biso   1.000  N
  C1       1.0000 0.00000  0.25000  0.36634  Biso   1.000  C
  C2       1.0000 0.50000  0.75000  0.86634  Biso   1.000  C
  C3       1.0000 0.00000  0.75000  0.63366  Biso   1.000  C
  C4       1.0000 0.50000  0.25000  0.13366  Biso   1.000  C
  C5       1.0000 0.16586  0.90426  0.16207  Biso   1.000  C
  C6       1.0000 0.66586  0.40426  0.66207  Biso   1.000  C
  C7       1.0000 0.16586  0.09574  0.83793  Biso   1.000  C
  C8       1.0000 0.66586  0.59574  0.33793  Biso   1.000  C
  C9       1.0000 0.83414  0.40426  0.83793  Biso   1.000  C
  C10      1.0000 0.83414  0.59574  0.16207  Biso   1.000  C
  C11      1.0000 0.33414  0.90426  0.33793  Biso   1.000  C
  C12      1.0000 0.33414  0.09574  0.66207  Biso   1.000  C
  C13      1.0000 0.83414  0.09574  0.83793  Biso   1.000  C
  C14      1.0000 0.33414  0.59574  0.33793  Biso   1.000  C
  C15      1.0000 0.83414  0.90426  0.16207  Biso   1.000  C
  C16      1.0000 0.33414  0.40426  0.66207  Biso   1.000  C
  C17      1.0000 0.16586  0.59574  0.16207  Biso   1.000  C
  C18      1.0000 0.16586  0.40426  0.83793  Biso   1.000  C
  C19      1.0000 0.66586  0.09574  0.66207  Biso   1.000  C
  C20      1.0000 0.66586  0.90426  0.33793  Biso   1.000  C
  C21      1.0000 0.00000  0.25000  0.53834  Biso   1.000  C
  C22      1.0000 0.50000  0.75000  0.03834  Biso   1.000  C
  C23      1.0000 0.00000  0.75000  0.46166  Biso   1.000  C
  C24      1.0000 0.50000  0.25000  0.96166  Biso   1.000  C
  C25      1.0000 0.21089  0.75000  0.20395  Biso   1.000  C
  C26      1.0000 0.71089  0.25000  0.70395  Biso   1.000  C
  C27      1.0000 0.21089  0.25000  0.79605  Biso   1.000  C
  C28      1.0000 0.71089  0.75000  0.29605  Biso   1.000  C
  C29      1.0000 0.78911  0.25000  0.79605  Biso   1.000  C
  C30      1.0000 0.78911  0.75000  0.20395  Biso   1.000  C
  C31      1.0000 0.28911  0.75000  0.29605  Biso   1.000  C
  C32      1.0000 0.28911  0.25000  0.70395  Biso   1.000  C
  H1       1.0000 0.31761  0.53092  0.67745  Biso   1.000  H
  H2       1.0000 0.81761  0.03092  0.17745  Biso   1.000  H
  H3       1.0000 0.31761  0.46908  0.32255  Biso   1.000  H
  H4       1.0000 0.81761  0.96908  0.82255  Biso   1.000  H
  H5       1.0000 0.68239  0.03092  0.32255  Biso   1.000  H
  H6       1.0000 0.68239  0.96908  0.67745  Biso   1.000  H
  H7       1.0000 0.18239  0.53092  0.82255  Biso   1.000  H
  H8       1.0000 0.18239  0.46908  0.17745  Biso   1.000  H
  H9       1.0000 0.68239  0.46908  0.32255  Biso   1.000  H
  H10      1.0000 0.18239  0.96908  0.82255  Biso   1.000  H
  H11      1.0000 0.68239  0.53092  0.67745  Biso   1.000  H
  H12      1.0000 0.18239  0.03092  0.17745  Biso   1.000  H
  H13      1.0000 0.31761  0.96908  0.67745  Biso   1.000  H
  H14      1.0000 0.31761  0.03092  0.32255  Biso   1.000  H
  H15      1.0000 0.81761  0.46908  0.17745  Biso   1.000  H
  H16      1.0000 0.81761  0.53092  0.82255  Biso   1.000  H
  H17      1.0000 0.05671  0.25000  0.57471  Biso   1.000  H
  H18      1.0000 0.55671  0.75000  0.07471  Biso   1.000  H
  H19      1.0000 0.05671  0.75000  0.42529  Biso   1.000  H
  H20      1.0000 0.55671  0.25000  0.92529  Biso   1.000  H
  H21      1.0000 0.94329  0.75000  0.42529  Biso   1.000  H
  H22      1.0000 0.94329  0.25000  0.57471  Biso   1.000  H
  H23      1.0000 0.44329  0.25000  0.92529  Biso   1.000  H
  H24      1.0000 0.44329  0.75000  0.07471  Biso   1.000  H
  H25      1.0000 0.97164  0.35873  0.57471  Biso   1.000  H
  H26      1.0000 0.47164  0.85873  0.07471  Biso   1.000  H
  H27      1.0000 0.97164  0.64127  0.42529  Biso   1.000  H
  H28      1.0000 0.47164  0.14127  0.92529  Biso   1.000  H
  H29      1.0000 0.02836  0.85873  0.42529  Biso   1.000  H
  H30      1.0000 0.02836  0.14127  0.57471  Biso   1.000  H
  H31      1.0000 0.52836  0.35873  0.92529  Biso   1.000  H
  H32      1.0000 0.52836  0.64127  0.07471  Biso   1.000  H
  H33      1.0000 0.02836  0.64127  0.42529  Biso   1.000  H
  H34      1.0000 0.52836  0.14127  0.92529  Biso   1.000  H
  H35      1.0000 0.02836  0.35873  0.57471  Biso   1.000  H
  H36      1.0000 0.52836  0.85873  0.07471  Biso   1.000  H
  H37      1.0000 0.97164  0.14127  0.57471  Biso   1.000  H
  H38      1.0000 0.97164  0.85873  0.42529  Biso   1.000  H
  H39      1.0000 0.47164  0.64127  0.07471  Biso   1.000  H
  H40      1.0000 0.47164  0.35873  0.92529  Biso   1.000  H
