data_image0
_cell_length_a       8.23847
_cell_length_b       13.3121
_cell_length_c       8.05241
_cell_angle_alpha    90
_cell_angle_beta     112.333
_cell_angle_gamma    90

_symmetry_space_group_name_H-M    "P 1"
_symmetry_int_tables_number       1

loop_
  _symmetry_equiv_pos_as_xyz
  'x, y, z'

loop_
  _atom_site_label
  _atom_site_occupancy
  _atom_site_fract_x
  _atom_site_fract_y
  _atom_site_fract_z
  _atom_site_thermal_displace_type
  _atom_site_B_iso_or_equiv
  _atom_site_type_symbol
  Cu1      1.0000 0.00000  0.00000  0.00000  Biso   1.000  Cu
  Cu2      1.0000 0.50000  0.50000  0.50000  Biso   1.000  Cu
  C1       1.0000 0.33214  0.16110  0.83238  Biso   1.000  C
  C2       1.0000 0.16786  0.66110  0.66762  Biso   1.000  C
  C3       1.0000 0.66786  0.83890  0.16762  Biso   1.000  C
  C4       1.0000 0.83214  0.33890  0.33238  Biso   1.000  C
  C5       1.0000 0.17853  0.11277  0.80445  Biso   1.000  C
  C6       1.0000 0.32147  0.61277  0.69555  Biso   1.000  C
  C7       1.0000 0.82147  0.88723  0.19555  Biso   1.000  C
  C8       1.0000 0.67853  0.38723  0.30445  Biso   1.000  C
  H1       1.0000 0.07569  0.11520  0.69791  Biso   1.000  H
  H2       1.0000 0.42431  0.61520  0.80209  Biso   1.000  H
  H3       1.0000 0.92431  0.88480  0.30209  Biso   1.000  H
  H4       1.0000 0.57569  0.38480  0.19791  Biso   1.000  H
  N1       1.0000 0.19802  0.06034  0.95581  Biso   1.000  N
  N2       1.0000 0.30198  0.56034  0.54419  Biso   1.000  N
  N3       1.0000 0.80198  0.93966  0.04419  Biso   1.000  N
  N4       1.0000 0.69802  0.43966  0.45581  Biso   1.000  N
  N5       1.0000 0.36366  0.07627  0.07728  Biso   1.000  N
  N6       1.0000 0.13634  0.57627  0.42272  Biso   1.000  N
  N7       1.0000 0.63634  0.92373  0.92272  Biso   1.000  N
  N8       1.0000 0.86366  0.42373  0.57728  Biso   1.000  N
  H5       1.0000 0.41283  0.04874  0.19479  Biso   1.000  H
  H6       1.0000 0.08717  0.54874  0.30521  Biso   1.000  H
  H7       1.0000 0.58717  0.95126  0.80521  Biso   1.000  H
  H8       1.0000 0.91283  0.45126  0.69479  Biso   1.000  H
  C9       1.0000 0.44655  0.13854  0.00100  Biso   1.000  C
  C10      1.0000 0.05345  0.63854  0.49900  Biso   1.000  C
  C11      1.0000 0.55345  0.86146  0.99900  Biso   1.000  C
  C12      1.0000 0.94655  0.36146  0.50100  Biso   1.000  C
  H9       1.0000 0.56379  0.16214  0.05587  Biso   1.000  H
  H10      1.0000 0.93621  0.66214  0.44413  Biso   1.000  H
  H11      1.0000 0.43621  0.83786  0.94413  Biso   1.000  H
  H12      1.0000 0.06379  0.33786  0.55587  Biso   1.000  H
  C13      1.0000 0.36890  0.22760  0.70038  Biso   1.000  C
  C14      1.0000 0.13110  0.72760  0.79962  Biso   1.000  C
  C15      1.0000 0.63110  0.77240  0.29962  Biso   1.000  C
  C16      1.0000 0.86890  0.27240  0.20038  Biso   1.000  C
  C17      1.0000 0.34868  0.20223  0.53004  Biso   1.000  C
  C18      1.0000 0.15132  0.70223  0.96996  Biso   1.000  C
  C19      1.0000 0.65132  0.79777  0.46996  Biso   1.000  C
  C20      1.0000 0.84868  0.29777  0.03004  Biso   1.000  C
  H13      1.0000 0.30879  0.13928  0.47376  Biso   1.000  H
  H14      1.0000 0.19121  0.63928  0.02624  Biso   1.000  H
  H15      1.0000 0.69121  0.86072  0.52624  Biso   1.000  H
  H16      1.0000 0.80879  0.36072  0.97376  Biso   1.000  H
  N9       1.0000 0.39560  0.28281  0.45441  Biso   1.000  N
  N10      1.0000 0.10440  0.78281  0.04559  Biso   1.000  N
  N11      1.0000 0.60440  0.71719  0.54559  Biso   1.000  N
  N12      1.0000 0.89560  0.21719  0.95441  Biso   1.000  N
  H17      1.0000 0.39423  0.28602  0.33603  Biso   1.000  H
  H18      1.0000 0.10577  0.78602  0.16397  Biso   1.000  H
  H19      1.0000 0.60577  0.71398  0.66397  Biso   1.000  H
  H20      1.0000 0.89423  0.21398  0.83603  Biso   1.000  H
  N13      1.0000 0.44481  0.35798  0.57802  Biso   1.000  N
  N14      1.0000 0.05519  0.85798  0.92198  Biso   1.000  N
  N15      1.0000 0.55519  0.64202  0.42198  Biso   1.000  N
  N16      1.0000 0.94481  0.14202  0.07802  Biso   1.000  N
  C21      1.0000 0.42832  0.32386  0.73003  Biso   1.000  C
  C22      1.0000 0.07168  0.82386  0.76997  Biso   1.000  C
  C23      1.0000 0.57168  0.67614  0.26997  Biso   1.000  C
  C24      1.0000 0.92832  0.17614  0.23003  Biso   1.000  C
  H21      1.0000 0.45382  0.36078  0.83798  Biso   1.000  H
  H22      1.0000 0.04618  0.86078  0.66202  Biso   1.000  H
  H23      1.0000 0.54618  0.63922  0.16202  Biso   1.000  H
  H24      1.0000 0.95382  0.13922  0.33798  Biso   1.000  H
  N17      1.0000 0.73122  0.07739  0.55965  Biso   1.000  N
  N18      1.0000 0.76878  0.57739  0.94035  Biso   1.000  N
  N19      1.0000 0.26878  0.92261  0.44035  Biso   1.000  N
  N20      1.0000 0.23122  0.42261  0.05965  Biso   1.000  N
  O1       1.0000 0.62719  0.04140  0.41497  Biso   1.000  O
  O2       1.0000 0.87281  0.54140  0.08503  Biso   1.000  O
  O3       1.0000 0.37281  0.95860  0.58503  Biso   1.000  O
  O4       1.0000 0.12719  0.45860  0.91497  Biso   1.000  O
  O5       1.0000 0.78028  0.16667  0.56621  Biso   1.000  O
  O6       1.0000 0.71972  0.66667  0.93379  Biso   1.000  O
  O7       1.0000 0.21972  0.83333  0.43379  Biso   1.000  O
  O8       1.0000 0.28028  0.33333  0.06621  Biso   1.000  O
  O9       1.0000 0.78619  0.02410  0.69776  Biso   1.000  O
  O10      1.0000 0.71381  0.52410  0.80224  Biso   1.000  O
  O11      1.0000 0.21381  0.97590  0.30224  Biso   1.000  O
  O12      1.0000 0.28619  0.47590  0.19776  Biso   1.000  O
