data_image0
_cell_length_a       11.405
_cell_length_b       16.821
_cell_length_c       7.881
_cell_angle_alpha    90
_cell_angle_beta     108.06
_cell_angle_gamma    90

_symmetry_space_group_name_H-M    "P 1"
_symmetry_int_tables_number       1

loop_
  _symmetry_equiv_pos_as_xyz
  'x, y, z'

loop_
  _atom_site_label
  _atom_site_occupancy
  _atom_site_fract_x
  _atom_site_fract_y
  _atom_site_fract_z
  _atom_site_thermal_displace_type
  _atom_site_B_iso_or_equiv
  _atom_site_type_symbol
  Cu1      1.0000 0.31060  0.30390  0.14840  Biso   1.000  Cu
  Cu2      1.0000 0.68940  0.80390  0.35160  Biso   1.000  Cu
  Cu3      1.0000 0.68940  0.69610  0.85160  Biso   1.000  Cu
  Cu4      1.0000 0.31060  0.19610  0.64840  Biso   1.000  Cu
  Br1      1.0000 0.09110  0.56800  0.38380  Biso   1.000  Br
  Br2      1.0000 0.90890  0.06800  0.11620  Biso   1.000  Br
  Br3      1.0000 0.90890  0.43200  0.61620  Biso   1.000  Br
  Br4      1.0000 0.09110  0.93200  0.88380  Biso   1.000  Br
  N1       1.0000 0.14710  0.36180  0.12850  Biso   1.000  N
  N2       1.0000 0.85290  0.86180  0.37150  Biso   1.000  N
  N3       1.0000 0.85290  0.63820  0.87150  Biso   1.000  N
  N4       1.0000 0.14710  0.13820  0.62850  Biso   1.000  N
  N5       1.0000 0.47060  0.26480  0.14410  Biso   1.000  N
  N6       1.0000 0.52940  0.76480  0.35590  Biso   1.000  N
  N7       1.0000 0.52940  0.73520  0.85590  Biso   1.000  N
  N8       1.0000 0.47060  0.23520  0.64410  Biso   1.000  N
  N9       1.0000 0.93130  0.37410  0.09000  Biso   1.000  N
  N10      1.0000 0.06870  0.87410  0.41000  Biso   1.000  N
  N11      1.0000 0.06870  0.62590  0.91000  Biso   1.000  N
  N12      1.0000 0.93130  0.12590  0.59000  Biso   1.000  N
  C1       1.0000 0.99900  0.26380  0.94790  Biso   1.000  C
  C2       1.0000 0.00100  0.76380  0.55210  Biso   1.000  C
  C3       1.0000 0.00100  0.73620  0.05210  Biso   1.000  C
  C4       1.0000 0.99900  0.23620  0.44790  Biso   1.000  C
  C5       1.0000 0.07350  0.47270  0.25040  Biso   1.000  C
  C6       1.0000 0.92650  0.97270  0.24960  Biso   1.000  C
  C7       1.0000 0.92650  0.52730  0.74960  Biso   1.000  C
  C8       1.0000 0.07350  0.02730  0.75040  Biso   1.000  C
  C9       1.0000 0.30000  0.46190  0.25780  Biso   1.000  C
  C10      1.0000 0.70000  0.96190  0.24220  Biso   1.000  C
  C11      1.0000 0.70000  0.53810  0.74220  Biso   1.000  C
  C12      1.0000 0.30000  0.03810  0.75780  Biso   1.000  C
  C13      1.0000 0.54990  0.39930  0.10490  Biso   1.000  C
  C14      1.0000 0.45010  0.89930  0.39510  Biso   1.000  C
  C15      1.0000 0.45010  0.60070  0.89510  Biso   1.000  C
  C16      1.0000 0.54990  0.10070  0.60490  Biso   1.000  C
  C17      1.0000 0.66240  0.26480  0.12900  Biso   1.000  C
  C18      1.0000 0.33760  0.76480  0.37100  Biso   1.000  C
  C19      1.0000 0.33760  0.73520  0.87100  Biso   1.000  C
  C20      1.0000 0.66240  0.23520  0.62900  Biso   1.000  C
  Br5      1.0000 0.24740  0.17740  0.24810  Biso   1.000  Br
  Br6      1.0000 0.75260  0.67740  0.25190  Biso   1.000  Br
  Br7      1.0000 0.75260  0.82260  0.75190  Biso   1.000  Br
  Br8      1.0000 0.24740  0.32260  0.74810  Biso   1.000  Br
  O1       1.0000 0.32550  0.53110  0.31260  Biso   1.000  O
  O2       1.0000 0.67450  0.03110  0.18740  Biso   1.000  O
  O3       1.0000 0.67450  0.46890  0.68740  Biso   1.000  O
  O4       1.0000 0.32550  0.96890  0.81260  Biso   1.000  O
  N13      1.0000 0.37420  0.40950  0.22010  Biso   1.000  N
  N14      1.0000 0.62580  0.90950  0.27990  Biso   1.000  N
  N15      1.0000 0.62580  0.59050  0.77990  Biso   1.000  N
  N16      1.0000 0.37420  0.09050  0.72010  Biso   1.000  N
  N17      1.0000 0.62860  0.18860  0.15050  Biso   1.000  N
  N18      1.0000 0.37140  0.68860  0.34950  Biso   1.000  N
  N19      1.0000 0.37140  0.81140  0.84950  Biso   1.000  N
  N20      1.0000 0.62860  0.31140  0.65050  Biso   1.000  N
  C21      1.0000 0.02750  0.33660  0.06190  Biso   1.000  C
  C22      1.0000 0.97250  0.83660  0.43810  Biso   1.000  C
  C23      1.0000 0.97250  0.66340  0.93810  Biso   1.000  C
  C24      1.0000 0.02750  0.16340  0.56190  Biso   1.000  C
  C25      1.0000 0.95650  0.44060  0.18460  Biso   1.000  C
  C26      1.0000 0.04350  0.94060  0.31540  Biso   1.000  C
  C27      1.0000 0.04350  0.55940  0.81540  Biso   1.000  C
  C28      1.0000 0.95650  0.05940  0.68460  Biso   1.000  C
  C29      1.0000 0.17060  0.43220  0.21770  Biso   1.000  C
  C30      1.0000 0.82940  0.93220  0.28230  Biso   1.000  C
  C31      1.0000 0.82940  0.56780  0.78230  Biso   1.000  C
  C32      1.0000 0.17060  0.06780  0.71770  Biso   1.000  C
  C33      1.0000 0.50160  0.43630  0.24640  Biso   1.000  C
  C34      1.0000 0.49840  0.93630  0.25360  Biso   1.000  C
  C35      1.0000 0.49840  0.56370  0.75360  Biso   1.000  C
  C36      1.0000 0.50160  0.06370  0.74640  Biso   1.000  C
  C37      1.0000 0.56490  0.31280  0.12610  Biso   1.000  C
  C38      1.0000 0.43510  0.81280  0.37390  Biso   1.000  C
  C39      1.0000 0.43510  0.68720  0.87390  Biso   1.000  C
  C40      1.0000 0.56490  0.18720  0.62610  Biso   1.000  C
  C41      1.0000 0.51170  0.19060  0.15700  Biso   1.000  C
  C42      1.0000 0.48830  0.69060  0.34300  Biso   1.000  C
  C43      1.0000 0.48830  0.80940  0.84300  Biso   1.000  C
  C44      1.0000 0.51170  0.30940  0.65700  Biso   1.000  C
  H1       1.0000 0.06430  0.24570  0.90680  Biso   1.000  H
  H2       1.0000 0.93570  0.74570  0.59320  Biso   1.000  H
  H3       1.0000 0.93570  0.75430  0.09320  Biso   1.000  H
  H4       1.0000 0.06430  0.25430  0.40680  Biso   1.000  H
  H5       1.0000 0.93200  0.28090  0.84900  Biso   1.000  H
  H6       1.0000 0.06800  0.78090  0.65100  Biso   1.000  H
  H7       1.0000 0.06800  0.71910  0.15100  Biso   1.000  H
  H8       1.0000 0.93200  0.21910  0.34900  Biso   1.000  H
  H9       1.0000 0.97260  0.22190  0.00790  Biso   1.000  H
  H10      1.0000 0.02740  0.72190  0.49210  Biso   1.000  H
  H11      1.0000 0.02740  0.77810  0.99210  Biso   1.000  H
  H12      1.0000 0.97260  0.27810  0.50790  Biso   1.000  H
  H13      1.0000 0.89040  0.46780  0.20860  Biso   1.000  H
  H14      1.0000 0.10960  0.96780  0.29140  Biso   1.000  H
  H15      1.0000 0.10960  0.53220  0.79140  Biso   1.000  H
  H16      1.0000 0.89040  0.03220  0.70860  Biso   1.000  H
  H17      1.0000 0.50290  0.49260  0.23690  Biso   1.000  H
  H18      1.0000 0.49710  0.99260  0.26310  Biso   1.000  H
  H19      1.0000 0.49710  0.50740  0.76310  Biso   1.000  H
  H20      1.0000 0.50290  0.00740  0.73690  Biso   1.000  H
  H21      1.0000 0.55250  0.42060  0.36140  Biso   1.000  H
  H22      1.0000 0.44750  0.92060  0.13860  Biso   1.000  H
  H23      1.0000 0.44750  0.57940  0.63860  Biso   1.000  H
  H24      1.0000 0.55250  0.07940  0.86140  Biso   1.000  H
  H25      1.0000 0.62770  0.42230  0.11360  Biso   1.000  H
  H26      1.0000 0.37230  0.92230  0.38640  Biso   1.000  H
  H27      1.0000 0.37230  0.57770  0.88640  Biso   1.000  H
  H28      1.0000 0.62770  0.07770  0.61360  Biso   1.000  H
  H29      1.0000 0.49340  0.41030  0.99050  Biso   1.000  H
  H30      1.0000 0.50660  0.91030  0.50950  Biso   1.000  H
  H31      1.0000 0.50660  0.58970  0.00950  Biso   1.000  H
  H32      1.0000 0.49340  0.08970  0.49050  Biso   1.000  H
  H33      1.0000 0.73930  0.28150  0.11810  Biso   1.000  H
  H34      1.0000 0.26070  0.78150  0.38190  Biso   1.000  H
  H35      1.0000 0.26070  0.71850  0.88190  Biso   1.000  H
  H36      1.0000 0.73930  0.21850  0.61810  Biso   1.000  H
  H37      1.0000 0.46540  0.14520  0.16920  Biso   1.000  H
  H38      1.0000 0.53460  0.64520  0.33080  Biso   1.000  H
  H39      1.0000 0.53460  0.85480  0.83080  Biso   1.000  H
  H40      1.0000 0.46540  0.35480  0.66920  Biso   1.000  H
  H41      1.0000 0.66640  0.15320  0.12180  Biso   1.000  H
  H42      1.0000 0.33360  0.65320  0.37820  Biso   1.000  H
  H43      1.0000 0.33360  0.84680  0.87820  Biso   1.000  H
  H44      1.0000 0.66640  0.34680  0.62180  Biso   1.000  H
