data_image0
_cell_length_a       7.235
_cell_length_b       10.705
_cell_length_c       11.624
_cell_angle_alpha    75.25
_cell_angle_beta     82.58
_cell_angle_gamma    84.91

_symmetry_space_group_name_H-M    "P 1"
_symmetry_int_tables_number       1

loop_
  _symmetry_equiv_pos_as_xyz
  'x, y, z'

loop_
  _atom_site_label
  _atom_site_occupancy
  _atom_site_fract_x
  _atom_site_fract_y
  _atom_site_fract_z
  _atom_site_thermal_displace_type
  _atom_site_B_iso_or_equiv
  _atom_site_type_symbol
  Cu1      1.0000 0.12123  0.63888  0.79354  Biso   1.000  Cu
  Cu2      1.0000 0.87877  0.36112  0.20646  Biso   1.000  Cu
  V1       1.0000 0.64322  0.62598  0.83604  Biso   1.000  V
  V2       1.0000 0.35678  0.37402  0.16396  Biso   1.000  V
  P1       1.0000 0.92146  0.38207  0.92512  Biso   1.000  P
  P2       1.0000 0.07854  0.61793  0.07488  Biso   1.000  P
  P3       1.0000 0.57687  0.80389  0.03196  Biso   1.000  P
  P4       1.0000 0.42313  0.19611  0.96804  Biso   1.000  P
  O1       1.0000 0.74170  0.46947  0.91659  Biso   1.000  O
  O2       1.0000 0.25830  0.53053  0.08341  Biso   1.000  O
  O3       1.0000 0.08560  0.45305  0.85199  Biso   1.000  O
  O4       1.0000 0.91440  0.54695  0.14801  Biso   1.000  O
  O5       1.0000 0.95010  0.32515  0.05341  Biso   1.000  O
  O6       1.0000 0.04990  0.67485  0.94659  Biso   1.000  O
  O7       1.0000 0.90040  0.27140  0.86304  Biso   1.000  O
  O8       1.0000 0.09960  0.72860  0.13696  Biso   1.000  O
  O9       1.0000 0.78690  0.68410  0.72220  Biso   1.000  O
  O10      1.0000 0.21310  0.31590  0.27780  Biso   1.000  O
  O11      1.0000 0.45400  0.60550  0.79020  Biso   1.000  O
  O12      1.0000 0.54600  0.39450  0.20980  Biso   1.000  O
  O13      1.0000 0.38630  0.86317  0.05340  Biso   1.000  O
  O14      1.0000 0.61370  0.13683  0.94660  Biso   1.000  O
  O15      1.0000 0.62020  0.70180  0.14700  Biso   1.000  O
  O16      1.0000 0.37980  0.29820  0.85300  Biso   1.000  O
  O17      1.0000 0.72330  0.90430  0.00870  Biso   1.000  O
  O18      1.0000 0.27670  0.09570  0.99130  Biso   1.000  O
  O19      1.0000 0.57640  0.72660  0.94050  Biso   1.000  O
  O20      1.0000 0.42360  0.27340  0.05950  Biso   1.000  O
  N1       1.0000 0.15150  0.82760  0.71690  Biso   1.000  N
  N2       1.0000 0.84850  0.17240  0.28310  Biso   1.000  N
  N3       1.0000 0.18690  0.62410  0.62461  Biso   1.000  N
  N4       1.0000 0.81310  0.37590  0.37539  Biso   1.000  N
  C1       1.0000 0.20380  0.51920  0.58230  Biso   1.000  C
  C2       1.0000 0.79620  0.48080  0.41770  Biso   1.000  C
  H1       1.0000 0.17420  0.44010  0.63410  Biso   1.000  H
  H2       1.0000 0.82580  0.55990  0.36590  Biso   1.000  H
  C3       1.0000 0.26480  0.52380  0.46220  Biso   1.000  C
  C4       1.0000 0.73520  0.47620  0.53780  Biso   1.000  C
  H3       1.0000 0.27800  0.44850  0.43530  Biso   1.000  H
  H4       1.0000 0.72200  0.55150  0.56470  Biso   1.000  H
  C5       1.0000 0.30490  0.63950  0.38510  Biso   1.000  C
  C6       1.0000 0.69510  0.36050  0.61490  Biso   1.000  C
  H5       1.0000 0.34520  0.64320  0.30510  Biso   1.000  H
  H6       1.0000 0.65480  0.35680  0.69490  Biso   1.000  H
  C7       1.0000 0.28550  0.75320  0.42580  Biso   1.000  C
  C8       1.0000 0.71450  0.24680  0.57420  Biso   1.000  C
  C9       1.0000 0.22640  0.73940  0.54810  Biso   1.000  C
  C10      1.0000 0.77360  0.26060  0.45190  Biso   1.000  C
  C11      1.0000 0.20540  0.84960  0.59760  Biso   1.000  C
  C12      1.0000 0.79460  0.15040  0.40240  Biso   1.000  C
  C13      1.0000 0.23800  0.97370  0.52380  Biso   1.000  C
  C14      1.0000 0.76200  0.02630  0.47620  Biso   1.000  C
  C15      1.0000 0.21050  0.07700  0.57910  Biso   1.000  C
  C16      1.0000 0.78950  0.92300  0.42090  Biso   1.000  C
  H7       1.0000 0.22860  0.16100  0.53400  Biso   1.000  H
  H8       1.0000 0.77140  0.83900  0.46600  Biso   1.000  H
  C17      1.0000 0.15710  0.05420  0.69920  Biso   1.000  C
  C18      1.0000 0.84290  0.94580  0.30080  Biso   1.000  C
  H9       1.0000 0.14030  0.12240  0.73630  Biso   1.000  H
  H10      1.0000 0.85970  0.87760  0.26370  Biso   1.000  H
  C19      1.0000 0.12780  0.92760  0.76630  Biso   1.000  C
  C20      1.0000 0.87220  0.07240  0.23370  Biso   1.000  C
  H11      1.0000 0.09060  0.91320  0.84800  Biso   1.000  H
  H12      1.0000 0.90940  0.08680  0.15200  Biso   1.000  H
  C21      1.0000 0.29590  0.98470  0.39890  Biso   1.000  C
  C22      1.0000 0.70410  0.01530  0.60110  Biso   1.000  C
  H13      1.0000 0.31760  0.06590  0.34850  Biso   1.000  H
  H14      1.0000 0.68240  0.93410  0.65150  Biso   1.000  H
  C23      1.0000 0.31950  0.88010  0.35320  Biso   1.000  C
  C24      1.0000 0.68050  0.11990  0.64680  Biso   1.000  C
  H15      1.0000 0.35900  0.89070  0.27210  Biso   1.000  H
  H16      1.0000 0.64100  0.10930  0.72790  Biso   1.000  H
  O21      1.0000 0.63080  0.75930  0.91690  Biso   1.000  O
  O22      1.0000 0.36920  0.24070  0.08310  Biso   1.000  O
