data_image0
_cell_length_a       14.549
_cell_length_b       9.807
_cell_length_c       13.009
_cell_angle_alpha    90
_cell_angle_beta     90
_cell_angle_gamma    90

_symmetry_space_group_name_H-M    "P 1"
_symmetry_int_tables_number       1

loop_
  _symmetry_equiv_pos_as_xyz
  'x, y, z'

loop_
  _atom_site_label
  _atom_site_occupancy
  _atom_site_fract_x
  _atom_site_fract_y
  _atom_site_fract_z
  _atom_site_thermal_displace_type
  _atom_site_B_iso_or_equiv
  _atom_site_type_symbol
  Zn1      1.0000 0.23330  0.69650  0.23000  Biso   1.000  Zn
  Zn2      1.0000 0.26670  0.19650  0.73000  Biso   1.000  Zn
  Zn3      1.0000 0.73330  0.80350  0.23000  Biso   1.000  Zn
  Zn4      1.0000 0.76670  0.30350  0.73000  Biso   1.000  Zn
  Cu1      1.0000 0.55960  0.31740  0.24900  Biso   1.000  Cu
  Cu2      1.0000 0.94040  0.81740  0.74900  Biso   1.000  Cu
  Cu3      1.0000 0.05960  0.18260  0.24900  Biso   1.000  Cu
  Cu4      1.0000 0.44040  0.68260  0.74900  Biso   1.000  Cu
  O1       1.0000 0.57340  0.31800  0.40200  Biso   1.000  O
  O2       1.0000 0.92660  0.81800  0.90200  Biso   1.000  O
  O3       1.0000 0.07340  0.18200  0.40200  Biso   1.000  O
  O4       1.0000 0.42660  0.68200  0.90200  Biso   1.000  O
  O5       1.0000 0.52150  0.20400  0.53700  Biso   1.000  O
  O6       1.0000 0.97850  0.70400  0.03700  Biso   1.000  O
  O7       1.0000 0.02150  0.29600  0.53700  Biso   1.000  O
  O8       1.0000 0.47850  0.79600  0.03700  Biso   1.000  O
  O9       1.0000 0.49500  0.51800  0.24300  Biso   1.000  O
  O10      1.0000 0.00500  0.01800  0.74300  Biso   1.000  O
  O11      1.0000 0.99500  0.98200  0.24300  Biso   1.000  O
  O12      1.0000 0.50500  0.48200  0.74300  Biso   1.000  O
  O13      1.0000 0.36400  0.62600  0.26600  Biso   1.000  O
  O14      1.0000 0.13600  0.12600  0.76600  Biso   1.000  O
  O15      1.0000 0.86400  0.87400  0.26600  Biso   1.000  O
  O16      1.0000 0.63600  0.37400  0.76600  Biso   1.000  O
  O17      1.0000 0.61800  0.10300  0.25400  Biso   1.000  O
  O18      1.0000 0.88200  0.60300  0.75400  Biso   1.000  O
  O19      1.0000 0.11800  0.39700  0.25400  Biso   1.000  O
  O20      1.0000 0.38200  0.89700  0.75400  Biso   1.000  O
  O21      1.0000 0.68800  0.97500  0.14100  Biso   1.000  O
  O22      1.0000 0.81200  0.47500  0.64100  Biso   1.000  O
  O23      1.0000 0.18800  0.52500  0.14100  Biso   1.000  O
  O24      1.0000 0.31200  0.02500  0.64100  Biso   1.000  O
  O25      1.0000 0.67100  0.40500  0.18200  Biso   1.000  O
  O26      1.0000 0.82900  0.90500  0.68200  Biso   1.000  O
  O27      1.0000 0.17100  0.09500  0.18200  Biso   1.000  O
  O28      1.0000 0.32900  0.59500  0.68200  Biso   1.000  O
  O29      1.0000 0.71800  0.48300  0.03000  Biso   1.000  O
  O30      1.0000 0.78200  0.98300  0.53000  Biso   1.000  O
  O31      1.0000 0.21800  0.01700  0.03000  Biso   1.000  O
  O32      1.0000 0.28200  0.51700  0.53000  Biso   1.000  O
  O33      1.0000 0.18130  0.60600  0.36600  Biso   1.000  O
  O34      1.0000 0.31870  0.10600  0.86600  Biso   1.000  O
  O35      1.0000 0.68130  0.89400  0.36600  Biso   1.000  O
  O36      1.0000 0.81870  0.39400  0.86600  Biso   1.000  O
  O37      1.0000 0.25500  0.88600  0.30000  Biso   1.000  O
  O38      1.0000 0.24500  0.38600  0.80000  Biso   1.000  O
  O39      1.0000 0.75500  0.61400  0.30000  Biso   1.000  O
  O40      1.0000 0.74500  0.11400  0.80000  Biso   1.000  O
  O41      1.0000 0.10100  0.76900  0.18800  Biso   1.000  O
  O42      1.0000 0.39900  0.26900  0.68800  Biso   1.000  O
  O43      1.0000 0.60100  0.73100  0.18800  Biso   1.000  O
  O44      1.0000 0.89900  0.23100  0.68800  Biso   1.000  O
  O45      1.0000 0.29400  0.77800  0.09600  Biso   1.000  O
  O46      1.0000 0.20600  0.27800  0.59600  Biso   1.000  O
  O47      1.0000 0.79400  0.72200  0.09600  Biso   1.000  O
  O48      1.0000 0.70600  0.22200  0.59600  Biso   1.000  O
  O49      1.0000 0.30800  0.48500  0.97800  Biso   1.000  O
  O50      1.0000 0.19200  0.98500  0.47800  Biso   1.000  O
  O51      1.0000 0.80800  0.01500  0.97800  Biso   1.000  O
  O52      1.0000 0.69200  0.51500  0.47800  Biso   1.000  O
  O53      1.0000 0.47100  0.86200  0.33300  Biso   1.000  O
  O54      1.0000 0.02900  0.36200  0.83300  Biso   1.000  O
  O55      1.0000 0.97100  0.63800  0.33300  Biso   1.000  O
  O56      1.0000 0.52900  0.13800  0.83300  Biso   1.000  O
  N1       1.0000 0.42500  0.25700  0.28200  Biso   1.000  N
  N2       1.0000 0.07500  0.75700  0.78200  Biso   1.000  N
  N3       1.0000 0.92500  0.24300  0.28200  Biso   1.000  N
  N4       1.0000 0.57500  0.74300  0.78200  Biso   1.000  N
  N5       1.0000 0.53500  0.25600  0.10100  Biso   1.000  N
  N6       1.0000 0.96500  0.75600  0.60100  Biso   1.000  N
  N7       1.0000 0.03500  0.24400  0.10100  Biso   1.000  N
  N8       1.0000 0.46500  0.74400  0.60100  Biso   1.000  N
  C1       1.0000 0.39600  0.17100  0.19500  Biso   1.000  C
  C2       1.0000 0.10400  0.67100  0.69500  Biso   1.000  C
  C3       1.0000 0.89600  0.32900  0.19500  Biso   1.000  C
  C4       1.0000 0.60400  0.82900  0.69500  Biso   1.000  C
  C5       1.0000 0.43100  0.24200  0.09200  Biso   1.000  C
  C6       1.0000 0.06900  0.74200  0.59200  Biso   1.000  C
  C7       1.0000 0.93100  0.25800  0.09200  Biso   1.000  C
  C8       1.0000 0.56900  0.75800  0.59200  Biso   1.000  C
  C9       1.0000 0.43300  0.18400  0.38300  Biso   1.000  C
  C10      1.0000 0.06700  0.68400  0.88300  Biso   1.000  C
  C11      1.0000 0.93300  0.31600  0.38300  Biso   1.000  C
  C12      1.0000 0.56700  0.81600  0.88300  Biso   1.000  C
  C13      1.0000 0.51300  0.24300  0.44400  Biso   1.000  C
  C14      1.0000 0.98700  0.74300  0.94400  Biso   1.000  C
  C15      1.0000 0.01300  0.25700  0.44400  Biso   1.000  C
  C16      1.0000 0.48700  0.75700  0.94400  Biso   1.000  C
  C17      1.0000 0.36600  0.38300  0.29400  Biso   1.000  C
  C18      1.0000 0.13400  0.88300  0.79400  Biso   1.000  C
  C19      1.0000 0.86600  0.11700  0.29400  Biso   1.000  C
  C20      1.0000 0.63400  0.61700  0.79400  Biso   1.000  C
  C21      1.0000 0.41300  0.51800  0.26200  Biso   1.000  C
  C22      1.0000 0.08700  0.01800  0.76200  Biso   1.000  C
  C23      1.0000 0.91300  0.98200  0.26200  Biso   1.000  C
  C24      1.0000 0.58700  0.48200  0.76200  Biso   1.000  C
  C25      1.0000 0.58600  0.13000  0.07400  Biso   1.000  C
  C26      1.0000 0.91400  0.63000  0.57400  Biso   1.000  C
  C27      1.0000 0.08600  0.37000  0.07400  Biso   1.000  C
  C28      1.0000 0.41400  0.87000  0.57400  Biso   1.000  C
  C29      1.0000 0.63600  0.03700  0.15400  Biso   1.000  C
  C30      1.0000 0.86400  0.53700  0.65400  Biso   1.000  C
  C31      1.0000 0.13600  0.46300  0.15400  Biso   1.000  C
  C32      1.0000 0.36400  0.96300  0.65400  Biso   1.000  C
  C33      1.0000 0.57000  0.37100  0.03800  Biso   1.000  C
  C34      1.0000 0.93000  0.87100  0.53800  Biso   1.000  C
  C35      1.0000 0.07000  0.12900  0.03800  Biso   1.000  C
  C36      1.0000 0.43000  0.62900  0.53800  Biso   1.000  C
  C37      1.0000 0.65700  0.42300  0.08300  Biso   1.000  C
  C38      1.0000 0.84300  0.92300  0.58300  Biso   1.000  C
  C39      1.0000 0.15700  0.07700  0.08300  Biso   1.000  C
  C40      1.0000 0.34300  0.57700  0.58300  Biso   1.000  C
