data_image0
_cell_length_a       14.5846
_cell_length_b       9.8421
_cell_length_c       13.0114
_cell_angle_alpha    90
_cell_angle_beta     90
_cell_angle_gamma    90

_symmetry_space_group_name_H-M    "P 1"
_symmetry_int_tables_number       1

loop_
  _symmetry_equiv_pos_as_xyz
  'x, y, z'

loop_
  _atom_site_label
  _atom_site_occupancy
  _atom_site_fract_x
  _atom_site_fract_y
  _atom_site_fract_z
  _atom_site_thermal_displace_type
  _atom_site_B_iso_or_equiv
  _atom_site_type_symbol
  Cu1      1.0000 0.94140  0.81647  0.83402  Biso   1.000  Cu
  Cu2      1.0000 0.05860  0.18353  0.33402  Biso   1.000  Cu
  Cu3      1.0000 0.55860  0.31647  0.33402  Biso   1.000  Cu
  Cu4      1.0000 0.44140  0.68353  0.83402  Biso   1.000  Cu
  Zn1      1.0000 0.76733  0.30375  0.85256  Biso   1.000  Zn
  Zn2      1.0000 0.23267  0.69625  0.35256  Biso   1.000  Zn
  Zn3      1.0000 0.73267  0.80375  0.35256  Biso   1.000  Zn
  Zn4      1.0000 0.26733  0.19625  0.85256  Biso   1.000  Zn
  O1       1.0000 0.88380  0.60050  0.82650  Biso   1.000  O
  O2       1.0000 0.11620  0.39950  0.32650  Biso   1.000  O
  O3       1.0000 0.61620  0.10050  0.32650  Biso   1.000  O
  O4       1.0000 0.38380  0.89950  0.82650  Biso   1.000  O
  O5       1.0000 0.81046  0.47060  0.94030  Biso   1.000  O
  O6       1.0000 0.18954  0.52940  0.44030  Biso   1.000  O
  O7       1.0000 0.68954  0.97060  0.44030  Biso   1.000  O
  O8       1.0000 0.31046  0.02940  0.94030  Biso   1.000  O
  O9       1.0000 0.82926  0.90100  0.89930  Biso   1.000  O
  O10      1.0000 0.17074  0.09900  0.39930  Biso   1.000  O
  O11      1.0000 0.67074  0.40100  0.39930  Biso   1.000  O
  O12      1.0000 0.32926  0.59900  0.89930  Biso   1.000  O
  O13      1.0000 0.78540  0.98260  0.05080  Biso   1.000  O
  O14      1.0000 0.21460  0.01740  0.55080  Biso   1.000  O
  O15      1.0000 0.71460  0.48260  0.55080  Biso   1.000  O
  O16      1.0000 0.28540  0.51740  0.05080  Biso   1.000  O
  O17      1.0000 0.00501  0.01980  0.84330  Biso   1.000  O
  O18      1.0000 0.99499  0.98020  0.34330  Biso   1.000  O
  O19      1.0000 0.49499  0.51980  0.34330  Biso   1.000  O
  O20      1.0000 0.50501  0.48020  0.84330  Biso   1.000  O
  O21      1.0000 0.13689  0.12440  0.81760  Biso   1.000  O
  O22      1.0000 0.86311  0.87560  0.31760  Biso   1.000  O
  O23      1.0000 0.36311  0.62440  0.31760  Biso   1.000  O
  O24      1.0000 0.63689  0.37560  0.81760  Biso   1.000  O
  O25      1.0000 0.92708  0.82130  0.68300  Biso   1.000  O
  O26      1.0000 0.07292  0.17870  0.18300  Biso   1.000  O
  O27      1.0000 0.57292  0.32130  0.18300  Biso   1.000  O
  O28      1.0000 0.42708  0.67870  0.68300  Biso   1.000  O
  O29      1.0000 0.97660  0.70930  0.54590  Biso   1.000  O
  O30      1.0000 0.02340  0.29070  0.04590  Biso   1.000  O
  O31      1.0000 0.52340  0.20930  0.04590  Biso   1.000  O
  O32      1.0000 0.47660  0.79070  0.54590  Biso   1.000  O
  N1       1.0000 0.96600  0.75520  0.98140  Biso   1.000  N
  N2       1.0000 0.03400  0.24480  0.48140  Biso   1.000  N
  N3       1.0000 0.53400  0.25520  0.48140  Biso   1.000  N
  N4       1.0000 0.46600  0.74480  0.98140  Biso   1.000  N
  N5       1.0000 0.07338  0.76240  0.79890  Biso   1.000  N
  N6       1.0000 0.92662  0.23760  0.29890  Biso   1.000  N
  N7       1.0000 0.42662  0.26240  0.29890  Biso   1.000  N
  N8       1.0000 0.57338  0.73760  0.79890  Biso   1.000  N
  C1       1.0000 0.06720  0.73840  0.98620  Biso   1.000  C
  C2       1.0000 0.93280  0.26160  0.48620  Biso   1.000  C
  C3       1.0000 0.43280  0.23840  0.48620  Biso   1.000  C
  C4       1.0000 0.56720  0.76160  0.98620  Biso   1.000  C
  H1       1.0000 0.08340  0.68030  0.04360  Biso   1.000  H
  H2       1.0000 0.91660  0.31970  0.54360  Biso   1.000  H
  H3       1.0000 0.41660  0.18030  0.54360  Biso   1.000  H
  H4       1.0000 0.58340  0.81970  0.04360  Biso   1.000  H
  H5       1.0000 0.09620  0.82610  0.99640  Biso   1.000  H
  H6       1.0000 0.90380  0.17390  0.49640  Biso   1.000  H
  H7       1.0000 0.40380  0.32610  0.49640  Biso   1.000  H
  H8       1.0000 0.59620  0.67390  0.99640  Biso   1.000  H
  C5       1.0000 0.10080  0.67540  0.88630  Biso   1.000  C
  C6       1.0000 0.89920  0.32460  0.38630  Biso   1.000  C
  C7       1.0000 0.39920  0.17540  0.38630  Biso   1.000  C
  C8       1.0000 0.60080  0.82460  0.88630  Biso   1.000  C
  H9       1.0000 0.16700  0.66650  0.88800  Biso   1.000  H
  H10      1.0000 0.83300  0.33350  0.38800  Biso   1.000  H
  H11      1.0000 0.33300  0.16650  0.38800  Biso   1.000  H
  H12      1.0000 0.66700  0.83350  0.88800  Biso   1.000  H
  H13      1.0000 0.07450  0.58550  0.87820  Biso   1.000  H
  H14      1.0000 0.92550  0.41450  0.37820  Biso   1.000  H
  H15      1.0000 0.42550  0.08550  0.37820  Biso   1.000  H
  H16      1.0000 0.57450  0.91450  0.87820  Biso   1.000  H
  C9       1.0000 0.86610  0.56260  0.91630  Biso   1.000  C
  C10      1.0000 0.13390  0.43740  0.41630  Biso   1.000  C
  C11      1.0000 0.63390  0.06260  0.41630  Biso   1.000  C
  C12      1.0000 0.36610  0.93740  0.91630  Biso   1.000  C
  C13      1.0000 0.91550  0.62750  0.00600  Biso   1.000  C
  C14      1.0000 0.08450  0.37250  0.50600  Biso   1.000  C
  C15      1.0000 0.58450  0.12750  0.50600  Biso   1.000  C
  C16      1.0000 0.41550  0.87250  0.00600  Biso   1.000  C
  H17      1.0000 0.87100  0.64710  0.05930  Biso   1.000  H
  H18      1.0000 0.12900  0.35290  0.55930  Biso   1.000  H
  H19      1.0000 0.62900  0.14710  0.55930  Biso   1.000  H
  H20      1.0000 0.37100  0.85290  0.05930  Biso   1.000  H
  H21      1.0000 0.95880  0.56220  0.03370  Biso   1.000  H
  H22      1.0000 0.04120  0.43780  0.53370  Biso   1.000  H
  H23      1.0000 0.54120  0.06220  0.53370  Biso   1.000  H
  H24      1.0000 0.45880  0.93780  0.03370  Biso   1.000  H
  C17      1.0000 0.84090  0.92070  0.99500  Biso   1.000  C
  C18      1.0000 0.15910  0.07930  0.49500  Biso   1.000  C
  C19      1.0000 0.65910  0.42070  0.49500  Biso   1.000  C
  C20      1.0000 0.34090  0.57930  0.99500  Biso   1.000  C
  C21      1.0000 0.92950  0.87000  0.04390  Biso   1.000  C
  C22      1.0000 0.07050  0.13000  0.54390  Biso   1.000  C
  C23      1.0000 0.57050  0.37000  0.54390  Biso   1.000  C
  C24      1.0000 0.42950  0.63000  0.04390  Biso   1.000  C
  H25      1.0000 0.97410  0.94300  0.04650  Biso   1.000  H
  H26      1.0000 0.02590  0.05700  0.54650  Biso   1.000  H
  H27      1.0000 0.52590  0.44300  0.54650  Biso   1.000  H
  H28      1.0000 0.47410  0.55700  0.04650  Biso   1.000  H
  H29      1.0000 0.91770  0.83970  0.11360  Biso   1.000  H
  H30      1.0000 0.08230  0.16030  0.61360  Biso   1.000  H
  H31      1.0000 0.58230  0.33970  0.61360  Biso   1.000  H
  H32      1.0000 0.41770  0.66030  0.11360  Biso   1.000  H
  C25      1.0000 0.08850  0.02020  0.82110  Biso   1.000  C
  C26      1.0000 0.91150  0.97980  0.32110  Biso   1.000  C
  C27      1.0000 0.41150  0.52020  0.32110  Biso   1.000  C
  C28      1.0000 0.58850  0.47980  0.82110  Biso   1.000  C
  C29      1.0000 0.13260  0.88610  0.78960  Biso   1.000  C
  C30      1.0000 0.86740  0.11390  0.28960  Biso   1.000  C
  C31      1.0000 0.36740  0.38610  0.28960  Biso   1.000  C
  C32      1.0000 0.63260  0.61390  0.78960  Biso   1.000  C
  H33      1.0000 0.15250  0.89380  0.71870  Biso   1.000  H
  H34      1.0000 0.84750  0.10620  0.21870  Biso   1.000  H
  H35      1.0000 0.34750  0.39380  0.21870  Biso   1.000  H
  H36      1.0000 0.65250  0.60620  0.71870  Biso   1.000  H
  H37      1.0000 0.18690  0.87240  0.83140  Biso   1.000  H
  H38      1.0000 0.81310  0.12760  0.33140  Biso   1.000  H
  H39      1.0000 0.31310  0.37240  0.33140  Biso   1.000  H
  H40      1.0000 0.68690  0.62760  0.83140  Biso   1.000  H
  C33      1.0000 0.98370  0.74470  0.63760  Biso   1.000  C
  C34      1.0000 0.01630  0.25530  0.13760  Biso   1.000  C
  C35      1.0000 0.51630  0.24470  0.13760  Biso   1.000  C
  C36      1.0000 0.48370  0.75530  0.63760  Biso   1.000  C
  C37      1.0000 0.06490  0.69080  0.69990  Biso   1.000  C
  C38      1.0000 0.93510  0.30920  0.19990  Biso   1.000  C
  C39      1.0000 0.43510  0.19080  0.19990  Biso   1.000  C
  C40      1.0000 0.56490  0.80920  0.69990  Biso   1.000  C
  H41      1.0000 0.05670  0.59450  0.71240  Biso   1.000  H
  H42      1.0000 0.94330  0.40550  0.21240  Biso   1.000  H
  H43      1.0000 0.44330  0.09450  0.21240  Biso   1.000  H
  H44      1.0000 0.55670  0.90550  0.71240  Biso   1.000  H
  H45      1.0000 0.12090  0.70260  0.66070  Biso   1.000  H
  H46      1.0000 0.87910  0.29740  0.16070  Biso   1.000  H
  H47      1.0000 0.37910  0.20260  0.16070  Biso   1.000  H
  H48      1.0000 0.62090  0.79740  0.66070  Biso   1.000  H
  O33      1.0000 0.82072  0.39090  0.71610  Biso   1.000  O
  O34      1.0000 0.17928  0.60910  0.21610  Biso   1.000  O
  O35      1.0000 0.67928  0.89090  0.21610  Biso   1.000  O
  O36      1.0000 0.32072  0.10910  0.71610  Biso   1.000  O
  H49      1.0000 0.78220  0.41090  0.66750  Biso   1.000  H
  H50      1.0000 0.21780  0.58910  0.16750  Biso   1.000  H
  H51      1.0000 0.71780  0.91090  0.16750  Biso   1.000  H
  H52      1.0000 0.28220  0.08910  0.66750  Biso   1.000  H
  H53      1.0000 0.81980  0.47160  0.75640  Biso   1.000  H
  H54      1.0000 0.18020  0.52840  0.25640  Biso   1.000  H
  H55      1.0000 0.68020  0.97160  0.25640  Biso   1.000  H
  H56      1.0000 0.31980  0.02840  0.75640  Biso   1.000  H
  O37      1.0000 0.89811  0.23050  0.89550  Biso   1.000  O
  O38      1.0000 0.10189  0.76950  0.39550  Biso   1.000  O
  O39      1.0000 0.60189  0.73050  0.39550  Biso   1.000  O
  O40      1.0000 0.39811  0.26950  0.89550  Biso   1.000  O
  H57      1.0000 0.91760  0.15930  0.87190  Biso   1.000  H
  H58      1.0000 0.08240  0.84070  0.37190  Biso   1.000  H
  H59      1.0000 0.58240  0.65930  0.37190  Biso   1.000  H
  H60      1.0000 0.41760  0.34070  0.87190  Biso   1.000  H
  H61      1.0000 0.93420  0.26030  0.94080  Biso   1.000  H
  H62      1.0000 0.06580  0.73970  0.44080  Biso   1.000  H
  H63      1.0000 0.56580  0.76030  0.44080  Biso   1.000  H
  H64      1.0000 0.43420  0.23970  0.94080  Biso   1.000  H
  O41      1.0000 0.70940  0.22300  0.98650  Biso   1.000  O
  O42      1.0000 0.29060  0.77700  0.48650  Biso   1.000  O
  O43      1.0000 0.79060  0.72300  0.48650  Biso   1.000  O
  O44      1.0000 0.20940  0.27700  0.98650  Biso   1.000  O
  H65      1.0000 0.73660  0.15130  0.99620  Biso   1.000  H
  H66      1.0000 0.26340  0.84870  0.49620  Biso   1.000  H
  H67      1.0000 0.76340  0.65130  0.49620  Biso   1.000  H
  H68      1.0000 0.23660  0.34870  0.99620  Biso   1.000  H
  H69      1.0000 0.65420  0.23280  0.99930  Biso   1.000  H
  H70      1.0000 0.34580  0.76720  0.49930  Biso   1.000  H
  H71      1.0000 0.84580  0.73280  0.49930  Biso   1.000  H
  H72      1.0000 0.15420  0.26720  0.99930  Biso   1.000  H
  O45      1.0000 0.74467  0.11650  0.78150  Biso   1.000  O
  O46      1.0000 0.25533  0.88350  0.28150  Biso   1.000  O
  O47      1.0000 0.75533  0.61650  0.28150  Biso   1.000  O
  O48      1.0000 0.24467  0.38350  0.78150  Biso   1.000  O
  H73      1.0000 0.75390  0.04450  0.81610  Biso   1.000  H
  H74      1.0000 0.24610  0.95550  0.31610  Biso   1.000  H
  H75      1.0000 0.74610  0.54450  0.31610  Biso   1.000  H
  H76      1.0000 0.25390  0.45550  0.81610  Biso   1.000  H
  H77      1.0000 0.73710  0.09350  0.71920  Biso   1.000  H
  H78      1.0000 0.26290  0.90650  0.21920  Biso   1.000  H
  H79      1.0000 0.76290  0.59350  0.21920  Biso   1.000  H
  H80      1.0000 0.23710  0.40650  0.71920  Biso   1.000  H
  O49      1.0000 0.53300  0.13550  0.74540  Biso   1.000  O
  O50      1.0000 0.46700  0.86450  0.24540  Biso   1.000  O
  O51      1.0000 0.96700  0.63550  0.24540  Biso   1.000  O
  O52      1.0000 0.03300  0.36450  0.74540  Biso   1.000  O
  H81      1.0000 0.57980  0.17250  0.76830  Biso   1.000  H
  H82      1.0000 0.42020  0.82750  0.26830  Biso   1.000  H
  H83      1.0000 0.92020  0.67250  0.26830  Biso   1.000  H
  H84      1.0000 0.07980  0.32750  0.76830  Biso   1.000  H
  H85      1.0000 0.48100  0.16690  0.76220  Biso   1.000  H
  H86      1.0000 0.51900  0.83310  0.26220  Biso   1.000  H
  H87      1.0000 0.01900  0.66690  0.26220  Biso   1.000  H
  H88      1.0000 0.98100  0.33310  0.76220  Biso   1.000  H
  O53      1.0000 0.80900  0.01640  0.60380  Biso   1.000  O
  O54      1.0000 0.19100  0.98360  0.10380  Biso   1.000  O
  O55      1.0000 0.69100  0.51640  0.10380  Biso   1.000  O
  O56      1.0000 0.30900  0.48360  0.60380  Biso   1.000  O
  H89      1.0000 0.77360  0.95390  0.56260  Biso   1.000  H
  H90      1.0000 0.22640  0.04610  0.06260  Biso   1.000  H
  H91      1.0000 0.72640  0.45390  0.06260  Biso   1.000  H
  H92      1.0000 0.27360  0.54610  0.56260  Biso   1.000  H
  H93      1.0000 0.84920  0.95730  0.61340  Biso   1.000  H
  H94      1.0000 0.15080  0.04270  0.11340  Biso   1.000  H
  H95      1.0000 0.65080  0.45730  0.11340  Biso   1.000  H
  H96      1.0000 0.34920  0.54270  0.61340  Biso   1.000  H
