data_image0
_cell_length_a       15.421
_cell_length_b       16.594
_cell_length_c       10.537
_cell_angle_alpha    115.08
_cell_angle_beta     103.21
_cell_angle_gamma    57.48

_symmetry_space_group_name_H-M    "P 1"
_symmetry_int_tables_number       1

loop_
  _symmetry_equiv_pos_as_xyz
  'x, y, z'

loop_
  _atom_site_label
  _atom_site_occupancy
  _atom_site_fract_x
  _atom_site_fract_y
  _atom_site_fract_z
  _atom_site_thermal_displace_type
  _atom_site_B_iso_or_equiv
  _atom_site_type_symbol
  Cu1      1.0000 0.03110  0.07490  0.41470  Biso   1.000  Cu
  Cu2      1.0000 0.96890  0.92510  0.58530  Biso   1.000  Cu
  O1       1.0000 0.96620  0.18270  0.59010  Biso   1.000  O
  O2       1.0000 0.03380  0.81730  0.40990  Biso   1.000  O
  N1       1.0000 0.90350  0.07060  0.33780  Biso   1.000  N
  N2       1.0000 0.09650  0.92940  0.66220  Biso   1.000  N
  N3       1.0000 0.12320  0.93580  0.26640  Biso   1.000  N
  N4       1.0000 0.87680  0.06420  0.73360  Biso   1.000  N
  N5       1.0000 0.16690  0.04530  0.50630  Biso   1.000  N
  N6       1.0000 0.83310  0.95470  0.49370  Biso   1.000  N
  N7       1.0000 0.31050  0.01510  0.63610  Biso   1.000  N
  N8       1.0000 0.68950  0.98490  0.36390  Biso   1.000  N
  C1       1.0000 0.86860  0.24120  0.61640  Biso   1.000  C
  C2       1.0000 0.13140  0.75880  0.38360  Biso   1.000  C
  C3       1.0000 0.83640  0.32440  0.74810  Biso   1.000  C
  C4       1.0000 0.16360  0.67560  0.25190  Biso   1.000  C
  C5       1.0000 0.73540  0.38930  0.78300  Biso   1.000  C
  C6       1.0000 0.26460  0.61070  0.21700  Biso   1.000  C
  C7       1.0000 0.66070  0.37590  0.68660  Biso   1.000  C
  C8       1.0000 0.33930  0.62410  0.31340  Biso   1.000  C
  C9       1.0000 0.68740  0.29560  0.56030  Biso   1.000  C
  C10      1.0000 0.31260  0.70440  0.43970  Biso   1.000  C
  C11      1.0000 0.79260  0.22580  0.52210  Biso   1.000  C
  C12      1.0000 0.20740  0.77420  0.47790  Biso   1.000  C
  C13      1.0000 0.81430  0.13980  0.39240  Biso   1.000  C
  C14      1.0000 0.18570  0.86020  0.60760  Biso   1.000  C
  C15      1.0000 0.90640  0.98540  0.20600  Biso   1.000  C
  C16      1.0000 0.09360  0.01460  0.79400  Biso   1.000  C
  C17      1.0000 0.97490  0.95150  0.10760  Biso   1.000  C
  C18      1.0000 0.02510  0.04850  0.89240  Biso   1.000  C
  C19      1.0000 0.09120  0.88160  0.13050  Biso   1.000  C
  C20      1.0000 0.90880  0.11840  0.86950  Biso   1.000  C
  C21      1.0000 0.21770  0.89480  0.30000  Biso   1.000  C
  C22      1.0000 0.78230  0.10520  0.70000  Biso   1.000  C
  C23      1.0000 0.24570  0.95110  0.43360  Biso   1.000  C
  C24      1.0000 0.75430  0.04890  0.56640  Biso   1.000  C
  C25      1.0000 0.33400  0.93210  0.51380  Biso   1.000  C
  C26      1.0000 0.66600  0.06790  0.48620  Biso   1.000  C
  C27      1.0000 0.20830  0.08210  0.62800  Biso   1.000  C
  C28      1.0000 0.79170  0.91790  0.37200  Biso   1.000  C
  Cu3      1.0000 0.39400  0.03120  0.83980  Biso   1.000  Cu
  Cu4      1.0000 0.60600  0.96880  0.16020  Biso   1.000  Cu
  O3       1.0000 0.35130  0.96610  0.90780  Biso   1.000  O
  O4       1.0000 0.64870  0.03390  0.09220  Biso   1.000  O
  N9       1.0000 0.52560  0.90380  0.76690  Biso   1.000  N
  N10      1.0000 0.47440  0.09620  0.23310  Biso   1.000  N
  N11      1.0000 0.44110  0.12270  0.83060  Biso   1.000  N
  N12      1.0000 0.55890  0.87730  0.16940  Biso   1.000  N
  N13      1.0000 0.28800  0.16690  0.96160  Biso   1.000  N
  N14      1.0000 0.71200  0.83310  0.03840  Biso   1.000  N
  N15      1.0000 0.17490  0.31000  0.12050  Biso   1.000  N
  N16      1.0000 0.82510  0.69000  0.87950  Biso   1.000  N
  C29      1.0000 0.39050  0.86830  0.87430  Biso   1.000  C
  C30      1.0000 0.60950  0.13170  0.12570  Biso   1.000  C
  C31      1.0000 0.33930  0.83690  0.92440  Biso   1.000  C
  C32      1.0000 0.66070  0.16310  0.07560  Biso   1.000  C
  C33      1.0000 0.37480  0.73590  0.89390  Biso   1.000  C
  C34      1.0000 0.62520  0.26410  0.10610  Biso   1.000  C
  C35      1.0000 0.46380  0.66020  0.81240  Biso   1.000  C
  C36      1.0000 0.53620  0.33980  0.18760  Biso   1.000  C
  C37      1.0000 0.51700  0.68760  0.76500  Biso   1.000  C
  C38      1.0000 0.48300  0.31240  0.23500  Biso   1.000  C
  C39      1.0000 0.48080  0.79340  0.79710  Biso   1.000  C
  C40      1.0000 0.51920  0.20660  0.20290  Biso   1.000  C
  C41      1.0000 0.54570  0.81450  0.75240  Biso   1.000  C
  C42      1.0000 0.45430  0.18550  0.24760  Biso   1.000  C
  C43      1.0000 0.60810  0.90700  0.72180  Biso   1.000  C
  C44      1.0000 0.39190  0.09300  0.27820  Biso   1.000  C
  C45      1.0000 0.57480  0.97300  0.65530  Biso   1.000  C
  C46      1.0000 0.42520  0.02700  0.34470  Biso   1.000  C
  C47      1.0000 0.52720  0.09130  0.74780  Biso   1.000  C
  C48      1.0000 0.47280  0.90870  0.25220  Biso   1.000  C
  C49      1.0000 0.38780  0.21780  0.90540  Biso   1.000  C
  C50      1.0000 0.61220  0.78220  0.09460  Biso   1.000  C
  C51      1.0000 0.30320  0.24620  0.98260  Biso   1.000  C
  C52      1.0000 0.69680  0.75380  0.01740  Biso   1.000  C
  C53      1.0000 0.23400  0.33390  0.08210  Biso   1.000  C
  C54      1.0000 0.76600  0.66610  0.91790  Biso   1.000  C
  C55      1.0000 0.20940  0.20890  0.04580  Biso   1.000  C
  C56      1.0000 0.79060  0.79110  0.95420  Biso   1.000  C
  Cu5      1.0000 0.07500  0.39390  0.30860  Biso   1.000  Cu
  Cu6      1.0000 0.92500  0.60610  0.69140  Biso   1.000  Cu
  O5       1.0000 0.18260  0.35150  0.44160  Biso   1.000  O
  O6       1.0000 0.81740  0.64850  0.55840  Biso   1.000  O
  N17      1.0000 0.06980  0.52620  0.36310  Biso   1.000  N
  N18      1.0000 0.93020  0.47380  0.63690  Biso   1.000  N
  N19      1.0000 0.93560  0.44110  0.20730  Biso   1.000  N
  N20      1.0000 0.06440  0.55890  0.79270  Biso   1.000  N
  N21      1.0000 0.04530  0.28730  0.29350  Biso   1.000  N
  N22      1.0000 0.95470  0.71270  0.70650  Biso   1.000  N
  N23      1.0000 0.01520  0.17460  0.31060  Biso   1.000  N
  N24      1.0000 0.98480  0.82540  0.68940  Biso   1.000  N
  C57      1.0000 0.24180  0.38990  0.50690  Biso   1.000  C
  C58      1.0000 0.75820  0.61010  0.49310  Biso   1.000  C
  C59      1.0000 0.32350  0.33970  0.58710  Biso   1.000  C
  C60      1.0000 0.67650  0.66030  0.41290  Biso   1.000  C
  C61      1.0000 0.39030  0.37530  0.65720  Biso   1.000  C
  C62      1.0000 0.60970  0.62470  0.34280  Biso   1.000  C
  C63      1.0000 0.37690  0.46420  0.65180  Biso   1.000  C
  C64      1.0000 0.62310  0.53580  0.34820  Biso   1.000  C
  C65      1.0000 0.29610  0.51660  0.57680  Biso   1.000  C
  C66      1.0000 0.70390  0.48340  0.42320  Biso   1.000  C
  C67      1.0000 0.22560  0.48130  0.50350  Biso   1.000  C
  C68      1.0000 0.77440  0.51870  0.49650  Biso   1.000  C
  C69      1.0000 0.14020  0.54590  0.43840  Biso   1.000  C
  C70      1.0000 0.85980  0.45410  0.56160  Biso   1.000  C
  C71      1.0000 0.98560  0.60860  0.31620  Biso   1.000  C
  C72      1.0000 0.01440  0.39140  0.68380  Biso   1.000  C
  C73      1.0000 0.95350  0.57370  0.18190  Biso   1.000  C
  C74      1.0000 0.04650  0.42630  0.81810  Biso   1.000  C
  C75      1.0000 0.88110  0.52730  0.15700  Biso   1.000  C
  C76      1.0000 0.11890  0.47270  0.84300  Biso   1.000  C
  C77      1.0000 0.89410  0.38770  0.18790  Biso   1.000  C
  C78      1.0000 0.10590  0.61230  0.81210  Biso   1.000  C
  C79      1.0000 0.95020  0.30380  0.23710  Biso   1.000  C
  C80      1.0000 0.04980  0.69620  0.76290  Biso   1.000  C
  C81      1.0000 0.93150  0.23430  0.24800  Biso   1.000  C
  C82      1.0000 0.06850  0.76570  0.75200  Biso   1.000  C
  C83      1.0000 0.08160  0.20980  0.33720  Biso   1.000  C
  C84      1.0000 0.91840  0.79020  0.66280  Biso   1.000  C
  H1       1.0000 0.89300  0.33600  0.82200  Biso   1.000  H
  H2       1.0000 0.10700  0.66400  0.17800  Biso   1.000  H
  H3       1.0000 0.71400  0.45100  0.88600  Biso   1.000  H
  H4       1.0000 0.28600  0.54900  0.11400  Biso   1.000  H
  H5       1.0000 0.58100  0.43100  0.71400  Biso   1.000  H
  H6       1.0000 0.41900  0.56900  0.28600  Biso   1.000  H
  H7       1.0000 0.62500  0.29000  0.49400  Biso   1.000  H
  H8       1.0000 0.37500  0.71000  0.50600  Biso   1.000  H
  H9       1.0000 0.74000  0.15000  0.33200  Biso   1.000  H
  H10      1.0000 0.26000  0.85000  0.66800  Biso   1.000  H
  H11      1.0000 0.27400  0.82400  0.24500  Biso   1.000  H
  H12      1.0000 0.72600  0.17600  0.75500  Biso   1.000  H
  H13      1.0000 0.40400  0.87200  0.49600  Biso   1.000  H
  H14      1.0000 0.59600  0.12800  0.50400  Biso   1.000  H
  H15      1.0000 0.27200  0.89300  0.98800  Biso   1.000  H
  H16      1.0000 0.72800  0.10700  0.01200  Biso   1.000  H
  H17      1.0000 0.33300  0.71700  0.93600  Biso   1.000  H
  H18      1.0000 0.66700  0.28300  0.06400  Biso   1.000  H
  H19      1.0000 0.49100  0.58000  0.78700  Biso   1.000  H
  H20      1.0000 0.50900  0.42000  0.21300  Biso   1.000  H
  H21      1.0000 0.58400  0.62700  0.70400  Biso   1.000  H
  H22      1.0000 0.41600  0.37300  0.29600  Biso   1.000  H
  H23      1.0000 0.61000  0.74000  0.70000  Biso   1.000  H
  H24      1.0000 0.39000  0.26000  0.30000  Biso   1.000  H
  H25      1.0000 0.40400  0.27300  0.91700  Biso   1.000  H
  H26      1.0000 0.59600  0.72700  0.08300  Biso   1.000  H
  H27      1.0000 0.21700  0.40800  0.12300  Biso   1.000  H
  H28      1.0000 0.78300  0.59200  0.87700  Biso   1.000  H
  H29      1.0000 0.17800  0.16000  0.04500  Biso   1.000  H
  H30      1.0000 0.82200  0.84000  0.95500  Biso   1.000  H
  H31      1.0000 0.33400  0.27200  0.59400  Biso   1.000  H
  H32      1.0000 0.66600  0.72800  0.40600  Biso   1.000  H
  H33      1.0000 0.45200  0.33300  0.71700  Biso   1.000  H
  H34      1.0000 0.54800  0.66700  0.28300  Biso   1.000  H
  H35      1.0000 0.42800  0.49300  0.70800  Biso   1.000  H
  H36      1.0000 0.57200  0.50700  0.29200  Biso   1.000  H
  H37      1.0000 0.28900  0.58400  0.57500  Biso   1.000  H
  H38      1.0000 0.71100  0.41600  0.42500  Biso   1.000  H
  H39      1.0000 0.12400  0.62200  0.45600  Biso   1.000  H
  H40      1.0000 0.87600  0.37800  0.54400  Biso   1.000  H
  H41      1.0000 0.82200  0.41400  0.15300  Biso   1.000  H
  H42      1.0000 0.17800  0.58600  0.84700  Biso   1.000  H
  H43      1.0000 0.87100  0.22400  0.21200  Biso   1.000  H
  H44      1.0000 0.12900  0.77600  0.78800  Biso   1.000  H
  H45      1.0000 0.15200  0.18500  0.39400  Biso   1.000  H
  H46      1.0000 0.84800  0.81500  0.60600  Biso   1.000  H
