data_image0
_cell_length_a       15.427
_cell_length_b       15.427
_cell_length_c       15.427
_cell_angle_alpha    114.98
_cell_angle_beta     114.98
_cell_angle_gamma    114.98

_symmetry_space_group_name_H-M    "P 1"
_symmetry_int_tables_number       1

loop_
  _symmetry_equiv_pos_as_xyz
  'x, y, z'

loop_
  _atom_site_label
  _atom_site_occupancy
  _atom_site_fract_x
  _atom_site_fract_y
  _atom_site_fract_z
  _atom_site_thermal_displace_type
  _atom_site_B_iso_or_equiv
  _atom_site_type_symbol
  Cu1      1.0000 0.41470  0.30860  0.83980  Biso   1.000  Cu
  Cu2      1.0000 0.83980  0.41470  0.30860  Biso   1.000  Cu
  Cu3      1.0000 0.30860  0.83980  0.41470  Biso   1.000  Cu
  Cu4      1.0000 0.58530  0.69140  0.16020  Biso   1.000  Cu
  Cu5      1.0000 0.16020  0.58530  0.69140  Biso   1.000  Cu
  Cu6      1.0000 0.69140  0.16020  0.58530  Biso   1.000  Cu
  N1       1.0000 0.33740  0.36330  0.76710  Biso   1.000  N
  N2       1.0000 0.76710  0.33740  0.36330  Biso   1.000  N
  N3       1.0000 0.36330  0.76710  0.33740  Biso   1.000  N
  N4       1.0000 0.66260  0.63670  0.23290  Biso   1.000  N
  N5       1.0000 0.23290  0.66260  0.63670  Biso   1.000  N
  N6       1.0000 0.63670  0.23290  0.66260  Biso   1.000  N
  N7       1.0000 0.50640  0.29410  0.96120  Biso   1.000  N
  N8       1.0000 0.96120  0.50640  0.29410  Biso   1.000  N
  N9       1.0000 0.29410  0.96120  0.50640  Biso   1.000  N
  N10      1.0000 0.49360  0.70590  0.03880  Biso   1.000  N
  N11      1.0000 0.03880  0.49360  0.70590  Biso   1.000  N
  N12      1.0000 0.70590  0.03880  0.49360  Biso   1.000  N
  C1       1.0000 0.61630  0.50650  0.87490  Biso   1.000  C
  C2       1.0000 0.87490  0.61630  0.50650  Biso   1.000  C
  C3       1.0000 0.50650  0.87490  0.61630  Biso   1.000  C
  C4       1.0000 0.38370  0.49350  0.12510  Biso   1.000  C
  C5       1.0000 0.12510  0.38370  0.49350  Biso   1.000  C
  C6       1.0000 0.49350  0.12510  0.38370  Biso   1.000  C
  C7       1.0000 0.78270  0.65780  0.89310  Biso   1.000  C
  C8       1.0000 0.89310  0.78270  0.65780  Biso   1.000  C
  C9       1.0000 0.65780  0.89310  0.78270  Biso   1.000  C
  C10      1.0000 0.21730  0.34220  0.10690  Biso   1.000  C
  C11      1.0000 0.10690  0.21730  0.34220  Biso   1.000  C
  C12      1.0000 0.34220  0.10690  0.21730  Biso   1.000  C
  C13      1.0000 0.56030  0.57720  0.76460  Biso   1.000  C
  C14      1.0000 0.76460  0.56030  0.57720  Biso   1.000  C
  C15      1.0000 0.57720  0.76460  0.56030  Biso   1.000  C
  C16      1.0000 0.43970  0.42280  0.23540  Biso   1.000  C
  C17      1.0000 0.23540  0.43970  0.42280  Biso   1.000  C
  C18      1.0000 0.42280  0.23540  0.43970  Biso   1.000  C
  C19      1.0000 0.39240  0.43820  0.75240  Biso   1.000  C
  C20      1.0000 0.75240  0.39240  0.43820  Biso   1.000  C
  C21      1.0000 0.43820  0.75240  0.39240  Biso   1.000  C
  C22      1.0000 0.60760  0.56180  0.24760  Biso   1.000  C
  C23      1.0000 0.24760  0.60760  0.56180  Biso   1.000  C
  C24      1.0000 0.56180  0.24760  0.60760  Biso   1.000  C
  C25      1.0000 0.10780  0.18180  0.65540  Biso   1.000  C
  C26      1.0000 0.65540  0.10780  0.18180  Biso   1.000  C
  C27      1.0000 0.18180  0.65540  0.10780  Biso   1.000  C
  C28      1.0000 0.89220  0.81820  0.34460  Biso   1.000  C
  C29      1.0000 0.34460  0.89220  0.81820  Biso   1.000  C
  C30      1.0000 0.81820  0.34460  0.89220  Biso   1.000  C
  C31      1.0000 0.30000  0.18770  0.90560  Biso   1.000  C
  C32      1.0000 0.90560  0.30000  0.18770  Biso   1.000  C
  C33      1.0000 0.18770  0.90560  0.30000  Biso   1.000  C
  C34      1.0000 0.70000  0.81230  0.09440  Biso   1.000  C
  C35      1.0000 0.09440  0.70000  0.81230  Biso   1.000  C
  C36      1.0000 0.81230  0.09440  0.70000  Biso   1.000  C
  C37      1.0000 0.51390  0.24800  0.08200  Biso   1.000  C
  C38      1.0000 0.08200  0.51390  0.24800  Biso   1.000  C
  C39      1.0000 0.24800  0.08200  0.51390  Biso   1.000  C
  C40      1.0000 0.48610  0.75200  0.91800  Biso   1.000  C
  C41      1.0000 0.91800  0.48610  0.75200  Biso   1.000  C
  C42      1.0000 0.75200  0.91800  0.48610  Biso   1.000  C
  O1       1.0000 0.59020  0.44150  0.90760  Biso   1.000  O
  O2       1.0000 0.90760  0.59020  0.44150  Biso   1.000  O
  O3       1.0000 0.44150  0.90760  0.59020  Biso   1.000  O
  O4       1.0000 0.40980  0.55850  0.09240  Biso   1.000  O
  O5       1.0000 0.09240  0.40980  0.55850  Biso   1.000  O
  O6       1.0000 0.55850  0.09240  0.40980  Biso   1.000  O
  N13      1.0000 0.26650  0.20750  0.83060  Biso   1.000  N
  N14      1.0000 0.83060  0.26650  0.20750  Biso   1.000  N
  N15      1.0000 0.20750  0.83060  0.26650  Biso   1.000  N
  N16      1.0000 0.73350  0.79250  0.16940  Biso   1.000  N
  N17      1.0000 0.16940  0.73350  0.79250  Biso   1.000  N
  N18      1.0000 0.79250  0.16940  0.73350  Biso   1.000  N
  N19      1.0000 0.31050  0.12080  0.63590  Biso   1.000  N
  N20      1.0000 0.63590  0.31050  0.12080  Biso   1.000  N
  N21      1.0000 0.12080  0.63590  0.31050  Biso   1.000  N
  N22      1.0000 0.68950  0.87920  0.36410  Biso   1.000  N
  N23      1.0000 0.36410  0.68950  0.87920  Biso   1.000  N
  N24      1.0000 0.87920  0.36410  0.68950  Biso   1.000  N
  C43      1.0000 0.74790  0.58730  0.92400  Biso   1.000  C
  C44      1.0000 0.92400  0.74790  0.58730  Biso   1.000  C
  C45      1.0000 0.58730  0.92400  0.74790  Biso   1.000  C
  C46      1.0000 0.25210  0.41270  0.07600  Biso   1.000  C
  C47      1.0000 0.07600  0.25210  0.41270  Biso   1.000  C
  C48      1.0000 0.41270  0.07600  0.25210  Biso   1.000  C
  C49      1.0000 0.68750  0.65130  0.81130  Biso   1.000  C
  C50      1.0000 0.81130  0.68750  0.65130  Biso   1.000  C
  C51      1.0000 0.65130  0.81130  0.68750  Biso   1.000  C
  C52      1.0000 0.31250  0.34870  0.18870  Biso   1.000  C
  C53      1.0000 0.18870  0.31250  0.34870  Biso   1.000  C
  C54      1.0000 0.34870  0.18870  0.31250  Biso   1.000  C
  C55      1.0000 0.52240  0.50360  0.79670  Biso   1.000  C
  C56      1.0000 0.79670  0.52240  0.50360  Biso   1.000  C
  C57      1.0000 0.50360  0.79670  0.52240  Biso   1.000  C
  C58      1.0000 0.47760  0.49640  0.20330  Biso   1.000  C
  C59      1.0000 0.20330  0.47760  0.49640  Biso   1.000  C
  C60      1.0000 0.49640  0.20330  0.47760  Biso   1.000  C
  C61      1.0000 0.20680  0.31510  0.72150  Biso   1.000  C
  C62      1.0000 0.72150  0.20680  0.31510  Biso   1.000  C
  C63      1.0000 0.31510  0.72150  0.20680  Biso   1.000  C
  C64      1.0000 0.79320  0.68490  0.27850  Biso   1.000  C
  C65      1.0000 0.27850  0.79320  0.68490  Biso   1.000  C
  C66      1.0000 0.68490  0.27850  0.79320  Biso   1.000  C
  C67      1.0000 0.12980  0.15710  0.74840  Biso   1.000  C
  C68      1.0000 0.74840  0.12980  0.15710  Biso   1.000  C
  C69      1.0000 0.15710  0.74840  0.12980  Biso   1.000  C
  C70      1.0000 0.87020  0.84290  0.25160  Biso   1.000  C
  C71      1.0000 0.25160  0.87020  0.84290  Biso   1.000  C
  C72      1.0000 0.84290  0.25160  0.87020  Biso   1.000  C
  C73      1.0000 0.43340  0.23680  0.98270  Biso   1.000  C
  C74      1.0000 0.98270  0.43340  0.23680  Biso   1.000  C
  C75      1.0000 0.23680  0.98270  0.43340  Biso   1.000  C
  C76      1.0000 0.56660  0.76320  0.01730  Biso   1.000  C
  C77      1.0000 0.01730  0.56660  0.76320  Biso   1.000  C
  C78      1.0000 0.76320  0.01730  0.56660  Biso   1.000  C
  C79      1.0000 0.62770  0.33720  0.04580  Biso   1.000  C
  C80      1.0000 0.04580  0.62770  0.33720  Biso   1.000  C
  C81      1.0000 0.33720  0.04580  0.62770  Biso   1.000  C
  C82      1.0000 0.37230  0.66280  0.95420  Biso   1.000  C
  C83      1.0000 0.95420  0.37230  0.66280  Biso   1.000  C
  C84      1.0000 0.66280  0.95420  0.37230  Biso   1.000  C
