data_image0
_cell_length_a       7.1215
_cell_length_b       17.7404
_cell_length_c       17.0416
_cell_angle_alpha    90
_cell_angle_beta     98.33
_cell_angle_gamma    90

_symmetry_space_group_name_H-M    "P 1"
_symmetry_int_tables_number       1

loop_
  _symmetry_equiv_pos_as_xyz
  'x, y, z'

loop_
  _atom_site_label
  _atom_site_occupancy
  _atom_site_fract_x
  _atom_site_fract_y
  _atom_site_fract_z
  _atom_site_thermal_displace_type
  _atom_site_B_iso_or_equiv
  _atom_site_type_symbol
  Cu1      1.0000 0.40223  0.33702  0.60541  Biso   1.000  Cu
  Cu2      1.0000 0.59777  0.83702  0.89459  Biso   1.000  Cu
  Cu3      1.0000 0.59777  0.66298  0.39459  Biso   1.000  Cu
  Cu4      1.0000 0.40223  0.16298  0.10541  Biso   1.000  Cu
  N1       1.0000 0.83000  0.28280  0.92830  Biso   1.000  N
  N2       1.0000 0.17000  0.78280  0.57170  Biso   1.000  N
  N3       1.0000 0.17000  0.71720  0.07170  Biso   1.000  N
  N4       1.0000 0.83000  0.21720  0.42830  Biso   1.000  N
  N5       1.0000 0.33690  0.34710  0.48670  Biso   1.000  N
  N6       1.0000 0.66310  0.84710  0.01330  Biso   1.000  N
  N7       1.0000 0.66310  0.65290  0.51330  Biso   1.000  N
  N8       1.0000 0.33690  0.15290  0.98670  Biso   1.000  N
  N9       1.0000 0.33520  0.44610  0.59970  Biso   1.000  N
  N10      1.0000 0.66480  0.94610  0.90030  Biso   1.000  N
  N11      1.0000 0.66480  0.55390  0.40030  Biso   1.000  N
  N12      1.0000 0.33520  0.05390  0.09970  Biso   1.000  N
  O1       1.0000 0.52760  0.34250  0.71500  Biso   1.000  O
  O2       1.0000 0.47240  0.84250  0.78500  Biso   1.000  O
  O3       1.0000 0.47240  0.65750  0.28500  Biso   1.000  O
  O4       1.0000 0.52760  0.15750  0.21500  Biso   1.000  O
  O5       1.0000 0.78650  0.38330  0.66840  Biso   1.000  O
  O6       1.0000 0.21350  0.88330  0.83160  Biso   1.000  O
  O7       1.0000 0.21350  0.61670  0.33160  Biso   1.000  O
  O8       1.0000 0.78650  0.11670  0.16840  Biso   1.000  O
  O9       1.0000 0.23320  0.40300  0.93990  Biso   1.000  O
  O10      1.0000 0.76680  0.90300  0.56010  Biso   1.000  O
  O11      1.0000 0.76680  0.59700  0.06010  Biso   1.000  O
  O12      1.0000 0.23320  0.09700  0.43990  Biso   1.000  O
  O13      1.0000 0.74050  0.67300  0.85090  Biso   1.000  O
  O14      1.0000 0.25950  0.17300  0.64910  Biso   1.000  O
  O15      1.0000 0.25950  0.32700  0.14910  Biso   1.000  O
  O16      1.0000 0.74050  0.82700  0.35090  Biso   1.000  O
  O17      1.0000 0.51400  0.73421  0.90120  Biso   1.000  O
  O18      1.0000 0.48600  0.23421  0.59880  Biso   1.000  O
  O19      1.0000 0.48600  0.26579  0.09880  Biso   1.000  O
  O20      1.0000 0.51400  0.76579  0.40120  Biso   1.000  O
  O21      1.0000 0.10680  0.30890  0.62830  Biso   1.000  O
  O22      1.0000 0.89320  0.80890  0.87170  Biso   1.000  O
  O23      1.0000 0.89320  0.69110  0.37170  Biso   1.000  O
  O24      1.0000 0.10680  0.19110  0.12830  Biso   1.000  O
  H1       1.0000 0.07890  0.33220  0.67060  Biso   1.000  H
  H2       1.0000 0.92110  0.83220  0.82940  Biso   1.000  H
  H3       1.0000 0.92110  0.66780  0.32940  Biso   1.000  H
  H4       1.0000 0.07890  0.16780  0.17060  Biso   1.000  H
  H5       1.0000 0.09640  0.26040  0.63600  Biso   1.000  H
  H6       1.0000 0.90360  0.76040  0.86400  Biso   1.000  H
  H7       1.0000 0.90360  0.73960  0.36400  Biso   1.000  H
  H8       1.0000 0.09640  0.23960  0.13600  Biso   1.000  H
  C1       1.0000 0.70300  0.35890  0.72290  Biso   1.000  C
  C2       1.0000 0.29700  0.85890  0.77710  Biso   1.000  C
  C3       1.0000 0.29700  0.64110  0.27710  Biso   1.000  C
  C4       1.0000 0.70300  0.14110  0.22290  Biso   1.000  C
  C5       1.0000 0.81030  0.34700  0.80370  Biso   1.000  C
  C6       1.0000 0.18970  0.84700  0.69630  Biso   1.000  C
  C7       1.0000 0.18970  0.65300  0.19630  Biso   1.000  C
  C8       1.0000 0.81030  0.15300  0.30370  Biso   1.000  C
  C9       1.0000 0.97620  0.38600  0.83010  Biso   1.000  C
  C10      1.0000 0.02380  0.88600  0.66990  Biso   1.000  C
  C11      1.0000 0.02380  0.61400  0.16990  Biso   1.000  C
  C12      1.0000 0.97620  0.11400  0.33010  Biso   1.000  C
  H9       1.0000 0.02700  0.42010  0.79740  Biso   1.000  H
  H10      1.0000 0.97300  0.92010  0.70260  Biso   1.000  H
  H11      1.0000 0.97300  0.57990  0.20260  Biso   1.000  H
  H12      1.0000 0.02700  0.07990  0.29740  Biso   1.000  H
  C13      1.0000 0.06290  0.37280  0.90610  Biso   1.000  C
  C14      1.0000 0.93710  0.87280  0.59390  Biso   1.000  C
  C15      1.0000 0.93710  0.62720  0.09390  Biso   1.000  C
  C16      1.0000 0.06290  0.12720  0.40610  Biso   1.000  C
  C17      1.0000 0.98750  0.32150  0.95390  Biso   1.000  C
  C18      1.0000 0.01250  0.82150  0.54610  Biso   1.000  C
  C19      1.0000 0.01250  0.67850  0.04610  Biso   1.000  C
  C20      1.0000 0.98750  0.17850  0.45390  Biso   1.000  C
  H13      1.0000 0.04810  0.31380  0.00540  Biso   1.000  H
  H14      1.0000 0.95190  0.81380  0.49460  Biso   1.000  H
  H15      1.0000 0.95190  0.68620  0.99460  Biso   1.000  H
  H16      1.0000 0.04810  0.18620  0.50540  Biso   1.000  H
  C21      1.0000 0.74440  0.29680  0.85460  Biso   1.000  C
  C22      1.0000 0.25560  0.79680  0.64540  Biso   1.000  C
  C23      1.0000 0.25560  0.70320  0.14540  Biso   1.000  C
  C24      1.0000 0.74440  0.20320  0.35460  Biso   1.000  C
  H17      1.0000 0.63320  0.27070  0.83660  Biso   1.000  H
  H18      1.0000 0.36680  0.77070  0.66340  Biso   1.000  H
  H19      1.0000 0.36680  0.72930  0.16340  Biso   1.000  H
  H20      1.0000 0.63320  0.22930  0.33660  Biso   1.000  H
  C25      1.0000 0.30220  0.47050  0.91410  Biso   1.000  C
  C26      1.0000 0.69780  0.97050  0.58590  Biso   1.000  C
  C27      1.0000 0.69780  0.52950  0.08590  Biso   1.000  C
  C28      1.0000 0.30220  0.02950  0.41410  Biso   1.000  C
  C29      1.0000 0.48040  0.46810  0.89410  Biso   1.000  C
  C30      1.0000 0.51960  0.96810  0.60590  Biso   1.000  C
  C31      1.0000 0.51960  0.53190  0.10590  Biso   1.000  C
  C32      1.0000 0.48040  0.03190  0.39410  Biso   1.000  C
  H21      1.0000 0.54160  0.42220  0.89060  Biso   1.000  H
  H22      1.0000 0.45840  0.92220  0.60940  Biso   1.000  H
  H23      1.0000 0.45840  0.57780  0.10940  Biso   1.000  H
  H24      1.0000 0.54160  0.07780  0.39060  Biso   1.000  H
  C33      1.0000 0.56860  0.53430  0.87920  Biso   1.000  C
  C34      1.0000 0.43140  0.03430  0.62080  Biso   1.000  C
  C35      1.0000 0.43140  0.46570  0.12080  Biso   1.000  C
  C36      1.0000 0.56860  0.96570  0.37920  Biso   1.000  C
  H25      1.0000 0.69020  0.53270  0.86540  Biso   1.000  H
  H26      1.0000 0.30980  0.03270  0.63460  Biso   1.000  H
  H27      1.0000 0.30980  0.46730  0.13460  Biso   1.000  H
  H28      1.0000 0.69020  0.96730  0.36540  Biso   1.000  H
  C37      1.0000 0.48060  0.60310  0.88430  Biso   1.000  C
  C38      1.0000 0.51940  0.10310  0.61570  Biso   1.000  C
  C39      1.0000 0.51940  0.39690  0.11570  Biso   1.000  C
  C40      1.0000 0.48060  0.89690  0.38430  Biso   1.000  C
  C41      1.0000 0.58770  0.67480  0.87680  Biso   1.000  C
  C42      1.0000 0.41230  0.17480  0.62320  Biso   1.000  C
  C43      1.0000 0.41230  0.32520  0.12320  Biso   1.000  C
  C44      1.0000 0.58770  0.82520  0.37680  Biso   1.000  C
  C45      1.0000 0.29780  0.60380  0.90140  Biso   1.000  C
  C46      1.0000 0.70220  0.10380  0.59860  Biso   1.000  C
  C47      1.0000 0.70220  0.39620  0.09860  Biso   1.000  C
  C48      1.0000 0.29780  0.89620  0.40140  Biso   1.000  C
  H29      1.0000 0.23440  0.64940  0.90350  Biso   1.000  H
  H30      1.0000 0.76560  0.14940  0.59650  Biso   1.000  H
  H31      1.0000 0.76560  0.35060  0.09650  Biso   1.000  H
  H32      1.0000 0.23440  0.85060  0.40350  Biso   1.000  H
  C49      1.0000 0.20690  0.53690  0.91550  Biso   1.000  C
  C50      1.0000 0.79310  0.03690  0.58450  Biso   1.000  C
  C51      1.0000 0.79310  0.46310  0.08450  Biso   1.000  C
  C52      1.0000 0.20690  0.96310  0.41550  Biso   1.000  C
  H33      1.0000 0.08220  0.53740  0.92580  Biso   1.000  H
  H34      1.0000 0.91780  0.03740  0.57420  Biso   1.000  H
  H35      1.0000 0.91780  0.46260  0.07420  Biso   1.000  H
  H36      1.0000 0.08220  0.96260  0.42580  Biso   1.000  H
  C53      1.0000 0.34160  0.29280  0.43210  Biso   1.000  C
  C54      1.0000 0.65840  0.79280  0.06790  Biso   1.000  C
  C55      1.0000 0.65840  0.70720  0.56790  Biso   1.000  C
  C56      1.0000 0.34160  0.20720  0.93210  Biso   1.000  C
  H37      1.0000 0.38510  0.24520  0.44900  Biso   1.000  H
  H38      1.0000 0.61490  0.74520  0.05100  Biso   1.000  H
  H39      1.0000 0.61490  0.75480  0.55100  Biso   1.000  H
  H40      1.0000 0.38510  0.25480  0.94900  Biso   1.000  H
  C57      1.0000 0.28570  0.30430  0.35320  Biso   1.000  C
  C58      1.0000 0.71430  0.80430  0.14680  Biso   1.000  C
  C59      1.0000 0.71430  0.69570  0.64680  Biso   1.000  C
  C60      1.0000 0.28570  0.19570  0.85320  Biso   1.000  C
  H41      1.0000 0.28690  0.26490  0.31720  Biso   1.000  H
  H42      1.0000 0.71310  0.76490  0.18280  Biso   1.000  H
  H43      1.0000 0.71310  0.73510  0.68280  Biso   1.000  H
  H44      1.0000 0.28690  0.23510  0.81720  Biso   1.000  H
  C61      1.0000 0.22750  0.37500  0.32790  Biso   1.000  C
  C62      1.0000 0.77250  0.87500  0.17210  Biso   1.000  C
  C63      1.0000 0.77250  0.62500  0.67210  Biso   1.000  C
  C64      1.0000 0.22750  0.12500  0.82790  Biso   1.000  C
  H45      1.0000 0.18880  0.38420  0.27430  Biso   1.000  H
  H46      1.0000 0.81120  0.88420  0.22570  Biso   1.000  H
  H47      1.0000 0.81120  0.61580  0.72570  Biso   1.000  H
  H48      1.0000 0.18880  0.11580  0.77430  Biso   1.000  H
  C65      1.0000 0.22670  0.43200  0.38200  Biso   1.000  C
  C66      1.0000 0.77330  0.93200  0.11800  Biso   1.000  C
  C67      1.0000 0.77330  0.56800  0.61800  Biso   1.000  C
  C68      1.0000 0.22670  0.06800  0.88200  Biso   1.000  C
  H49      1.0000 0.18910  0.48030  0.36540  Biso   1.000  H
  H50      1.0000 0.81090  0.98030  0.13460  Biso   1.000  H
  H51      1.0000 0.81090  0.51970  0.63460  Biso   1.000  H
  H52      1.0000 0.18910  0.01970  0.86540  Biso   1.000  H
  C69      1.0000 0.28200  0.41720  0.46120  Biso   1.000  C
  C70      1.0000 0.71800  0.91720  0.03880  Biso   1.000  C
  C71      1.0000 0.71800  0.58280  0.53880  Biso   1.000  C
  C72      1.0000 0.28200  0.08280  0.96120  Biso   1.000  C
  C73      1.0000 0.28200  0.47340  0.52640  Biso   1.000  C
  C74      1.0000 0.71800  0.97340  0.97360  Biso   1.000  C
  C75      1.0000 0.71800  0.52660  0.47360  Biso   1.000  C
  C76      1.0000 0.28200  0.02660  0.02640  Biso   1.000  C
  C77      1.0000 0.23090  0.54790  0.51280  Biso   1.000  C
  C78      1.0000 0.76910  0.04790  0.98720  Biso   1.000  C
  C79      1.0000 0.76910  0.45210  0.48720  Biso   1.000  C
  C80      1.0000 0.23090  0.95210  0.01280  Biso   1.000  C
  H53      1.0000 0.19610  0.56580  0.46140  Biso   1.000  H
  H54      1.0000 0.80390  0.06580  0.03860  Biso   1.000  H
  H55      1.0000 0.80390  0.43420  0.53860  Biso   1.000  H
  H56      1.0000 0.19610  0.93420  0.96140  Biso   1.000  H
  C81      1.0000 0.23270  0.59550  0.57780  Biso   1.000  C
  C82      1.0000 0.76730  0.09550  0.92220  Biso   1.000  C
  C83      1.0000 0.76730  0.40450  0.42220  Biso   1.000  C
  C84      1.0000 0.23270  0.90450  0.07780  Biso   1.000  C
  H57      1.0000 0.19880  0.64600  0.57070  Biso   1.000  H
  H58      1.0000 0.80120  0.14600  0.92930  Biso   1.000  H
  H59      1.0000 0.80120  0.35400  0.42930  Biso   1.000  H
  H60      1.0000 0.19880  0.85400  0.07070  Biso   1.000  H
  C85      1.0000 0.28510  0.56690  0.65220  Biso   1.000  C
  C86      1.0000 0.71490  0.06690  0.84780  Biso   1.000  C
  C87      1.0000 0.71490  0.43310  0.34780  Biso   1.000  C
  C88      1.0000 0.28510  0.93310  0.15220  Biso   1.000  C
  H61      1.0000 0.28640  0.59770  0.69640  Biso   1.000  H
  H62      1.0000 0.71360  0.09770  0.80360  Biso   1.000  H
  H63      1.0000 0.71360  0.40230  0.30360  Biso   1.000  H
  H64      1.0000 0.28640  0.90230  0.19640  Biso   1.000  H
  C89      1.0000 0.33630  0.49190  0.66140  Biso   1.000  C
  C90      1.0000 0.66370  0.99190  0.83860  Biso   1.000  C
  C91      1.0000 0.66370  0.50810  0.33860  Biso   1.000  C
  C92      1.0000 0.33630  0.00810  0.16140  Biso   1.000  C
  H65      1.0000 0.37250  0.47290  0.71220  Biso   1.000  H
  H66      1.0000 0.62750  0.97290  0.78780  Biso   1.000  H
  H67      1.0000 0.62750  0.52710  0.28780  Biso   1.000  H
  H68      1.0000 0.37250  0.02710  0.21220  Biso   1.000  H
