data_image0
_cell_length_a       39.71
_cell_length_b       5.268
_cell_length_c       21.68
_cell_angle_alpha    90
_cell_angle_beta     114.66
_cell_angle_gamma    90

_symmetry_space_group_name_H-M    "P 1"
_symmetry_int_tables_number       1

loop_
  _symmetry_equiv_pos_as_xyz
  'x, y, z'

loop_
  _atom_site_label
  _atom_site_occupancy
  _atom_site_fract_x
  _atom_site_fract_y
  _atom_site_fract_z
  _atom_site_thermal_displace_type
  _atom_site_B_iso_or_equiv
  _atom_site_type_symbol
  Cu1      1.0000 0.01160  0.21130  0.03230  Biso   1.000  Cu
  Cu2      1.0000 0.51160  0.71130  0.03230  Biso   1.000  Cu
  Cu3      1.0000 0.98840  0.21130  0.46770  Biso   1.000  Cu
  Cu4      1.0000 0.48840  0.71130  0.46770  Biso   1.000  Cu
  Cu5      1.0000 0.98840  0.78870  0.96770  Biso   1.000  Cu
  Cu6      1.0000 0.48840  0.28870  0.96770  Biso   1.000  Cu
  Cu7      1.0000 0.01160  0.78870  0.53230  Biso   1.000  Cu
  Cu8      1.0000 0.51160  0.28870  0.53230  Biso   1.000  Cu
  C1       1.0000 0.15620  0.65120  0.33160  Biso   1.000  C
  C2       1.0000 0.65620  0.15120  0.33160  Biso   1.000  C
  C3       1.0000 0.84380  0.65120  0.16840  Biso   1.000  C
  C4       1.0000 0.34380  0.15120  0.16840  Biso   1.000  C
  C5       1.0000 0.84380  0.34880  0.66840  Biso   1.000  C
  C6       1.0000 0.34380  0.84880  0.66840  Biso   1.000  C
  C7       1.0000 0.15620  0.34880  0.83160  Biso   1.000  C
  C8       1.0000 0.65620  0.84880  0.83160  Biso   1.000  C
  C9       1.0000 0.17390  0.84700  0.31520  Biso   1.000  C
  C10      1.0000 0.67390  0.34700  0.31520  Biso   1.000  C
  C11      1.0000 0.82610  0.84700  0.18480  Biso   1.000  C
  C12      1.0000 0.32610  0.34700  0.18480  Biso   1.000  C
  C13      1.0000 0.82610  0.15300  0.68480  Biso   1.000  C
  C14      1.0000 0.32610  0.65300  0.68480  Biso   1.000  C
  C15      1.0000 0.17390  0.15300  0.81520  Biso   1.000  C
  C16      1.0000 0.67390  0.65300  0.81520  Biso   1.000  C
  C17      1.0000 0.19970  0.00370  0.36300  Biso   1.000  C
  C18      1.0000 0.69970  0.50370  0.36300  Biso   1.000  C
  C19      1.0000 0.80030  0.00370  0.13700  Biso   1.000  C
  C20      1.0000 0.30030  0.50370  0.13700  Biso   1.000  C
  C21      1.0000 0.80030  0.99630  0.63700  Biso   1.000  C
  C22      1.0000 0.30030  0.49630  0.63700  Biso   1.000  C
  C23      1.0000 0.19970  0.99630  0.86300  Biso   1.000  C
  C24      1.0000 0.69970  0.49630  0.86300  Biso   1.000  C
  C25      1.0000 0.21110  0.95440  0.43080  Biso   1.000  C
  C26      1.0000 0.71110  0.45440  0.43080  Biso   1.000  C
  C27      1.0000 0.78890  0.95440  0.06920  Biso   1.000  C
  C28      1.0000 0.28890  0.45440  0.06920  Biso   1.000  C
  C29      1.0000 0.78890  0.04560  0.56920  Biso   1.000  C
  C30      1.0000 0.28890  0.54560  0.56920  Biso   1.000  C
  C31      1.0000 0.21110  0.04560  0.93080  Biso   1.000  C
  C32      1.0000 0.71110  0.54560  0.93080  Biso   1.000  C
  C33      1.0000 0.19470  0.77490  0.45070  Biso   1.000  C
  C34      1.0000 0.69470  0.27490  0.45070  Biso   1.000  C
  C35      1.0000 0.80530  0.77490  0.04930  Biso   1.000  C
  C36      1.0000 0.30530  0.27490  0.04930  Biso   1.000  C
  C37      1.0000 0.80530  0.22510  0.54930  Biso   1.000  C
  C38      1.0000 0.30530  0.72510  0.54930  Biso   1.000  C
  C39      1.0000 0.19470  0.22510  0.95070  Biso   1.000  C
  C40      1.0000 0.69470  0.72510  0.95070  Biso   1.000  C
  C41      1.0000 0.16640  0.61340  0.40080  Biso   1.000  C
  C42      1.0000 0.66640  0.11340  0.40080  Biso   1.000  C
  C43      1.0000 0.83360  0.61340  0.09920  Biso   1.000  C
  C44      1.0000 0.33360  0.11340  0.09920  Biso   1.000  C
  C45      1.0000 0.83360  0.38660  0.59920  Biso   1.000  C
  C46      1.0000 0.33360  0.88660  0.59920  Biso   1.000  C
  C47      1.0000 0.16640  0.38660  0.90080  Biso   1.000  C
  C48      1.0000 0.66640  0.88660  0.90080  Biso   1.000  C
  S1       1.0000 0.12200  0.46070  0.27710  Biso   1.000  S
  S2       1.0000 0.62200  0.96070  0.27710  Biso   1.000  S
  S3       1.0000 0.87800  0.46070  0.22290  Biso   1.000  S
  S4       1.0000 0.37800  0.96070  0.22290  Biso   1.000  S
  S5       1.0000 0.87800  0.53930  0.72290  Biso   1.000  S
  S6       1.0000 0.37800  0.03930  0.72290  Biso   1.000  S
  S7       1.0000 0.12200  0.53930  0.77710  Biso   1.000  S
  S8       1.0000 0.62200  0.03930  0.77710  Biso   1.000  S
  C49      1.0000 0.09340  0.72360  0.21710  Biso   1.000  C
  C50      1.0000 0.59340  0.22360  0.21710  Biso   1.000  C
  C51      1.0000 0.90660  0.72360  0.28290  Biso   1.000  C
  C52      1.0000 0.40660  0.22360  0.28290  Biso   1.000  C
  C53      1.0000 0.90660  0.27640  0.78290  Biso   1.000  C
  C54      1.0000 0.40660  0.77640  0.78290  Biso   1.000  C
  C55      1.0000 0.09340  0.27640  0.71710  Biso   1.000  C
  C56      1.0000 0.59340  0.77640  0.71710  Biso   1.000  C
  C57      1.0000 0.06000  0.60690  0.17550  Biso   1.000  C
  C58      1.0000 0.56000  0.10690  0.17550  Biso   1.000  C
  C59      1.0000 0.94000  0.60690  0.32450  Biso   1.000  C
  C60      1.0000 0.44000  0.10690  0.32450  Biso   1.000  C
  C61      1.0000 0.94000  0.39310  0.82450  Biso   1.000  C
  C62      1.0000 0.44000  0.89310  0.82450  Biso   1.000  C
  C63      1.0000 0.06000  0.39310  0.67550  Biso   1.000  C
  C64      1.0000 0.56000  0.89310  0.67550  Biso   1.000  C
  C65      1.0000 0.03350  0.53540  0.20560  Biso   1.000  C
  C66      1.0000 0.53350  0.03540  0.20560  Biso   1.000  C
  C67      1.0000 0.96650  0.53540  0.29440  Biso   1.000  C
  C68      1.0000 0.46650  0.03540  0.29440  Biso   1.000  C
  C69      1.0000 0.96650  0.46460  0.79440  Biso   1.000  C
  C70      1.0000 0.46650  0.96460  0.79440  Biso   1.000  C
  C71      1.0000 0.03350  0.46460  0.70560  Biso   1.000  C
  C72      1.0000 0.53350  0.96460  0.70560  Biso   1.000  C
  C73      1.0000 0.03880  0.75430  0.11010  Biso   1.000  C
  C74      1.0000 0.53880  0.25430  0.11010  Biso   1.000  C
  C75      1.0000 0.96120  0.75430  0.38990  Biso   1.000  C
  C76      1.0000 0.46120  0.25430  0.38990  Biso   1.000  C
  C77      1.0000 0.96120  0.24570  0.88990  Biso   1.000  C
  C78      1.0000 0.46120  0.74570  0.88990  Biso   1.000  C
  C79      1.0000 0.03880  0.24570  0.61010  Biso   1.000  C
  C80      1.0000 0.53880  0.74570  0.61010  Biso   1.000  C
  O1       1.0000 0.03980  0.99320  0.11070  Biso   1.000  O
  O2       1.0000 0.53980  0.49320  0.11070  Biso   1.000  O
  O3       1.0000 0.96020  0.99320  0.38930  Biso   1.000  O
  O4       1.0000 0.46020  0.49320  0.38930  Biso   1.000  O
  O5       1.0000 0.96020  0.00680  0.88930  Biso   1.000  O
  O6       1.0000 0.46020  0.50680  0.88930  Biso   1.000  O
  O7       1.0000 0.03980  0.00680  0.61070  Biso   1.000  O
  O8       1.0000 0.53980  0.50680  0.61070  Biso   1.000  O
  O9       1.0000 0.02070  0.63270  0.05790  Biso   1.000  O
  O10      1.0000 0.52070  0.13270  0.05790  Biso   1.000  O
  O11      1.0000 0.97930  0.63270  0.44210  Biso   1.000  O
  O12      1.0000 0.47930  0.13270  0.44210  Biso   1.000  O
  O13      1.0000 0.97930  0.36730  0.94210  Biso   1.000  O
  O14      1.0000 0.47930  0.86730  0.94210  Biso   1.000  O
  O15      1.0000 0.02070  0.36730  0.55790  Biso   1.000  O
  O16      1.0000 0.52070  0.86730  0.55790  Biso   1.000  O
  C81      1.0000 0.83540  0.10100  0.89790  Biso   1.000  C
  C82      1.0000 0.33540  0.60100  0.89790  Biso   1.000  C
  C83      1.0000 0.16460  0.10100  0.60210  Biso   1.000  C
  C84      1.0000 0.66460  0.60100  0.60210  Biso   1.000  C
  C85      1.0000 0.16460  0.89900  0.10210  Biso   1.000  C
  C86      1.0000 0.66460  0.39900  0.10210  Biso   1.000  C
  C87      1.0000 0.83540  0.89900  0.39790  Biso   1.000  C
  C88      1.0000 0.33540  0.39900  0.39790  Biso   1.000  C
  C89      1.0000 0.80260  0.12600  0.89810  Biso   1.000  C
  C90      1.0000 0.30260  0.62600  0.89810  Biso   1.000  C
  C91      1.0000 0.19740  0.12600  0.60190  Biso   1.000  C
  C92      1.0000 0.69740  0.62600  0.60190  Biso   1.000  C
  C93      1.0000 0.19740  0.87400  0.10190  Biso   1.000  C
  C94      1.0000 0.69740  0.37400  0.10190  Biso   1.000  C
  C95      1.0000 0.80260  0.87400  0.39810  Biso   1.000  C
  C96      1.0000 0.30260  0.37400  0.39810  Biso   1.000  C
  C97      1.0000 0.77100  0.99120  0.85770  Biso   1.000  C
  C98      1.0000 0.27100  0.49120  0.85770  Biso   1.000  C
  C99      1.0000 0.22900  0.99120  0.64230  Biso   1.000  C
  C100     1.0000 0.72900  0.49120  0.64230  Biso   1.000  C
  C101     1.0000 0.22900  0.00880  0.14230  Biso   1.000  C
  C102     1.0000 0.72900  0.50880  0.14230  Biso   1.000  C
  C103     1.0000 0.77100  0.00880  0.35770  Biso   1.000  C
  C104     1.0000 0.27100  0.50880  0.35770  Biso   1.000  C
  C105     1.0000 0.77700  0.78340  0.82090  Biso   1.000  C
  C106     1.0000 0.27700  0.28340  0.82090  Biso   1.000  C
  C107     1.0000 0.22300  0.78340  0.67910  Biso   1.000  C
  C108     1.0000 0.72300  0.28340  0.67910  Biso   1.000  C
  C109     1.0000 0.22300  0.21660  0.17910  Biso   1.000  C
  C110     1.0000 0.72300  0.71660  0.17910  Biso   1.000  C
  C111     1.0000 0.77700  0.21660  0.32090  Biso   1.000  C
  C112     1.0000 0.27700  0.71660  0.32090  Biso   1.000  C
  C113     1.0000 0.81070  0.74990  0.82140  Biso   1.000  C
  C114     1.0000 0.31070  0.24990  0.82140  Biso   1.000  C
  C115     1.0000 0.18930  0.74990  0.67860  Biso   1.000  C
  C116     1.0000 0.68930  0.24990  0.67860  Biso   1.000  C
  C117     1.0000 0.18930  0.25010  0.17860  Biso   1.000  C
  C118     1.0000 0.68930  0.75010  0.17860  Biso   1.000  C
  C119     1.0000 0.81070  0.25010  0.32140  Biso   1.000  C
  C120     1.0000 0.31070  0.75010  0.32140  Biso   1.000  C
  C121     1.0000 0.83950  0.89940  0.85870  Biso   1.000  C
  C122     1.0000 0.33950  0.39940  0.85870  Biso   1.000  C
  C123     1.0000 0.16050  0.89940  0.64130  Biso   1.000  C
  C124     1.0000 0.66050  0.39940  0.64130  Biso   1.000  C
  C125     1.0000 0.16050  0.10060  0.14130  Biso   1.000  C
  C126     1.0000 0.66050  0.60060  0.14130  Biso   1.000  C
  C127     1.0000 0.83950  0.10060  0.35870  Biso   1.000  C
  C128     1.0000 0.33950  0.60060  0.35870  Biso   1.000  C
  S9       1.0000 0.87400  0.30320  0.94390  Biso   1.000  S
  S10      1.0000 0.37400  0.80320  0.94390  Biso   1.000  S
  S11      1.0000 0.12600  0.30320  0.55610  Biso   1.000  S
  S12      1.0000 0.62600  0.80320  0.55610  Biso   1.000  S
  S13      1.0000 0.12600  0.69680  0.05610  Biso   1.000  S
  S14      1.0000 0.62600  0.19680  0.05610  Biso   1.000  S
  S15      1.0000 0.87400  0.69680  0.44390  Biso   1.000  S
  S16      1.0000 0.37400  0.19680  0.44390  Biso   1.000  S
  C129     1.0000 0.89030  0.22070  0.02940  Biso   1.000  C
  C130     1.0000 0.39030  0.72070  0.02940  Biso   1.000  C
  C131     1.0000 0.10970  0.22070  0.47060  Biso   1.000  C
  C132     1.0000 0.60970  0.72070  0.47060  Biso   1.000  C
  C133     1.0000 0.10970  0.77930  0.97060  Biso   1.000  C
  C134     1.0000 0.60970  0.27930  0.97060  Biso   1.000  C
  C135     1.0000 0.89030  0.77930  0.52940  Biso   1.000  C
  C136     1.0000 0.39030  0.27930  0.52940  Biso   1.000  C
  C137     1.0000 0.91310  0.99010  0.05100  Biso   1.000  C
  C138     1.0000 0.41310  0.49010  0.05100  Biso   1.000  C
  C139     1.0000 0.08690  0.99010  0.44900  Biso   1.000  C
  C140     1.0000 0.58690  0.49010  0.44900  Biso   1.000  C
  C141     1.0000 0.08690  0.00990  0.94900  Biso   1.000  C
  C142     1.0000 0.58690  0.50990  0.94900  Biso   1.000  C
  C143     1.0000 0.91310  0.00990  0.55100  Biso   1.000  C
  C144     1.0000 0.41310  0.50990  0.55100  Biso   1.000  C
  C145     1.0000 0.92950  0.92700  0.12960  Biso   1.000  C
  C146     1.0000 0.42950  0.42700  0.12960  Biso   1.000  C
  C147     1.0000 0.07050  0.92700  0.37040  Biso   1.000  C
  C148     1.0000 0.57050  0.42700  0.37040  Biso   1.000  C
  C149     1.0000 0.07050  0.07300  0.87040  Biso   1.000  C
  C150     1.0000 0.57050  0.57300  0.87040  Biso   1.000  C
  C151     1.0000 0.92950  0.07300  0.62960  Biso   1.000  C
  C152     1.0000 0.42950  0.57300  0.62960  Biso   1.000  C
  C153     1.0000 0.94600  0.99420  0.03010  Biso   1.000  C
  C154     1.0000 0.44600  0.49420  0.03010  Biso   1.000  C
  C155     1.0000 0.05400  0.99420  0.46990  Biso   1.000  C
  C156     1.0000 0.55400  0.49420  0.46990  Biso   1.000  C
  C157     1.0000 0.05400  0.00580  0.96990  Biso   1.000  C
  C158     1.0000 0.55400  0.50580  0.96990  Biso   1.000  C
  C159     1.0000 0.94600  0.00580  0.53010  Biso   1.000  C
  C160     1.0000 0.44600  0.50580  0.53010  Biso   1.000  C
  O17      1.0000 0.96800  0.16930  0.05280  Biso   1.000  O
  O18      1.0000 0.46800  0.66930  0.05280  Biso   1.000  O
  O19      1.0000 0.03200  0.16930  0.44720  Biso   1.000  O
  O20      1.0000 0.53200  0.66930  0.44720  Biso   1.000  O
  O21      1.0000 0.03200  0.83070  0.94720  Biso   1.000  O
  O22      1.0000 0.53200  0.33070  0.94720  Biso   1.000  O
  O23      1.0000 0.96800  0.83070  0.55280  Biso   1.000  O
  O24      1.0000 0.46800  0.33070  0.55280  Biso   1.000  O
  O25      1.0000 0.94790  0.81280  0.99580  Biso   1.000  O
  O26      1.0000 0.44790  0.31280  0.99580  Biso   1.000  O
  O27      1.0000 0.05210  0.81280  0.50420  Biso   1.000  O
  O28      1.0000 0.55210  0.31280  0.50420  Biso   1.000  O
  O29      1.0000 0.05210  0.18720  0.00420  Biso   1.000  O
  O30      1.0000 0.55210  0.68720  0.00420  Biso   1.000  O
  O31      1.0000 0.94790  0.18720  0.49580  Biso   1.000  O
  O32      1.0000 0.44790  0.68720  0.49580  Biso   1.000  O
