data_image0
_cell_length_a       12.8193
_cell_length_b       6.9031
_cell_length_c       9.5759
_cell_angle_alpha    90
_cell_angle_beta     105.982
_cell_angle_gamma    90

_symmetry_space_group_name_H-M    "P 1"
_symmetry_int_tables_number       1

loop_
  _symmetry_equiv_pos_as_xyz
  'x, y, z'

loop_
  _atom_site_label
  _atom_site_occupancy
  _atom_site_fract_x
  _atom_site_fract_y
  _atom_site_fract_z
  _atom_site_thermal_displace_type
  _atom_site_B_iso_or_equiv
  _atom_site_type_symbol
  Cu1      1.0000 0.45909  0.00000  0.66339  Biso   1.000  Cu
  Cu2      1.0000 0.54091  0.00000  0.33661  Biso   1.000  Cu
  Cu3      1.0000 0.95909  0.50000  0.66339  Biso   1.000  Cu
  Cu4      1.0000 0.04091  0.50000  0.33661  Biso   1.000  Cu
  Cl1      1.0000 0.37160  0.00000  0.37864  Biso   1.000  Cl
  Cl2      1.0000 0.62840  0.00000  0.62136  Biso   1.000  Cl
  Cl3      1.0000 0.87160  0.50000  0.37864  Biso   1.000  Cl
  Cl4      1.0000 0.12840  0.50000  0.62136  Biso   1.000  Cl
  Cl5      1.0000 0.31809  0.00000  0.75997  Biso   1.000  Cl
  Cl6      1.0000 0.68191  0.00000  0.24003  Biso   1.000  Cl
  Cl7      1.0000 0.81809  0.50000  0.75997  Biso   1.000  Cl
  Cl8      1.0000 0.18191  0.50000  0.24003  Biso   1.000  Cl
  N1       1.0000 0.46170  0.29870  0.67600  Biso   1.000  N
  N2       1.0000 0.53830  0.29870  0.32400  Biso   1.000  N
  N3       1.0000 0.96170  0.79870  0.67600  Biso   1.000  N
  N4       1.0000 0.03830  0.79870  0.32400  Biso   1.000  N
  N5       1.0000 0.53830  0.70130  0.32400  Biso   1.000  N
  N6       1.0000 0.46170  0.70130  0.67600  Biso   1.000  N
  N7       1.0000 0.03830  0.20130  0.32400  Biso   1.000  N
  N8       1.0000 0.96170  0.20130  0.67600  Biso   1.000  N
  C1       1.0000 0.53000  0.39780  0.78480  Biso   1.000  C
  C2       1.0000 0.47000  0.39780  0.21520  Biso   1.000  C
  C3       1.0000 0.03000  0.89780  0.78480  Biso   1.000  C
  C4       1.0000 0.97000  0.89780  0.21520  Biso   1.000  C
  C5       1.0000 0.47000  0.60220  0.21520  Biso   1.000  C
  C6       1.0000 0.53000  0.60220  0.78480  Biso   1.000  C
  C7       1.0000 0.97000  0.10220  0.21520  Biso   1.000  C
  C8       1.0000 0.03000  0.10220  0.78480  Biso   1.000  C
  C9       1.0000 0.39120  0.40080  0.57150  Biso   1.000  C
  C10      1.0000 0.60880  0.40080  0.42850  Biso   1.000  C
  C11      1.0000 0.89120  0.90080  0.57150  Biso   1.000  C
  C12      1.0000 0.10880  0.90080  0.42850  Biso   1.000  C
  C13      1.0000 0.60880  0.59920  0.42850  Biso   1.000  C
  C14      1.0000 0.39120  0.59920  0.57150  Biso   1.000  C
  C15      1.0000 0.10880  0.09920  0.42850  Biso   1.000  C
  C16      1.0000 0.89120  0.09920  0.57150  Biso   1.000  C
  H1       1.0000 0.34150  0.33510  0.49760  Biso   1.000  H
  H2       1.0000 0.65850  0.33510  0.50240  Biso   1.000  H
  H3       1.0000 0.84150  0.83510  0.49760  Biso   1.000  H
  H4       1.0000 0.15850  0.83510  0.50240  Biso   1.000  H
  H5       1.0000 0.65850  0.66490  0.50240  Biso   1.000  H
  H6       1.0000 0.34150  0.66490  0.49760  Biso   1.000  H
  H7       1.0000 0.15850  0.16490  0.50240  Biso   1.000  H
  H8       1.0000 0.84150  0.16490  0.49760  Biso   1.000  H
  C17      1.0000 0.60590  0.28500  0.90350  Biso   1.000  C
  C18      1.0000 0.39410  0.28500  0.09650  Biso   1.000  C
  C19      1.0000 0.10590  0.78500  0.90350  Biso   1.000  C
  C20      1.0000 0.89410  0.78500  0.09650  Biso   1.000  C
  C21      1.0000 0.39410  0.71500  0.09650  Biso   1.000  C
  C22      1.0000 0.60590  0.71500  0.90350  Biso   1.000  C
  C23      1.0000 0.89410  0.21500  0.09650  Biso   1.000  C
  C24      1.0000 0.10590  0.21500  0.90350  Biso   1.000  C
  H9       1.0000 0.57490  0.16040  0.91210  Biso   1.000  H
  H10      1.0000 0.42510  0.16040  0.08790  Biso   1.000  H
  H11      1.0000 0.07490  0.66040  0.91210  Biso   1.000  H
  H12      1.0000 0.92510  0.66040  0.08790  Biso   1.000  H
  H13      1.0000 0.42510  0.83960  0.08790  Biso   1.000  H
  H14      1.0000 0.57490  0.83960  0.91210  Biso   1.000  H
  H15      1.0000 0.92510  0.33960  0.08790  Biso   1.000  H
  H16      1.0000 0.07490  0.33960  0.91210  Biso   1.000  H
  H17      1.0000 0.61770  0.35390  0.99360  Biso   1.000  H
  H18      1.0000 0.38230  0.35390  0.00640  Biso   1.000  H
  H19      1.0000 0.11770  0.85390  0.99360  Biso   1.000  H
  H20      1.0000 0.88230  0.85390  0.00640  Biso   1.000  H
  H21      1.0000 0.38230  0.64610  0.00640  Biso   1.000  H
  H22      1.0000 0.61770  0.64610  0.99360  Biso   1.000  H
  H23      1.0000 0.88230  0.14610  0.00640  Biso   1.000  H
  H24      1.0000 0.11770  0.14610  0.99360  Biso   1.000  H
  H25      1.0000 0.67380  0.26820  0.88100  Biso   1.000  H
  H26      1.0000 0.32620  0.26820  0.11900  Biso   1.000  H
  H27      1.0000 0.17380  0.76820  0.88100  Biso   1.000  H
  H28      1.0000 0.82620  0.76820  0.11900  Biso   1.000  H
  H29      1.0000 0.32620  0.73180  0.11900  Biso   1.000  H
  H30      1.0000 0.67380  0.73180  0.88100  Biso   1.000  H
  H31      1.0000 0.82620  0.23180  0.11900  Biso   1.000  H
  H32      1.0000 0.17380  0.23180  0.88100  Biso   1.000  H
