data_image0
_cell_length_a       14.18
_cell_length_b       14.49
_cell_length_c       16.141
_cell_angle_alpha    83.821
_cell_angle_beta     78.757
_cell_angle_gamma    85.967

_symmetry_space_group_name_H-M    "P 1"
_symmetry_int_tables_number       1

loop_
  _symmetry_equiv_pos_as_xyz
  'x, y, z'

loop_
  _atom_site_label
  _atom_site_occupancy
  _atom_site_fract_x
  _atom_site_fract_y
  _atom_site_fract_z
  _atom_site_thermal_displace_type
  _atom_site_B_iso_or_equiv
  _atom_site_type_symbol
  Cu1      1.0000 0.37512  0.56509  0.91801  Biso   1.000  Cu
  Cu2      1.0000 0.62488  0.43491  0.08199  Biso   1.000  Cu
  O1       1.0000 0.35620  0.65010  0.00400  Biso   1.000  O
  O2       1.0000 0.64380  0.34990  0.99600  Biso   1.000  O
  O3       1.0000 0.22360  0.44640  0.03680  Biso   1.000  O
  O4       1.0000 0.77640  0.55360  0.96320  Biso   1.000  O
  O5       1.0000 0.38180  0.43519  0.97515  Biso   1.000  O
  O6       1.0000 0.61820  0.56481  0.02485  Biso   1.000  O
  N1       1.0000 0.51440  0.57080  0.83650  Biso   1.000  N
  N2       1.0000 0.48560  0.42920  0.16350  Biso   1.000  N
  O7       1.0000 0.36580  0.75540  0.88400  Biso   1.000  O
  O8       1.0000 0.63420  0.24460  0.11600  Biso   1.000  O
  C1       1.0000 0.66320  0.48900  0.79330  Biso   1.000  C
  C2       1.0000 0.33680  0.51100  0.20670  Biso   1.000  C
  H1       1.0000 0.70540  0.43930  0.80500  Biso   1.000  H
  H2       1.0000 0.29460  0.56070  0.19500  Biso   1.000  H
  C3       1.0000 0.29940  0.40220  0.02600  Biso   1.000  C
  C4       1.0000 0.70060  0.59780  0.97400  Biso   1.000  C
  N3       1.0000 0.29060  0.55950  0.83410  Biso   1.000  N
  N4       1.0000 0.70940  0.44050  0.16590  Biso   1.000  N
  C5       1.0000 0.35620  0.73560  0.96430  Biso   1.000  C
  C6       1.0000 0.64380  0.26440  0.03570  Biso   1.000  C
  C7       1.0000 0.78530  0.53770  0.65120  Biso   1.000  C
  C8       1.0000 0.21470  0.46230  0.34880  Biso   1.000  C
  C9       1.0000 0.13090  0.52850  0.64600  Biso   1.000  C
  C10      1.0000 0.86910  0.47150  0.35400  Biso   1.000  C
  C11      1.0000 0.57490  0.49920  0.85090  Biso   1.000  C
  C12      1.0000 0.42510  0.50080  0.14910  Biso   1.000  C
  H3       1.0000 0.55940  0.45650  0.89810  Biso   1.000  H
  H4       1.0000 0.44060  0.54350  0.10190  Biso   1.000  H
  C13      1.0000 0.63290  0.62740  0.70360  Biso   1.000  C
  C14      1.0000 0.36710  0.37260  0.29640  Biso   1.000  C
  H5       1.0000 0.64820  0.67200  0.65780  Biso   1.000  H
  H6       1.0000 0.35180  0.32800  0.34220  Biso   1.000  H
  C15      1.0000 0.18670  0.54200  0.71130  Biso   1.000  C
  C16      1.0000 0.81330  0.45800  0.28870  Biso   1.000  C
  C17      1.0000 0.69240  0.55210  0.71620  Biso   1.000  C
  C18      1.0000 0.30760  0.44790  0.28380  Biso   1.000  C
  C19      1.0000 0.54360  0.63470  0.76560  Biso   1.000  C
  C20      1.0000 0.45640  0.36530  0.23440  Biso   1.000  C
  H7       1.0000 0.50230  0.68630  0.75750  Biso   1.000  H
  H8       1.0000 0.49770  0.31370  0.24250  Biso   1.000  H
  C21      1.0000 0.87320  0.54020  0.67580  Biso   1.000  C
  C22      1.0000 0.12680  0.45980  0.32420  Biso   1.000  C
  C23      1.0000 0.97550  0.55650  0.75730  Biso   1.000  C
  C24      1.0000 0.02450  0.44350  0.24270  Biso   1.000  C
  H9       1.0000 0.00340  0.56670  0.80290  Biso   1.000  H
  H10      1.0000 0.99660  0.43330  0.19710  Biso   1.000  H
  C25      1.0000 0.30100  0.30270  0.07030  Biso   1.000  C
  C26      1.0000 0.69900  0.69730  0.92970  Biso   1.000  C
  C27      1.0000 0.22040  0.47940  0.43200  Biso   1.000  C
  C28      1.0000 0.77960  0.52060  0.56800  Biso   1.000  C
  C29      1.0000 0.88130  0.55820  0.75980  Biso   1.000  C
  C30      1.0000 0.11870  0.44180  0.24020  Biso   1.000  C
  H11      1.0000 0.83190  0.56870  0.80550  Biso   1.000  H
  H12      1.0000 0.16810  0.43130  0.19450  Biso   1.000  H
  C31      1.0000 0.02900  0.53670  0.67500  Biso   1.000  C
  C32      1.0000 0.97100  0.46330  0.32500  Biso   1.000  C
  C33      1.0000 0.34640  0.81240  0.02090  Biso   1.000  C
  C34      1.0000 0.65360  0.18760  0.97910  Biso   1.000  C
  C35      1.0000 0.21340  0.25530  0.11710  Biso   1.000  C
  C36      1.0000 0.78660  0.74470  0.88290  Biso   1.000  C
  H13      1.0000 0.15350  0.28700  0.12180  Biso   1.000  H
  H14      1.0000 0.84650  0.71300  0.87820  Biso   1.000  H
  C37      1.0000 0.33320  0.90560  0.98570  Biso   1.000  C
  C38      1.0000 0.66680  0.09440  0.01430  Biso   1.000  C
  H15      1.0000 0.33460  0.91870  0.92780  Biso   1.000  H
  H16      1.0000 0.66540  0.08130  0.07220  Biso   1.000  H
  C39      1.0000 0.31790  0.97760  0.03930  Biso   1.000  C
  C40      1.0000 0.68210  0.02240  0.96070  Biso   1.000  C
  H17      1.0000 0.30830  0.03900  0.01780  Biso   1.000  H
  H18      1.0000 0.69170  0.96100  0.98220  Biso   1.000  H
  C41      1.0000 0.39050  0.25550  0.06790  Biso   1.000  C
  C42      1.0000 0.60950  0.74450  0.93210  Biso   1.000  C
  H19      1.0000 0.44680  0.28430  0.04220  Biso   1.000  H
  H20      1.0000 0.55320  0.71570  0.95780  Biso   1.000  H
  C43      1.0000 0.20040  0.46500  0.77150  Biso   1.000  C
  C44      1.0000 0.79960  0.53500  0.22850  Biso   1.000  C
  H21      1.0000 0.17630  0.40770  0.76870  Biso   1.000  H
  H22      1.0000 0.82370  0.59230  0.23130  Biso   1.000  H
  C45      1.0000 0.27820  0.63150  0.77510  Biso   1.000  C
  C46      1.0000 0.72180  0.36850  0.22490  Biso   1.000  C
  H23      1.0000 0.30650  0.68710  0.77660  Biso   1.000  H
  H24      1.0000 0.69350  0.31290  0.22340  Biso   1.000  H
  C47      1.0000 0.24890  0.47800  0.83170  Biso   1.000  C
  C48      1.0000 0.75110  0.52200  0.16830  Biso   1.000  C
  H25      1.0000 0.25440  0.42980  0.87370  Biso   1.000  H
  H26      1.0000 0.74560  0.57020  0.12630  Biso   1.000  H
  C49      1.0000 0.28920  0.50140  0.53790  Biso   1.000  C
  C50      1.0000 0.71080  0.49860  0.46210  Biso   1.000  C
  H27      1.0000 0.33320  0.50860  0.57220  Biso   1.000  H
  H28      1.0000 0.66680  0.49140  0.42780  Biso   1.000  H
  C51      1.0000 0.31760  0.95480  0.12520  Biso   1.000  C
  C52      1.0000 0.68240  0.04520  0.87480  Biso   1.000  C
  C53      1.0000 0.31400  0.11380  0.14610  Biso   1.000  C
  C54      1.0000 0.68600  0.88620  0.85390  Biso   1.000  C
  C55      1.0000 0.31290  0.48350  0.45750  Biso   1.000  C
  C56      1.0000 0.68710  0.51650  0.54250  Biso   1.000  C
  H29      1.0000 0.37420  0.47550  0.42500  Biso   1.000  H
  H30      1.0000 0.62580  0.52450  0.57500  Biso   1.000  H
  C57      1.0000 0.39370  0.16270  0.10560  Biso   1.000  C
  C58      1.0000 0.60630  0.83730  0.89440  Biso   1.000  C
  H31      1.0000 0.45390  0.13200  0.10290  Biso   1.000  H
  H32      1.0000 0.54610  0.86800  0.89710  Biso   1.000  H
  C59      1.0000 0.22750  0.62500  0.71600  Biso   1.000  C
  C60      1.0000 0.77250  0.37500  0.28400  Biso   1.000  C
  H33      1.0000 0.21900  0.67610  0.67760  Biso   1.000  H
  H34      1.0000 0.78100  0.32390  0.32240  Biso   1.000  H
  Cu3      1.0000 0.00389  0.54307  0.48882  Biso   1.000  Cu
  Cu4      1.0000 0.99611  0.45693  0.51118  Biso   1.000  Cu
  C61      1.0000 0.22070  0.15750  0.15650  Biso   1.000  C
  C62      1.0000 0.77930  0.84250  0.84350  Biso   1.000  C
  H35      1.0000 0.16690  0.12720  0.18610  Biso   1.000  H
  H36      1.0000 0.83310  0.87280  0.81390  Biso   1.000  H
  O9       1.0000 0.01520  0.68950  0.44630  Biso   1.000  O
  O10      1.0000 0.98480  0.31050  0.55370  Biso   1.000  O
  O11      1.0000 0.30930  0.01940  0.18160  Biso   1.000  O
  O12      1.0000 0.69070  0.98060  0.81840  Biso   1.000  O
  N5       1.0000 0.96490  0.52600  0.62410  Biso   1.000  N
  N6       1.0000 0.03510  0.47400  0.37590  Biso   1.000  N
  N7       1.0000 0.14490  0.49310  0.49830  Biso   1.000  N
  N8       1.0000 0.85510  0.50690  0.50170  Biso   1.000  N
  C63      1.0000 0.18500  0.50810  0.56530  Biso   1.000  C
  C64      1.0000 0.81500  0.49190  0.43470  Biso   1.000  C
  C65      1.0000 0.33170  0.86030  0.16150  Biso   1.000  C
  C66      1.0000 0.66830  0.13970  0.83850  Biso   1.000  C
  H37      1.0000 0.32880  0.84710  0.21960  Biso   1.000  H
  H38      1.0000 0.67120  0.15290  0.78040  Biso   1.000  H
  C67      1.0000 0.34950  0.79030  0.10800  Biso   1.000  C
  C68      1.0000 0.65050  0.20970  0.89200  Biso   1.000  C
  H39      1.0000 0.36330  0.72950  0.12880  Biso   1.000  H
  H40      1.0000 0.63670  0.27050  0.87120  Biso   1.000  H
