data_image0
_cell_length_a       13.888
_cell_length_b       5.671
_cell_length_c       15.181
_cell_angle_alpha    91.95
_cell_angle_beta     111.56
_cell_angle_gamma    92.39

_symmetry_space_group_name_H-M    "P 1"
_symmetry_int_tables_number       1

loop_
  _symmetry_equiv_pos_as_xyz
  'x, y, z'

loop_
  _atom_site_label
  _atom_site_occupancy
  _atom_site_fract_x
  _atom_site_fract_y
  _atom_site_fract_z
  _atom_site_thermal_displace_type
  _atom_site_B_iso_or_equiv
  _atom_site_type_symbol
  Cu1      1.0000 0.43453  0.74027  0.48694  Biso   1.000  Cu
  Cu2      1.0000 0.56547  0.25973  0.51306  Biso   1.000  Cu
  F1       1.0000 0.55220  0.88930  0.58720  Biso   1.000  F
  F2       1.0000 0.44780  0.11070  0.41280  Biso   1.000  F
  F3       1.0000 0.52710  0.61950  0.43140  Biso   1.000  F
  F4       1.0000 0.47290  0.38050  0.56860  Biso   1.000  F
  N1       1.0000 0.32650  0.44560  0.31570  Biso   1.000  N
  N2       1.0000 0.67350  0.55440  0.68430  Biso   1.000  N
  N3       1.0000 0.31660  0.63190  0.36860  Biso   1.000  N
  N4       1.0000 0.68340  0.36810  0.63140  Biso   1.000  N
  N5       1.0000 0.37990  0.01540  0.62430  Biso   1.000  N
  N6       1.0000 0.62010  0.98460  0.37570  Biso   1.000  N
  N7       1.0000 0.34740  0.82620  0.56110  Biso   1.000  N
  N8       1.0000 0.65260  0.17380  0.43890  Biso   1.000  N
  C1       1.0000 0.22680  0.72240  0.31710  Biso   1.000  C
  C2       1.0000 0.77320  0.27760  0.68290  Biso   1.000  C
  C3       1.0000 0.17850  0.59350  0.23110  Biso   1.000  C
  C4       1.0000 0.82150  0.40650  0.76890  Biso   1.000  C
  C5       1.0000 0.24500  0.41580  0.23190  Biso   1.000  C
  C6       1.0000 0.75500  0.58420  0.76810  Biso   1.000  C
  C7       1.0000 0.26840  0.71930  0.57760  Biso   1.000  C
  C8       1.0000 0.73160  0.28070  0.42240  Biso   1.000  C
  C9       1.0000 0.24970  0.84080  0.65120  Biso   1.000  C
  C10      1.0000 0.75030  0.15920  0.34880  Biso   1.000  C
  C11      1.0000 0.32340  0.02990  0.68030  Biso   1.000  C
  C12      1.0000 0.67660  0.97010  0.31970  Biso   1.000  C
  C13      1.0000 0.19030  0.94190  0.35320  Biso   1.000  C
  C14      1.0000 0.80970  0.05810  0.64680  Biso   1.000  C
  C15      1.0000 0.07400  0.64430  0.15940  Biso   1.000  C
  C16      1.0000 0.92600  0.35570  0.84060  Biso   1.000  C
  C17      1.0000 0.98580  0.50100  0.17110  Biso   1.000  C
  C18      1.0000 0.01420  0.49900  0.82890  Biso   1.000  C
  C19      1.0000 0.24320  0.22610  0.16150  Biso   1.000  C
  C20      1.0000 0.75680  0.77390  0.83850  Biso   1.000  C
  C21      1.0000 0.16520  0.20130  0.07330  Biso   1.000  C
  C22      1.0000 0.83480  0.79870  0.92670  Biso   1.000  C
  C23      1.0000 0.16610  0.02750  0.00760  Biso   1.000  C
  C24      1.0000 0.83390  0.97250  0.99240  Biso   1.000  C
  C25      1.0000 0.24350  0.87510  0.02820  Biso   1.000  C
  C26      1.0000 0.75650  0.12490  0.97180  Biso   1.000  C
  C27      1.0000 0.32090  0.89470  0.11570  Biso   1.000  C
  C28      1.0000 0.67910  0.10530  0.88430  Biso   1.000  C
  C29      1.0000 0.32220  0.07120  0.18220  Biso   1.000  C
  C30      1.0000 0.67780  0.92880  0.81780  Biso   1.000  C
  C31      1.0000 0.21530  0.49170  0.52340  Biso   1.000  C
  C32      1.0000 0.78470  0.50830  0.47660  Biso   1.000  C
  C33      1.0000 0.16360  0.76930  0.68520  Biso   1.000  C
  C34      1.0000 0.83640  0.23070  0.31480  Biso   1.000  C
  C35      1.0000 0.10720  0.99280  0.65000  Biso   1.000  C
  C36      1.0000 0.89280  0.00720  0.35000  Biso   1.000  C
  C37      1.0000 0.10570  0.98420  0.61800  Biso   1.000  C
  C38      1.0000 0.89430  0.01580  0.38200  Biso   1.000  C
  C39      1.0000 0.10410  0.99740  0.68000  Biso   1.000  C
  C40      1.0000 0.89590  0.00260  0.32000  Biso   1.000  C
  C41      1.0000 0.35000  0.21590  0.75600  Biso   1.000  C
  C42      1.0000 0.65000  0.78410  0.24400  Biso   1.000  C
  C43      1.0000 0.31710  0.19670  0.83190  Biso   1.000  C
  C44      1.0000 0.68290  0.80330  0.16810  Biso   1.000  C
  C45      1.0000 0.34140  0.37570  0.90340  Biso   1.000  C
  C46      1.0000 0.65860  0.62430  0.09660  Biso   1.000  C
  C47      1.0000 0.40290  0.56850  0.90250  Biso   1.000  C
  C48      1.0000 0.59710  0.43150  0.09750  Biso   1.000  C
  C49      1.0000 0.44060  0.58780  0.83040  Biso   1.000  C
  C50      1.0000 0.55940  0.41220  0.16960  Biso   1.000  C
  C51      1.0000 0.41410  0.41460  0.75750  Biso   1.000  C
  C52      1.0000 0.58590  0.58540  0.24250  Biso   1.000  C
  H1       1.0000 0.10860  0.30760  0.05670  Biso   1.000  H
  H2       1.0000 0.89140  0.69240  0.94330  Biso   1.000  H
  H3       1.0000 0.10950  0.01120  0.94590  Biso   1.000  H
  H4       1.0000 0.89050  0.98880  0.05410  Biso   1.000  H
  H5       1.0000 0.24410  0.75570  0.98070  Biso   1.000  H
  H6       1.0000 0.75590  0.24430  0.01930  Biso   1.000  H
  H7       1.0000 0.37660  0.78600  0.13190  Biso   1.000  H
  H8       1.0000 0.62340  0.21400  0.86810  Biso   1.000  H
  H9       1.0000 0.37860  0.08540  0.24410  Biso   1.000  H
  H10      1.0000 0.62140  0.91460  0.75590  Biso   1.000  H
  H11      1.0000 0.27420  0.05830  0.83420  Biso   1.000  H
  H12      1.0000 0.72580  0.94170  0.16580  Biso   1.000  H
  H13      1.0000 0.31680  0.36000  0.95540  Biso   1.000  H
  H14      1.0000 0.68320  0.64000  0.04460  Biso   1.000  H
  H15      1.0000 0.42050  0.69250  0.95280  Biso   1.000  H
  H16      1.0000 0.57950  0.30750  0.04720  Biso   1.000  H
  H17      1.0000 0.48490  0.72480  0.82940  Biso   1.000  H
  H18      1.0000 0.51510  0.27520  0.17060  Biso   1.000  H
  H19      1.0000 0.44030  0.43110  0.70640  Biso   1.000  H
  H20      1.0000 0.55970  0.56890  0.29360  Biso   1.000  H
  H21      1.0000 0.38490  0.34420  0.33520  Biso   1.000  H
  H22      1.0000 0.61510  0.65580  0.66480  Biso   1.000  H
  H23      1.0000 0.43720  0.12700  0.62910  Biso   1.000  H
  H24      1.0000 0.56280  0.87300  0.37090  Biso   1.000  H
  H25      1.0000 0.06350  0.81200  0.16580  Biso   1.000  H
  H26      1.0000 0.93650  0.18800  0.83420  Biso   1.000  H
  H27      1.0000 0.07370  0.60820  0.09600  Biso   1.000  H
  H28      1.0000 0.92630  0.39180  0.90400  Biso   1.000  H
  H29      1.0000 0.13880  0.60700  0.66220  Biso   1.000  H
  H30      1.0000 0.86120  0.39300  0.33780  Biso   1.000  H
  H31      1.0000 0.19150  0.77720  0.75430  Biso   1.000  H
  H32      1.0000 0.80850  0.22280  0.24570  Biso   1.000  H
