data_image0
_cell_length_a       7.4592
_cell_length_b       10.251
_cell_length_c       11.624
_cell_angle_alpha    78.603
_cell_angle_beta     85.529
_cell_angle_gamma    83.151

_symmetry_space_group_name_H-M    "P 1"
_symmetry_int_tables_number       1

loop_
  _symmetry_equiv_pos_as_xyz
  'x, y, z'

loop_
  _atom_site_label
  _atom_site_occupancy
  _atom_site_fract_x
  _atom_site_fract_y
  _atom_site_fract_z
  _atom_site_thermal_displace_type
  _atom_site_B_iso_or_equiv
  _atom_site_type_symbol
  Mo1      1.0000 0.37350  0.00464  0.86509  Biso   1.000  Mo
  Mo2      1.0000 0.62650  0.99536  0.13491  Biso   1.000  Mo
  Mo3      1.0000 0.94558  0.04891  0.86174  Biso   1.000  Mo
  Mo4      1.0000 0.05442  0.95109  0.13826  Biso   1.000  Mo
  Cu1      1.0000 0.57133  0.29045  0.73632  Biso   1.000  Cu
  Cu2      1.0000 0.42867  0.70955  0.26368  Biso   1.000  Cu
  O1       1.0000 0.14862  0.95228  0.97555  Biso   1.000  O
  O2       1.0000 0.85138  0.04772  0.02445  Biso   1.000  O
  O3       1.0000 0.16029  0.04949  0.76662  Biso   1.000  O
  O4       1.0000 0.83971  0.95051  0.23338  Biso   1.000  O
  O5       1.0000 0.50000  0.00000  0.00000  Biso   1.000  O
  O6       1.0000 0.23050  0.19830  0.91648  Biso   1.000  O
  O7       1.0000 0.76950  0.80170  0.08352  Biso   1.000  O
  O8       1.0000 0.50090  0.11217  0.76296  Biso   1.000  O
  O9       1.0000 0.49910  0.88783  0.23704  Biso   1.000  O
  O10      1.0000 0.43830  0.85097  0.83524  Biso   1.000  O
  O11      1.0000 0.56170  0.14903  0.16476  Biso   1.000  O
  O12      1.0000 0.83710  0.20567  0.80590  Biso   1.000  O
  O13      1.0000 0.16290  0.79433  0.19410  Biso   1.000  O
  O14      1.0000 0.83800  0.93393  0.81640  Biso   1.000  O
  O15      1.0000 0.16200  0.06607  0.18360  Biso   1.000  O
  O16      1.0000 0.42040  0.35610  0.86342  Biso   1.000  O
  O17      1.0000 0.57960  0.64390  0.13658  Biso   1.000  O
  N1       1.0000 0.67730  0.25965  0.57666  Biso   1.000  N
  N2       1.0000 0.32270  0.74035  0.42334  Biso   1.000  N
  N3       1.0000 0.63550  0.47719  0.66959  Biso   1.000  N
  N4       1.0000 0.36450  0.52281  0.33041  Biso   1.000  N
  C1       1.0000 0.70540  0.14660  0.53580  Biso   1.000  C
  C2       1.0000 0.29460  0.85340  0.46420  Biso   1.000  C
  H1       1.0000 0.66940  0.06870  0.58280  Biso   1.000  H
  H2       1.0000 0.33060  0.93130  0.41720  Biso   1.000  H
  C3       1.0000 0.78750  0.14080  0.42420  Biso   1.000  C
  C4       1.0000 0.21250  0.85920  0.57580  Biso   1.000  C
  H3       1.0000 0.80360  0.06010  0.39770  Biso   1.000  H
  H4       1.0000 0.19640  0.93990  0.60230  Biso   1.000  H
  C5       1.0000 0.84350  0.25280  0.35470  Biso   1.000  C
  C6       1.0000 0.15650  0.74720  0.64530  Biso   1.000  C
  H5       1.0000 0.89770  0.24930  0.28040  Biso   1.000  H
  H6       1.0000 0.10230  0.75070  0.71960  Biso   1.000  H
  C7       1.0000 0.81900  0.37390  0.39580  Biso   1.000  C
  C8       1.0000 0.18100  0.62610  0.60420  Biso   1.000  C
  C9       1.0000 0.87800  0.49810  0.33200  Biso   1.000  C
  C10      1.0000 0.12200  0.50190  0.66800  Biso   1.000  C
  H7       1.0000 0.93660  0.50070  0.25810  Biso   1.000  H
  H8       1.0000 0.06340  0.49930  0.74190  Biso   1.000  H
  C11      1.0000 0.84960  0.61120  0.37770  Biso   1.000  C
  C12      1.0000 0.15040  0.38880  0.62230  Biso   1.000  C
  H9       1.0000 0.88510  0.69080  0.33340  Biso   1.000  H
  H10      1.0000 0.11490  0.30920  0.66660  Biso   1.000  H
  C13      1.0000 0.76600  0.61000  0.49240  Biso   1.000  C
  C14      1.0000 0.23400  0.39000  0.50760  Biso   1.000  C
  C15      1.0000 0.74380  0.72070  0.54860  Biso   1.000  C
  C16      1.0000 0.25620  0.27930  0.45140  Biso   1.000  C
  H11      1.0000 0.77650  0.80310  0.50870  Biso   1.000  H
  H12      1.0000 0.22350  0.19690  0.49130  Biso   1.000  H
  C17      1.0000 0.67390  0.70700  0.66170  Biso   1.000  C
  C18      1.0000 0.32610  0.29300  0.33830  Biso   1.000  C
  H13      1.0000 0.66270  0.77920  0.70020  Biso   1.000  H
  H14      1.0000 0.33730  0.22080  0.29980  Biso   1.000  H
  C19      1.0000 0.61880  0.58330  0.72010  Biso   1.000  C
  C20      1.0000 0.38120  0.41670  0.27990  Biso   1.000  C
  H15      1.0000 0.56900  0.57590  0.79670  Biso   1.000  H
  H16      1.0000 0.43100  0.42410  0.20330  Biso   1.000  H
  C21      1.0000 0.71040  0.49010  0.55780  Biso   1.000  C
  C22      1.0000 0.28960  0.50990  0.44220  Biso   1.000  C
  C23      1.0000 0.73520  0.37170  0.50760  Biso   1.000  C
  C24      1.0000 0.26480  0.62830  0.49240  Biso   1.000  C
  C25      1.0000 0.27470  0.31250  0.91178  Biso   1.000  C
  C26      1.0000 0.72530  0.68750  0.08822  Biso   1.000  C
  C27      1.0000 0.13590  0.40950  0.96246  Biso   1.000  C
  C28      1.0000 0.86410  0.59050  0.03754  Biso   1.000  C
  C29      1.0000 0.16970  0.53980  0.96260  Biso   1.000  C
  C30      1.0000 0.83030  0.46020  0.03740  Biso   1.000  C
  H17      1.0000 0.28350  0.56680  0.93810  Biso   1.000  H
  H18      1.0000 0.71650  0.43320  0.06190  Biso   1.000  H
  C31      1.0000 0.96630  0.37040  0.00060  Biso   1.000  C
  C32      1.0000 0.03370  0.62960  0.99940  Biso   1.000  C
  H19      1.0000 0.94330  0.28300  0.00150  Biso   1.000  H
  H20      1.0000 0.05670  0.71700  0.99850  Biso   1.000  H
