data_image0
_cell_length_a       13.5523
_cell_length_b       14.1859
_cell_length_c       14.3213
_cell_angle_alpha    62.616
_cell_angle_beta     68.254
_cell_angle_gamma    89.711

_symmetry_space_group_name_H-M    "P 1"
_symmetry_int_tables_number       1

loop_
  _symmetry_equiv_pos_as_xyz
  'x, y, z'

loop_
  _atom_site_label
  _atom_site_occupancy
  _atom_site_fract_x
  _atom_site_fract_y
  _atom_site_fract_z
  _atom_site_thermal_displace_type
  _atom_site_B_iso_or_equiv
  _atom_site_type_symbol
  O1       1.0000 0.00900  0.91790  0.98860  Biso   1.000  O
  O2       1.0000 0.99100  0.08210  0.01140  Biso   1.000  O
  H1       1.0000 0.99760  0.89650  0.94850  Biso   1.000  H
  H2       1.0000 0.00240  0.10350  0.05150  Biso   1.000  H
  C1       1.0000 0.97810  0.01010  0.96760  Biso   1.000  C
  C2       1.0000 0.02190  0.98990  0.03240  Biso   1.000  C
  H3       1.0000 0.90750  0.99770  0.02610  Biso   1.000  H
  H4       1.0000 0.09250  0.00230  0.97390  Biso   1.000  H
  H5       1.0000 0.97540  0.04340  0.89330  Biso   1.000  H
  H6       1.0000 0.02460  0.95660  0.10670  Biso   1.000  H
  H7       1.0000 0.02870  0.05700  0.96780  Biso   1.000  H
  H8       1.0000 0.97130  0.94300  0.03220  Biso   1.000  H
  Cu1      1.0000 0.29400  0.13450  0.41860  Biso   1.000  Cu
  Cu2      1.0000 0.70600  0.86550  0.58140  Biso   1.000  Cu
  Cu3      1.0000 0.24930  0.75540  0.16910  Biso   1.000  Cu
  Cu4      1.0000 0.75070  0.24460  0.83090  Biso   1.000  Cu
  Mg1      1.0000 0.50000  0.50000  0.00000  Biso   1.000  Mg
  Na1      1.0000 0.51440  0.51450  0.60690  Biso   1.000  Na
  Na2      1.0000 0.48560  0.48550  0.39310  Biso   1.000  Na
  Na3      1.0000 0.33250  0.28350  0.87120  Biso   1.000  Na
  Na4      1.0000 0.66750  0.71650  0.12880  Biso   1.000  Na
  Na5      1.0000 0.90260  0.38540  0.12540  Biso   1.000  Na
  Na6      1.0000 0.09740  0.61460  0.87460  Biso   1.000  Na
  O3       1.0000 0.53170  0.70470  0.48410  Biso   1.000  O
  O4       1.0000 0.46830  0.29530  0.51590  Biso   1.000  O
  H9       1.0000 0.58820  0.72310  0.48570  Biso   1.000  H
  H10      1.0000 0.41180  0.27690  0.51430  Biso   1.000  H
  H11      1.0000 0.48140  0.73010  0.51080  Biso   1.000  H
  H12      1.0000 0.51860  0.26990  0.48920  Biso   1.000  H
  O5       1.0000 0.65680  0.53630  0.65640  Biso   1.000  O
  O6       1.0000 0.34320  0.46370  0.34360  Biso   1.000  O
  H13      1.0000 0.65350  0.58620  0.67120  Biso   1.000  H
  H14      1.0000 0.34650  0.41380  0.32880  Biso   1.000  H
  H15      1.0000 0.66220  0.48010  0.70790  Biso   1.000  H
  H16      1.0000 0.33780  0.51990  0.29210  Biso   1.000  H
  O7       1.0000 0.63080  0.50910  0.44090  Biso   1.000  O
  O8       1.0000 0.36920  0.49090  0.55910  Biso   1.000  O
  H17      1.0000 0.67240  0.56420  0.38120  Biso   1.000  H
  H18      1.0000 0.32760  0.43580  0.61880  Biso   1.000  H
  H19      1.0000 0.66500  0.46010  0.46160  Biso   1.000  H
  H20      1.0000 0.33500  0.53990  0.53840  Biso   1.000  H
  O9       1.0000 0.37060  0.48110  0.78600  Biso   1.000  O
  O10      1.0000 0.62940  0.51890  0.21400  Biso   1.000  O
  H21      1.0000 0.32810  0.51970  0.76900  Biso   1.000  H
  H22      1.0000 0.67190  0.48030  0.23100  Biso   1.000  H
  H23      1.0000 0.39320  0.48980  0.82790  Biso   1.000  H
  H24      1.0000 0.60680  0.51020  0.17210  Biso   1.000  H
  O11      1.0000 0.49090  0.31210  0.70430  Biso   1.000  O
  O12      1.0000 0.50910  0.68790  0.29570  Biso   1.000  O
  H25      1.0000 0.46860  0.29190  0.66870  Biso   1.000  H
  H26      1.0000 0.53140  0.70810  0.33130  Biso   1.000  H
  H27      1.0000 0.54770  0.29300  0.70660  Biso   1.000  H
  H28      1.0000 0.45230  0.70700  0.29340  Biso   1.000  H
  O13      1.0000 0.22280  0.29490  0.03470  Biso   1.000  O
  O14      1.0000 0.77720  0.70510  0.96530  Biso   1.000  O
  H29      1.0000 0.23760  0.33100  0.06330  Biso   1.000  H
  H30      1.0000 0.76240  0.66900  0.93670  Biso   1.000  H
  H31      1.0000 0.16670  0.24570  0.09000  Biso   1.000  H
  H32      1.0000 0.83330  0.75430  0.91000  Biso   1.000  H
  O15      1.0000 0.23990  0.29820  0.75640  Biso   1.000  O
  O16      1.0000 0.76010  0.70180  0.24360  Biso   1.000  O
  H33      1.0000 0.18280  0.32090  0.76370  Biso   1.000  H
  H34      1.0000 0.81720  0.67910  0.23630  Biso   1.000  H
  H35      1.0000 0.23380  0.23830  0.76010  Biso   1.000  H
  H36      1.0000 0.76620  0.76170  0.23990  Biso   1.000  H
  O17      1.0000 0.87970  0.18350  0.23670  Biso   1.000  O
  O18      1.0000 0.12030  0.81650  0.76330  Biso   1.000  O
  H37      1.0000 0.83060  0.14850  0.30340  Biso   1.000  H
  H38      1.0000 0.16940  0.85150  0.69660  Biso   1.000  H
  H39      1.0000 0.93920  0.19100  0.23860  Biso   1.000  H
  H40      1.0000 0.06080  0.80900  0.76140  Biso   1.000  H
  O19      1.0000 0.75950  0.36900  0.29230  Biso   1.000  O
  O20      1.0000 0.24050  0.63100  0.70770  Biso   1.000  O
  H41      1.0000 0.78500  0.39790  0.31950  Biso   1.000  H
  H42      1.0000 0.21500  0.60210  0.68050  Biso   1.000  H
  H43      1.0000 0.73520  0.30320  0.33830  Biso   1.000  H
  H44      1.0000 0.26480  0.69680  0.66170  Biso   1.000  H
  O21      1.0000 0.81400  0.41040  0.99930  Biso   1.000  O
  O22      1.0000 0.18600  0.58960  0.00070  Biso   1.000  O
  H45      1.0000 0.82510  0.38300  0.95750  Biso   1.000  H
  H46      1.0000 0.17490  0.61700  0.04250  Biso   1.000  H
  H47      1.0000 0.76110  0.43990  0.00250  Biso   1.000  H
  H48      1.0000 0.23890  0.56010  0.99750  Biso   1.000  H
  O23      1.0000 0.06530  0.41400  0.96290  Biso   1.000  O
  O24      1.0000 0.93470  0.58600  0.03710  Biso   1.000  O
  H49      1.0000 0.11510  0.38520  0.97720  Biso   1.000  H
  H50      1.0000 0.88490  0.61480  0.02280  Biso   1.000  H
  H51      1.0000 0.05170  0.40070  0.91810  Biso   1.000  H
  H52      1.0000 0.94830  0.59930  0.08190  Biso   1.000  H
  O25      1.0000 0.02740  0.39390  0.20990  Biso   1.000  O
  O26      1.0000 0.97260  0.60610  0.79010  Biso   1.000  O
  H53      1.0000 0.07950  0.44530  0.16730  Biso   1.000  H
  H54      1.0000 0.92050  0.55470  0.83270  Biso   1.000  H
  H55      1.0000 0.04620  0.33490  0.23020  Biso   1.000  H
  H56      1.0000 0.95380  0.66510  0.76980  Biso   1.000  H
  O27      1.0000 0.30590  0.43260  0.12750  Biso   1.000  O
  O28      1.0000 0.69410  0.56740  0.87250  Biso   1.000  O
  H57      1.0000 0.29960  0.39960  0.09360  Biso   1.000  H
  H58      1.0000 0.70040  0.60040  0.90640  Biso   1.000  H
  H59      1.0000 0.33080  0.39220  0.17540  Biso   1.000  H
  H60      1.0000 0.66920  0.60780  0.82460  Biso   1.000  H
  O29      1.0000 0.28350  0.16320  0.55680  Biso   1.000  O
  O30      1.0000 0.71650  0.83680  0.44320  Biso   1.000  O
  O31      1.0000 0.16610  0.13300  0.73020  Biso   1.000  O
  O32      1.0000 0.83390  0.86700  0.26980  Biso   1.000  O
  O33      1.0000 0.22930  0.15060  0.29700  Biso   1.000  O
  O34      1.0000 0.77070  0.84940  0.70300  Biso   1.000  O
  O35      1.0000 0.07960  0.17100  0.26510  Biso   1.000  O
  O36      1.0000 0.92040  0.82900  0.73490  Biso   1.000  O
  O37      1.0000 0.27700  0.95780  0.52090  Biso   1.000  O
  O38      1.0000 0.72300  0.04220  0.47910  Biso   1.000  O
  O39      1.0000 0.37610  0.82890  0.54530  Biso   1.000  O
  O40      1.0000 0.62390  0.17110  0.45470  Biso   1.000  O
  O41      1.0000 0.39190  0.29580  0.28830  Biso   1.000  O
  O42      1.0000 0.60810  0.70420  0.71170  Biso   1.000  O
  O43      1.0000 0.55560  0.38120  0.14220  Biso   1.000  O
  O44      1.0000 0.44440  0.61880  0.85780  Biso   1.000  O
  O45      1.0000 0.25310  0.65820  0.49020  Biso   1.000  O
  O46      1.0000 0.74690  0.34180  0.50980  Biso   1.000  O
  O47      1.0000 0.30690  0.73540  0.29930  Biso   1.000  O
  O48      1.0000 0.69310  0.26460  0.70070  Biso   1.000  O
  O49      1.0000 0.13320  0.69940  0.12680  Biso   1.000  O
  O50      1.0000 0.86680  0.30060  0.87320  Biso   1.000  O
  O51      1.0000 0.95520  0.64110  0.19300  Biso   1.000  O
  O52      1.0000 0.04480  0.35890  0.80700  Biso   1.000  O
  O53      1.0000 0.20670  0.91490  0.10840  Biso   1.000  O
  O54      1.0000 0.79330  0.08510  0.89160  Biso   1.000  O
  O55      1.0000 0.27360  0.08870  0.97510  Biso   1.000  O
  O56      1.0000 0.72640  0.91130  0.02490  Biso   1.000  O
  O57      1.0000 0.35120  0.64560  0.13660  Biso   1.000  O
  O58      1.0000 0.64880  0.35440  0.86340  Biso   1.000  O
  O59      1.0000 0.52370  0.64340  0.04370  Biso   1.000  O
  O60      1.0000 0.47630  0.35660  0.95630  Biso   1.000  O
  N1       1.0000 0.13530  0.13360  0.49750  Biso   1.000  N
  N2       1.0000 0.86470  0.86640  0.50250  Biso   1.000  N
  N3       1.0000 0.44460  0.10860  0.35210  Biso   1.000  N
  N4       1.0000 0.55540  0.89140  0.64790  Biso   1.000  N
  N5       1.0000 0.11570  0.67870  0.32090  Biso   1.000  N
  N6       1.0000 0.88430  0.32130  0.67910  Biso   1.000  N
  N7       1.0000 0.38340  0.85480  0.02570  Biso   1.000  N
  N8       1.0000 0.61660  0.14520  0.97430  Biso   1.000  N
  C3       1.0000 0.13010  0.15250  0.32630  Biso   1.000  C
  C4       1.0000 0.86990  0.84750  0.67370  Biso   1.000  C
  C5       1.0000 0.06850  0.13260  0.44930  Biso   1.000  C
  C6       1.0000 0.93150  0.86740  0.55070  Biso   1.000  C
  C7       1.0000 0.95680  0.11650  0.50900  Biso   1.000  C
  C8       1.0000 0.04320  0.88350  0.49100  Biso   1.000  C
  H61      1.0000 0.91020  0.11850  0.47440  Biso   1.000  H
  H62      1.0000 0.08980  0.88150  0.52560  Biso   1.000  H
  C9       1.0000 0.91770  0.09750  0.62020  Biso   1.000  C
  C10      1.0000 0.08230  0.90250  0.37980  Biso   1.000  C
  H63      1.0000 0.84330  0.08190  0.66360  Biso   1.000  H
  H64      1.0000 0.15670  0.91810  0.33640  Biso   1.000  H
  C11      1.0000 0.98780  0.10150  0.66900  Biso   1.000  C
  C12      1.0000 0.01220  0.89850  0.33100  Biso   1.000  C
  H65      1.0000 0.96140  0.09050  0.74380  Biso   1.000  H
  H66      1.0000 0.03860  0.90950  0.25620  Biso   1.000  H
  C13      1.0000 0.09800  0.12210  0.60320  Biso   1.000  C
  C14      1.0000 0.90200  0.87790  0.39680  Biso   1.000  C
  C15      1.0000 0.18880  0.13920  0.63500  Biso   1.000  C
  C16      1.0000 0.81120  0.86080  0.36500  Biso   1.000  C
  C17      1.0000 0.36290  0.92300  0.49520  Biso   1.000  C
  C18      1.0000 0.63710  0.07700  0.50480  Biso   1.000  C
  C19      1.0000 0.46270  0.00780  0.39380  Biso   1.000  C
  C20      1.0000 0.53730  0.99220  0.60620  Biso   1.000  C
  C21      1.0000 0.56370  0.98660  0.34670  Biso   1.000  C
  C22      1.0000 0.43630  0.01340  0.65330  Biso   1.000  C
  H67      1.0000 0.57570  0.91620  0.37630  Biso   1.000  H
  H68      1.0000 0.42430  0.08380  0.62370  Biso   1.000  H
  C23      1.0000 0.64650  0.07220  0.25490  Biso   1.000  C
  C24      1.0000 0.35350  0.92780  0.74510  Biso   1.000  C
  H69      1.0000 0.71480  0.05970  0.22160  Biso   1.000  H
  H70      1.0000 0.28520  0.94030  0.77840  Biso   1.000  H
  C25      1.0000 0.62710  0.17630  0.21280  Biso   1.000  C
  C26      1.0000 0.37290  0.82370  0.78720  Biso   1.000  C
  H71      1.0000 0.68210  0.23470  0.15160  Biso   1.000  H
  H72      1.0000 0.31790  0.76530  0.84840  Biso   1.000  H
  C27      1.0000 0.52420  0.19180  0.26370  Biso   1.000  C
  C28      1.0000 0.47580  0.80820  0.73630  Biso   1.000  C
  C29      1.0000 0.48950  0.29940  0.22720  Biso   1.000  C
  C30      1.0000 0.51050  0.70060  0.77280  Biso   1.000  C
  C31      1.0000 0.03620  0.66670  0.20370  Biso   1.000  C
  C32      1.0000 0.96380  0.33330  0.79630  Biso   1.000  C
  C33      1.0000 0.02150  0.65500  0.31910  Biso   1.000  C
  C34      1.0000 0.97850  0.34500  0.68090  Biso   1.000  C
  C35      1.0000 0.92550  0.61930  0.41660  Biso   1.000  C
  C36      1.0000 0.07450  0.38070  0.58340  Biso   1.000  C
  H73      1.0000 0.85980  0.60390  0.41480  Biso   1.000  H
  H74      1.0000 0.14020  0.39610  0.58520  Biso   1.000  H
  C37      1.0000 0.92910  0.60670  0.51730  Biso   1.000  C
  C38      1.0000 0.07090  0.39330  0.48270  Biso   1.000  C
  H75      1.0000 0.86520  0.58490  0.58310  Biso   1.000  H
  H76      1.0000 0.13480  0.41510  0.41690  Biso   1.000  H
  C39      1.0000 0.02800  0.62670  0.51960  Biso   1.000  C
  C40      1.0000 0.97200  0.37330  0.48040  Biso   1.000  C
  H77      1.0000 0.03200  0.61550  0.58730  Biso   1.000  H
  H78      1.0000 0.96800  0.38450  0.41270  Biso   1.000  H
  C41      1.0000 0.12100  0.66380  0.41780  Biso   1.000  C
  C42      1.0000 0.87900  0.33620  0.58220  Biso   1.000  C
  C43      1.0000 0.23660  0.68820  0.40280  Biso   1.000  C
  C44      1.0000 0.76340  0.31180  0.59720  Biso   1.000  C
  C45      1.0000 0.28030  0.99270  0.02180  Biso   1.000  C
  C46      1.0000 0.71970  0.00730  0.97820  Biso   1.000  C
  C47      1.0000 0.38630  0.96090  0.96960  Biso   1.000  C
  C48      1.0000 0.61370  0.03910  0.03040  Biso   1.000  C
  C49      1.0000 0.47780  0.03110  0.87340  Biso   1.000  C
  C50      1.0000 0.52220  0.96890  0.12660  Biso   1.000  C
  H79      1.0000 0.47930  0.10500  0.83400  Biso   1.000  H
  H80      1.0000 0.52070  0.89500  0.16600  Biso   1.000  H
  C51      1.0000 0.56740  0.98810  0.83720  Biso   1.000  C
  C52      1.0000 0.43260  0.01190  0.16280  Biso   1.000  C
  H81      1.0000 0.63010  0.03380  0.77310  Biso   1.000  H
  H82      1.0000 0.36990  0.96620  0.22690  Biso   1.000  H
  C53      1.0000 0.56430  0.87830  0.89530  Biso   1.000  C
  C54      1.0000 0.43570  0.12170  0.10470  Biso   1.000  C
  H83      1.0000 0.62390  0.84900  0.87160  Biso   1.000  H
  H84      1.0000 0.37610  0.15100  0.12840  Biso   1.000  H
  C55      1.0000 0.46860  0.81260  0.99070  Biso   1.000  C
  C56      1.0000 0.53140  0.18740  0.00930  Biso   1.000  C
  C57      1.0000 0.44840  0.69130  0.06160  Biso   1.000  C
  C58      1.0000 0.55160  0.30870  0.93840  Biso   1.000  C
