data_image0
_cell_length_a       14.5721
_cell_length_b       15.1175
_cell_length_c       13.6055
_cell_angle_alpha    90
_cell_angle_beta     90
_cell_angle_gamma    90

_symmetry_space_group_name_H-M    "P 1"
_symmetry_int_tables_number       1

loop_
  _symmetry_equiv_pos_as_xyz
  'x, y, z'

loop_
  _atom_site_label
  _atom_site_occupancy
  _atom_site_fract_x
  _atom_site_fract_y
  _atom_site_fract_z
  _atom_site_thermal_displace_type
  _atom_site_B_iso_or_equiv
  _atom_site_type_symbol
  Cu1      1.0000 0.02866  0.45940  0.86664  Biso   1.000  Cu
  Cu2      1.0000 0.47134  0.04060  0.36664  Biso   1.000  Cu
  Cu3      1.0000 0.97134  0.45940  0.63336  Biso   1.000  Cu
  Cu4      1.0000 0.52866  0.04060  0.13336  Biso   1.000  Cu
  Cu5      1.0000 0.97134  0.54060  0.13336  Biso   1.000  Cu
  Cu6      1.0000 0.52866  0.95940  0.63336  Biso   1.000  Cu
  Cu7      1.0000 0.02866  0.54060  0.36664  Biso   1.000  Cu
  Cu8      1.0000 0.47134  0.95940  0.86664  Biso   1.000  Cu
  F1       1.0000 0.69290  0.39350  0.79130  Biso   1.000  F
  F2       1.0000 0.80710  0.10650  0.29130  Biso   1.000  F
  F3       1.0000 0.30710  0.39350  0.70870  Biso   1.000  F
  F4       1.0000 0.19290  0.10650  0.20870  Biso   1.000  F
  F5       1.0000 0.30710  0.60650  0.20870  Biso   1.000  F
  F6       1.0000 0.19290  0.89350  0.70870  Biso   1.000  F
  F7       1.0000 0.69290  0.60650  0.29130  Biso   1.000  F
  F8       1.0000 0.80710  0.89350  0.79130  Biso   1.000  F
  F9       1.0000 0.55990  0.27980  0.84220  Biso   1.000  F
  F10      1.0000 0.94010  0.22020  0.34220  Biso   1.000  F
  F11      1.0000 0.44010  0.27980  0.65780  Biso   1.000  F
  F12      1.0000 0.05990  0.22020  0.15780  Biso   1.000  F
  F13      1.0000 0.44010  0.72020  0.15780  Biso   1.000  F
  F14      1.0000 0.05990  0.77980  0.65780  Biso   1.000  F
  F15      1.0000 0.55990  0.72020  0.34220  Biso   1.000  F
  F16      1.0000 0.94010  0.77980  0.84220  Biso   1.000  F
  F17      1.0000 0.77990  0.05870  0.89480  Biso   1.000  F
  F18      1.0000 0.72010  0.44130  0.39480  Biso   1.000  F
  F19      1.0000 0.22010  0.05870  0.60520  Biso   1.000  F
  F20      1.0000 0.27990  0.44130  0.10520  Biso   1.000  F
  F21      1.0000 0.22010  0.94130  0.10520  Biso   1.000  F
  F22      1.0000 0.27990  0.55870  0.60520  Biso   1.000  F
  F23      1.0000 0.77990  0.94130  0.39480  Biso   1.000  F
  F24      1.0000 0.72010  0.55870  0.89480  Biso   1.000  F
  F25      1.0000 0.91430  0.17250  0.84760  Biso   1.000  F
  F26      1.0000 0.58570  0.32750  0.34760  Biso   1.000  F
  F27      1.0000 0.08570  0.17250  0.65240  Biso   1.000  F
  F28      1.0000 0.41430  0.32750  0.15240  Biso   1.000  F
  F29      1.0000 0.08570  0.82750  0.15240  Biso   1.000  F
  F30      1.0000 0.41430  0.67250  0.65240  Biso   1.000  F
  F31      1.0000 0.91430  0.82750  0.34760  Biso   1.000  F
  F32      1.0000 0.58570  0.67250  0.84760  Biso   1.000  F
  O1       1.0000 0.23430  0.79710  0.91640  Biso   1.000  O
  O2       1.0000 0.26570  0.70290  0.41640  Biso   1.000  O
  O3       1.0000 0.76570  0.79710  0.58360  Biso   1.000  O
  O4       1.0000 0.73430  0.70290  0.08360  Biso   1.000  O
  O5       1.0000 0.76570  0.20290  0.08360  Biso   1.000  O
  O6       1.0000 0.73430  0.29710  0.58360  Biso   1.000  O
  O7       1.0000 0.23430  0.20290  0.41640  Biso   1.000  O
  O8       1.0000 0.26570  0.29710  0.91640  Biso   1.000  O
  O9       1.0000 0.37070  0.72770  0.92900  Biso   1.000  O
  O10      1.0000 0.12930  0.77230  0.42900  Biso   1.000  O
  O11      1.0000 0.62930  0.72770  0.57100  Biso   1.000  O
  O12      1.0000 0.87070  0.77230  0.07100  Biso   1.000  O
  O13      1.0000 0.62930  0.27230  0.07100  Biso   1.000  O
  O14      1.0000 0.87070  0.22770  0.57100  Biso   1.000  O
  O15      1.0000 0.37070  0.27230  0.42900  Biso   1.000  O
  O16      1.0000 0.12930  0.22770  0.92900  Biso   1.000  O
  H1       1.0000 0.38640  0.77950  0.93520  Biso   1.000  H
  H2       1.0000 0.11360  0.72050  0.43520  Biso   1.000  H
  H3       1.0000 0.61360  0.77950  0.56480  Biso   1.000  H
  H4       1.0000 0.88640  0.72050  0.06480  Biso   1.000  H
  H5       1.0000 0.61360  0.22050  0.06480  Biso   1.000  H
  H6       1.0000 0.88640  0.27950  0.56480  Biso   1.000  H
  H7       1.0000 0.38640  0.22050  0.43520  Biso   1.000  H
  H8       1.0000 0.11360  0.27950  0.93520  Biso   1.000  H
  O17      1.0000 0.88910  0.37610  0.70910  Biso   1.000  O
  O18      1.0000 0.61090  0.12390  0.20910  Biso   1.000  O
  O19      1.0000 0.11090  0.37610  0.79090  Biso   1.000  O
  O20      1.0000 0.38910  0.12390  0.29090  Biso   1.000  O
  O21      1.0000 0.11090  0.62390  0.29090  Biso   1.000  O
  O22      1.0000 0.38910  0.87610  0.79090  Biso   1.000  O
  O23      1.0000 0.88910  0.62390  0.20910  Biso   1.000  O
  O24      1.0000 0.61090  0.87610  0.70910  Biso   1.000  O
  O25      1.0000 0.93030  0.37450  0.86770  Biso   1.000  O
  O26      1.0000 0.56970  0.12550  0.36770  Biso   1.000  O
  O27      1.0000 0.06970  0.37450  0.63230  Biso   1.000  O
  O28      1.0000 0.43030  0.12550  0.13230  Biso   1.000  O
  O29      1.0000 0.06970  0.62550  0.13230  Biso   1.000  O
  O30      1.0000 0.43030  0.87450  0.63230  Biso   1.000  O
  O31      1.0000 0.93030  0.62550  0.36770  Biso   1.000  O
  O32      1.0000 0.56970  0.87450  0.86770  Biso   1.000  O
  O33      1.0000 0.55910  0.05370  0.84570  Biso   1.000  O
  O34      1.0000 0.94090  0.44630  0.34570  Biso   1.000  O
  O35      1.0000 0.44090  0.05370  0.65430  Biso   1.000  O
  O36      1.0000 0.05910  0.44630  0.15430  Biso   1.000  O
  O37      1.0000 0.44090  0.94630  0.15430  Biso   1.000  O
  O38      1.0000 0.05910  0.55370  0.65430  Biso   1.000  O
  O39      1.0000 0.55910  0.94630  0.34570  Biso   1.000  O
  O40      1.0000 0.94090  0.55370  0.84570  Biso   1.000  O
  O41      1.0000 0.57170  0.11190  0.99360  Biso   1.000  O
  O42      1.0000 0.92830  0.38810  0.49360  Biso   1.000  O
  O43      1.0000 0.42830  0.11190  0.50640  Biso   1.000  O
  O44      1.0000 0.07170  0.38810  0.00640  Biso   1.000  O
  O45      1.0000 0.42830  0.88810  0.00640  Biso   1.000  O
  O46      1.0000 0.07170  0.61190  0.50640  Biso   1.000  O
  O47      1.0000 0.57170  0.88810  0.49360  Biso   1.000  O
  O48      1.0000 0.92830  0.61190  0.99360  Biso   1.000  O
  N1       1.0000 0.13540  0.53570  0.88600  Biso   1.000  N
  N2       1.0000 0.36460  0.96430  0.38600  Biso   1.000  N
  N3       1.0000 0.86460  0.53570  0.61400  Biso   1.000  N
  N4       1.0000 0.63540  0.96430  0.11400  Biso   1.000  N
  N5       1.0000 0.86460  0.46430  0.11400  Biso   1.000  N
  N6       1.0000 0.63540  0.03570  0.61400  Biso   1.000  N
  N7       1.0000 0.13540  0.46430  0.38600  Biso   1.000  N
  N8       1.0000 0.36460  0.03570  0.88600  Biso   1.000  N
  N9       1.0000 0.22070  0.49900  0.89090  Biso   1.000  N
  N10      1.0000 0.27930  0.00100  0.39090  Biso   1.000  N
  N11      1.0000 0.77930  0.49900  0.60910  Biso   1.000  N
  N12      1.0000 0.72070  0.00100  0.10910  Biso   1.000  N
  N13      1.0000 0.77930  0.50100  0.10910  Biso   1.000  N
  N14      1.0000 0.72070  0.99900  0.60910  Biso   1.000  N
  N15      1.0000 0.22070  0.50100  0.39090  Biso   1.000  N
  N16      1.0000 0.27930  0.99900  0.89090  Biso   1.000  N
  H9       1.0000 0.23110  0.44310  0.88630  Biso   1.000  H
  H10      1.0000 0.26890  0.05690  0.38630  Biso   1.000  H
  H11      1.0000 0.76890  0.44310  0.61370  Biso   1.000  H
  H12      1.0000 0.73110  0.05690  0.11370  Biso   1.000  H
  H13      1.0000 0.76890  0.55690  0.11370  Biso   1.000  H
  H14      1.0000 0.73110  0.94310  0.61370  Biso   1.000  H
  H15      1.0000 0.23110  0.55690  0.38630  Biso   1.000  H
  H16      1.0000 0.26890  0.94310  0.88630  Biso   1.000  H
  C1       1.0000 0.38420  0.53250  0.91100  Biso   1.000  C
  C2       1.0000 0.11580  0.96750  0.41100  Biso   1.000  C
  C3       1.0000 0.61580  0.53250  0.58900  Biso   1.000  C
  C4       1.0000 0.88420  0.96750  0.08900  Biso   1.000  C
  C5       1.0000 0.61580  0.46750  0.08900  Biso   1.000  C
  C6       1.0000 0.88420  0.03250  0.58900  Biso   1.000  C
  C7       1.0000 0.38420  0.46750  0.41100  Biso   1.000  C
  C8       1.0000 0.11580  0.03250  0.91100  Biso   1.000  C
  H17      1.0000 0.38830  0.46980  0.92160  Biso   1.000  H
  H18      1.0000 0.11170  0.03020  0.42160  Biso   1.000  H
  H19      1.0000 0.61170  0.46980  0.57840  Biso   1.000  H
  H20      1.0000 0.88830  0.03020  0.07840  Biso   1.000  H
  H21      1.0000 0.61170  0.53020  0.07840  Biso   1.000  H
  H22      1.0000 0.88830  0.96980  0.57840  Biso   1.000  H
  H23      1.0000 0.38830  0.53020  0.42160  Biso   1.000  H
  H24      1.0000 0.11170  0.96980  0.92160  Biso   1.000  H
  H25      1.0000 0.41220  0.56300  0.96510  Biso   1.000  H
  H26      1.0000 0.08780  0.93700  0.46510  Biso   1.000  H
  H27      1.0000 0.58780  0.56300  0.53490  Biso   1.000  H
  H28      1.0000 0.91220  0.93700  0.03490  Biso   1.000  H
  H29      1.0000 0.58780  0.43700  0.03490  Biso   1.000  H
  H30      1.0000 0.91220  0.06300  0.53490  Biso   1.000  H
  H31      1.0000 0.41220  0.43700  0.46510  Biso   1.000  H
  H32      1.0000 0.08780  0.06300  0.96510  Biso   1.000  H
  H33      1.0000 0.41540  0.54760  0.85120  Biso   1.000  H
  H34      1.0000 0.08460  0.95240  0.35120  Biso   1.000  H
  H35      1.0000 0.58460  0.54760  0.64880  Biso   1.000  H
  H36      1.0000 0.91540  0.95240  0.14880  Biso   1.000  H
  H37      1.0000 0.58460  0.45240  0.14880  Biso   1.000  H
  H38      1.0000 0.91540  0.04760  0.64880  Biso   1.000  H
  H39      1.0000 0.41540  0.45240  0.35120  Biso   1.000  H
  H40      1.0000 0.08460  0.04760  0.85120  Biso   1.000  H
  C9       1.0000 0.28560  0.55880  0.90350  Biso   1.000  C
  C10      1.0000 0.21440  0.94120  0.40350  Biso   1.000  C
  C11      1.0000 0.71440  0.55880  0.59650  Biso   1.000  C
  C12      1.0000 0.78560  0.94120  0.09650  Biso   1.000  C
  C13      1.0000 0.71440  0.44120  0.09650  Biso   1.000  C
  C14      1.0000 0.78560  0.05880  0.59650  Biso   1.000  C
  C15      1.0000 0.28560  0.44120  0.40350  Biso   1.000  C
  C16      1.0000 0.21440  0.05880  0.90350  Biso   1.000  C
  C17      1.0000 0.24150  0.64050  0.90390  Biso   1.000  C
  C18      1.0000 0.25850  0.85950  0.40390  Biso   1.000  C
  C19      1.0000 0.75850  0.64050  0.59610  Biso   1.000  C
  C20      1.0000 0.74150  0.85950  0.09610  Biso   1.000  C
  C21      1.0000 0.75850  0.35950  0.09610  Biso   1.000  C
  C22      1.0000 0.74150  0.14050  0.59610  Biso   1.000  C
  C23      1.0000 0.24150  0.35950  0.40390  Biso   1.000  C
  C24      1.0000 0.25850  0.14050  0.90390  Biso   1.000  C
  C25      1.0000 0.14900  0.62120  0.89470  Biso   1.000  C
  C26      1.0000 0.35100  0.87880  0.39470  Biso   1.000  C
  C27      1.0000 0.85100  0.62120  0.60530  Biso   1.000  C
  C28      1.0000 0.64900  0.87880  0.10530  Biso   1.000  C
  C29      1.0000 0.85100  0.37880  0.10530  Biso   1.000  C
  C30      1.0000 0.64900  0.12120  0.60530  Biso   1.000  C
  C31      1.0000 0.14900  0.37880  0.39470  Biso   1.000  C
  C32      1.0000 0.35100  0.12120  0.89470  Biso   1.000  C
  H41      1.0000 0.10250  0.66330  0.89460  Biso   1.000  H
  H42      1.0000 0.39750  0.83670  0.39460  Biso   1.000  H
  H43      1.0000 0.89750  0.66330  0.60540  Biso   1.000  H
  H44      1.0000 0.60250  0.83670  0.10540  Biso   1.000  H
  H45      1.0000 0.89750  0.33670  0.10540  Biso   1.000  H
  H46      1.0000 0.60250  0.16330  0.60540  Biso   1.000  H
  H47      1.0000 0.10250  0.33670  0.39460  Biso   1.000  H
  H48      1.0000 0.39750  0.16330  0.89460  Biso   1.000  H
  C33      1.0000 0.28100  0.72980  0.91790  Biso   1.000  C
  C34      1.0000 0.21900  0.77020  0.41790  Biso   1.000  C
  C35      1.0000 0.71900  0.72980  0.58210  Biso   1.000  C
  C36      1.0000 0.78100  0.77020  0.08210  Biso   1.000  C
  C37      1.0000 0.71900  0.27020  0.08210  Biso   1.000  C
  C38      1.0000 0.78100  0.22980  0.58210  Biso   1.000  C
  C39      1.0000 0.28100  0.27020  0.41790  Biso   1.000  C
  C40      1.0000 0.21900  0.22980  0.91790  Biso   1.000  C
  C41      1.0000 0.88260  0.35130  0.79490  Biso   1.000  C
  C42      1.0000 0.61740  0.14870  0.29490  Biso   1.000  C
  C43      1.0000 0.11740  0.35130  0.70510  Biso   1.000  C
  C44      1.0000 0.38260  0.14870  0.20510  Biso   1.000  C
  C45      1.0000 0.11740  0.64870  0.20510  Biso   1.000  C
  C46      1.0000 0.38260  0.85130  0.70510  Biso   1.000  C
  C47      1.0000 0.88260  0.64870  0.29490  Biso   1.000  C
  C48      1.0000 0.61740  0.85130  0.79490  Biso   1.000  C
  C49      1.0000 0.80690  0.28630  0.82010  Biso   1.000  C
  C50      1.0000 0.69310  0.21370  0.32010  Biso   1.000  C
  C51      1.0000 0.19310  0.28630  0.67990  Biso   1.000  C
  C52      1.0000 0.30690  0.21370  0.17990  Biso   1.000  C
  C53      1.0000 0.19310  0.71370  0.17990  Biso   1.000  C
  C54      1.0000 0.30690  0.78630  0.67990  Biso   1.000  C
  C55      1.0000 0.80690  0.71370  0.32010  Biso   1.000  C
  C56      1.0000 0.69310  0.78630  0.82010  Biso   1.000  C
  C57      1.0000 0.71590  0.31020  0.81770  Biso   1.000  C
  C58      1.0000 0.78410  0.18980  0.31770  Biso   1.000  C
  C59      1.0000 0.28410  0.31020  0.68230  Biso   1.000  C
  C60      1.0000 0.21590  0.18980  0.18230  Biso   1.000  C
  C61      1.0000 0.28410  0.68980  0.18230  Biso   1.000  C
  C62      1.0000 0.21590  0.81020  0.68230  Biso   1.000  C
  C63      1.0000 0.71590  0.68980  0.31770  Biso   1.000  C
  C64      1.0000 0.78410  0.81020  0.81770  Biso   1.000  C
  C65      1.0000 0.64780  0.25210  0.84200  Biso   1.000  C
  C66      1.0000 0.85220  0.24790  0.34200  Biso   1.000  C
  C67      1.0000 0.35220  0.25210  0.65800  Biso   1.000  C
  C68      1.0000 0.14780  0.24790  0.15800  Biso   1.000  C
  C69      1.0000 0.35220  0.74790  0.15800  Biso   1.000  C
  C70      1.0000 0.14780  0.75210  0.65800  Biso   1.000  C
  C71      1.0000 0.64780  0.74790  0.34200  Biso   1.000  C
  C72      1.0000 0.85220  0.75210  0.84200  Biso   1.000  C
  C73      1.0000 0.66720  0.16730  0.86830  Biso   1.000  C
  C74      1.0000 0.83280  0.33270  0.36830  Biso   1.000  C
  C75      1.0000 0.33280  0.16730  0.63170  Biso   1.000  C
  C76      1.0000 0.16720  0.33270  0.13170  Biso   1.000  C
  C77      1.0000 0.33280  0.83270  0.13170  Biso   1.000  C
  C78      1.0000 0.16720  0.66730  0.63170  Biso   1.000  C
  C79      1.0000 0.66720  0.83270  0.36830  Biso   1.000  C
  C80      1.0000 0.83280  0.66730  0.86830  Biso   1.000  C
  C81      1.0000 0.75830  0.14150  0.86580  Biso   1.000  C
  C82      1.0000 0.74170  0.35850  0.36580  Biso   1.000  C
  C83      1.0000 0.24170  0.14150  0.63420  Biso   1.000  C
  C84      1.0000 0.25830  0.35850  0.13420  Biso   1.000  C
  C85      1.0000 0.24170  0.85850  0.13420  Biso   1.000  C
  C86      1.0000 0.25830  0.64150  0.63420  Biso   1.000  C
  C87      1.0000 0.75830  0.85850  0.36580  Biso   1.000  C
  C88      1.0000 0.74170  0.64150  0.86580  Biso   1.000  C
  C89      1.0000 0.82690  0.19980  0.84460  Biso   1.000  C
  C90      1.0000 0.67310  0.30020  0.34460  Biso   1.000  C
  C91      1.0000 0.17310  0.19980  0.65540  Biso   1.000  C
  C92      1.0000 0.32690  0.30020  0.15540  Biso   1.000  C
  C93      1.0000 0.17310  0.80020  0.15540  Biso   1.000  C
  C94      1.0000 0.32690  0.69980  0.65540  Biso   1.000  C
  C95      1.0000 0.82690  0.80020  0.34460  Biso   1.000  C
  C96      1.0000 0.67310  0.69980  0.84460  Biso   1.000  C
  C97      1.0000 0.59360  0.10510  0.90700  Biso   1.000  C
  C98      1.0000 0.90640  0.39490  0.40700  Biso   1.000  C
  C99      1.0000 0.40640  0.10510  0.59300  Biso   1.000  C
  C100     1.0000 0.09360  0.39490  0.09300  Biso   1.000  C
  C101     1.0000 0.40640  0.89490  0.09300  Biso   1.000  C
  C102     1.0000 0.09360  0.60510  0.59300  Biso   1.000  C
  C103     1.0000 0.59360  0.89490  0.40700  Biso   1.000  C
  C104     1.0000 0.90640  0.60510  0.90700  Biso   1.000  C
