data_image0
_cell_length_a       9.329
_cell_length_b       13.312
_cell_length_c       10.186
_cell_angle_alpha    90
_cell_angle_beta     90.36
_cell_angle_gamma    90

_symmetry_space_group_name_H-M    "P 1"
_symmetry_int_tables_number       1

loop_
  _symmetry_equiv_pos_as_xyz
  'x, y, z'

loop_
  _atom_site_label
  _atom_site_occupancy
  _atom_site_fract_x
  _atom_site_fract_y
  _atom_site_fract_z
  _atom_site_thermal_displace_type
  _atom_site_B_iso_or_equiv
  _atom_site_type_symbol
  Cu1      1.0000 0.26220  0.33630  0.49448  Biso   1.000  Cu
  Cu2      1.0000 0.73780  0.83630  0.50552  Biso   1.000  Cu
  P1       1.0000 0.48143  0.43932  0.67525  Biso   1.000  P
  P2       1.0000 0.51857  0.93932  0.32475  Biso   1.000  P
  P3       1.0000 0.99787  0.25591  0.33995  Biso   1.000  P
  P4       1.0000 0.00213  0.75591  0.66005  Biso   1.000  P
  O1       1.0000 0.41440  0.34380  0.62960  Biso   1.000  O
  O2       1.0000 0.58560  0.84380  0.37040  Biso   1.000  O
  O3       1.0000 0.63390  0.42270  0.74050  Biso   1.000  O
  O4       1.0000 0.36610  0.92270  0.25950  Biso   1.000  O
  O5       1.0000 0.40100  0.49290  0.79060  Biso   1.000  O
  O6       1.0000 0.59900  0.99290  0.20940  Biso   1.000  O
  O7       1.0000 0.35820  0.43940  0.38770  Biso   1.000  O
  O8       1.0000 0.64180  0.93940  0.61230  Biso   1.000  O
  O9       1.0000 0.10950  0.33460  0.36270  Biso   1.000  O
  O10      1.0000 0.89050  0.83460  0.63730  Biso   1.000  O
  O11      1.0000 0.84770  0.31080  0.34230  Biso   1.000  O
  O12      1.0000 0.15230  0.81080  0.65770  Biso   1.000  O
  O13      1.0000 0.99870  0.20830  0.19760  Biso   1.000  O
  O14      1.0000 0.00130  0.70830  0.80240  Biso   1.000  O
  O15      1.0000 0.16710  0.23840  0.60480  Biso   1.000  O
  O16      1.0000 0.83290  0.73840  0.39520  Biso   1.000  O
  N1       1.0000 0.62360  0.69390  0.60690  Biso   1.000  N
  N2       1.0000 0.37640  0.19390  0.39310  Biso   1.000  N
  N3       1.0000 0.86930  0.99420  0.40390  Biso   1.000  N
  N4       1.0000 0.13070  0.49420  0.59610  Biso   1.000  N
  C1       1.0000 0.49680  0.52720  0.54850  Biso   1.000  C
  C2       1.0000 0.50320  0.02720  0.45150  Biso   1.000  C
  C3       1.0000 0.43410  0.51480  0.42170  Biso   1.000  C
  C4       1.0000 0.56590  0.01480  0.57830  Biso   1.000  C
  C5       1.0000 0.45940  0.59380  0.31930  Biso   1.000  C
  C6       1.0000 0.54060  0.09380  0.68070  Biso   1.000  C
  H1       1.0000 0.40990  0.57490  0.23780  Biso   1.000  H
  H2       1.0000 0.59010  0.07490  0.76220  Biso   1.000  H
  H3       1.0000 0.56250  0.59960  0.30280  Biso   1.000  H
  H4       1.0000 0.43750  0.09960  0.69720  Biso   1.000  H
  H5       1.0000 0.42240  0.65840  0.35030  Biso   1.000  H
  H6       1.0000 0.57760  0.15840  0.64970  Biso   1.000  H
  C7       1.0000 0.56840  0.61840  0.57850  Biso   1.000  C
  C8       1.0000 0.43160  0.11840  0.42150  Biso   1.000  C
  C9       1.0000 0.75490  0.38780  0.66190  Biso   1.000  C
  C10      1.0000 0.24510  0.88780  0.33810  Biso   1.000  C
  H7       1.0000 0.78960  0.44250  0.60440  Biso   1.000  H
  H8       1.0000 0.21040  0.94250  0.39560  Biso   1.000  H
  H9       1.0000 0.72550  0.33050  0.60600  Biso   1.000  H
  H10      1.0000 0.27450  0.83050  0.39400  Biso   1.000  H
  C11      1.0000 0.87170  0.35600  0.75640  Biso   1.000  C
  C12      1.0000 0.12830  0.85600  0.24360  Biso   1.000  C
  H11      1.0000 0.88530  0.40960  0.82280  Biso   1.000  H
  H12      1.0000 0.11470  0.90960  0.17720  Biso   1.000  H
  H13      1.0000 0.96260  0.34900  0.70760  Biso   1.000  H
  H14      1.0000 0.03740  0.84900  0.29240  Biso   1.000  H
  C13      1.0000 0.84060  0.25790  0.82650  Biso   1.000  C
  C14      1.0000 0.15940  0.75790  0.17350  Biso   1.000  C
  H15      1.0000 0.91980  0.24210  0.88670  Biso   1.000  H
  H16      1.0000 0.08020  0.74210  0.11330  Biso   1.000  H
  H17      1.0000 0.83030  0.20390  0.76180  Biso   1.000  H
  H18      1.0000 0.16970  0.70390  0.23820  Biso   1.000  H
  H19      1.0000 0.75150  0.26440  0.87640  Biso   1.000  H
  H20      1.0000 0.24850  0.76440  0.12360  Biso   1.000  H
  C15      1.0000 0.31250  0.43980  0.88600  Biso   1.000  C
  C16      1.0000 0.68750  0.93980  0.11400  Biso   1.000  C
  H21      1.0000 0.37340  0.40000  0.94660  Biso   1.000  H
  H22      1.0000 0.62660  0.90000  0.05340  Biso   1.000  H
  H23      1.0000 0.24500  0.39380  0.84070  Biso   1.000  H
  H24      1.0000 0.75500  0.89380  0.15930  Biso   1.000  H
  C17      1.0000 0.23140  0.51950  0.96060  Biso   1.000  C
  C18      1.0000 0.76860  0.01950  0.03940  Biso   1.000  C
  H25      1.0000 0.17360  0.55970  0.89790  Biso   1.000  H
  H26      1.0000 0.82640  0.05970  0.10210  Biso   1.000  H
  H27      1.0000 0.30070  0.56530  0.00380  Biso   1.000  H
  H28      1.0000 0.69930  0.06530  0.99620  Biso   1.000  H
  C19      1.0000 0.13190  0.47480  0.06490  Biso   1.000  C
  C20      1.0000 0.86810  0.97480  0.93510  Biso   1.000  C
  H29      1.0000 0.08290  0.52920  0.11130  Biso   1.000  H
  H30      1.0000 0.91710  0.02920  0.88870  Biso   1.000  H
  H31      1.0000 0.18860  0.43530  0.12760  Biso   1.000  H
  H32      1.0000 0.81140  0.93530  0.87240  Biso   1.000  H
  H33      1.0000 0.06080  0.43130  0.02230  Biso   1.000  H
  H34      1.0000 0.93920  0.93130  0.97770  Biso   1.000  H
  C21      1.0000 0.00680  0.15670  0.45380  Biso   1.000  C
  C22      1.0000 0.99320  0.65670  0.54620  Biso   1.000  C
  C23      1.0000 0.09110  0.16370  0.57130  Biso   1.000  C
  C24      1.0000 0.90890  0.66370  0.42870  Biso   1.000  C
  C25      1.0000 0.09810  0.07340  0.66140  Biso   1.000  C
  C26      1.0000 0.90190  0.57340  0.33860  Biso   1.000  C
  H35      1.0000 0.15960  0.08880  0.73710  Biso   1.000  H
  H36      1.0000 0.84040  0.58880  0.26290  Biso   1.000  H
  H37      1.0000 0.13770  0.01600  0.61360  Biso   1.000  H
  H38      1.0000 0.86230  0.51600  0.38640  Biso   1.000  H
  H39      1.0000 0.00150  0.05690  0.69180  Biso   1.000  H
  H40      1.0000 0.99850  0.55690  0.30820  Biso   1.000  H
  C27      1.0000 0.93090  0.06680  0.42700  Biso   1.000  C
  C28      1.0000 0.06910  0.56680  0.57300  Biso   1.000  C
  C29      1.0000 0.71150  0.26080  0.31810  Biso   1.000  C
  C30      1.0000 0.28850  0.76080  0.68190  Biso   1.000  C
  H41      1.0000 0.63730  0.29050  0.37540  Biso   1.000  H
  H42      1.0000 0.36270  0.79050  0.62460  Biso   1.000  H
  H43      1.0000 0.72050  0.18870  0.34070  Biso   1.000  H
  H44      1.0000 0.27950  0.68870  0.65930  Biso   1.000  H
  C31      1.0000 0.66490  0.27060  0.17660  Biso   1.000  C
  C32      1.0000 0.33510  0.77060  0.82340  Biso   1.000  C
  H45      1.0000 0.57120  0.23690  0.16480  Biso   1.000  H
  H46      1.0000 0.42880  0.73690  0.83520  Biso   1.000  H
  H47      1.0000 0.73520  0.23570  0.12030  Biso   1.000  H
  H48      1.0000 0.26480  0.73570  0.87970  Biso   1.000  H
  C33      1.0000 0.65160  0.38010  0.13100  Biso   1.000  C
  C34      1.0000 0.34840  0.88010  0.86900  Biso   1.000  C
  H49      1.0000 0.62070  0.38170  0.03890  Biso   1.000  H
  H50      1.0000 0.37930  0.88170  0.96110  Biso   1.000  H
  H51      1.0000 0.74470  0.41350  0.13990  Biso   1.000  H
  H52      1.0000 0.25530  0.91350  0.86010  Biso   1.000  H
  H53      1.0000 0.58080  0.41500  0.18520  Biso   1.000  H
  H54      1.0000 0.41920  0.91500  0.81480  Biso   1.000  H
  C35      1.0000 0.11970  0.14760  0.15330  Biso   1.000  C
  C36      1.0000 0.88030  0.64760  0.84670  Biso   1.000  C
  H55      1.0000 0.08360  0.09100  0.09950  Biso   1.000  H
  H56      1.0000 0.91640  0.59100  0.90050  Biso   1.000  H
  H57      1.0000 0.17030  0.11930  0.23060  Biso   1.000  H
  H58      1.0000 0.82970  0.61930  0.76940  Biso   1.000  H
  C37      1.0000 0.22300  0.20920  0.07360  Biso   1.000  C
  C38      1.0000 0.77700  0.70920  0.92640  Biso   1.000  C
  H59      1.0000 0.27000  0.25950  0.13110  Biso   1.000  H
  H60      1.0000 0.73000  0.75950  0.86890  Biso   1.000  H
  H61      1.0000 0.16960  0.24580  0.00420  Biso   1.000  H
  H62      1.0000 0.83040  0.74580  0.99580  Biso   1.000  H
  C39      1.0000 0.33710  0.14290  0.01050  Biso   1.000  C
  C40      1.0000 0.66290  0.64290  0.98950  Biso   1.000  C
  H63      1.0000 0.40270  0.18480  0.95950  Biso   1.000  H
  H64      1.0000 0.59730  0.68480  0.04050  Biso   1.000  H
  H65      1.0000 0.29080  0.09390  0.95240  Biso   1.000  H
  H66      1.0000 0.70920  0.59390  0.04760  Biso   1.000  H
  H67      1.0000 0.39100  0.10750  0.07920  Biso   1.000  H
  H68      1.0000 0.60900  0.60750  0.92080  Biso   1.000  H
