data_image0
_cell_length_a       10.588
_cell_length_b       13.395
_cell_length_c       9.54
_cell_angle_alpha    90
_cell_angle_beta     90.32
_cell_angle_gamma    90

_symmetry_space_group_name_H-M    "P 1"
_symmetry_int_tables_number       1

loop_
  _symmetry_equiv_pos_as_xyz
  'x, y, z'

loop_
  _atom_site_label
  _atom_site_occupancy
  _atom_site_fract_x
  _atom_site_fract_y
  _atom_site_fract_z
  _atom_site_thermal_displace_type
  _atom_site_B_iso_or_equiv
  _atom_site_type_symbol
  Cu1      1.0000 0.00000  0.50000  0.50000  Biso   1.000  Cu
  Cu2      1.0000 0.00000  0.00000  0.00000  Biso   1.000  Cu
  P1       1.0000 0.17010  0.38670  0.29160  Biso   1.000  P
  P2       1.0000 0.82990  0.88670  0.20840  Biso   1.000  P
  P3       1.0000 0.82990  0.61330  0.70840  Biso   1.000  P
  P4       1.0000 0.17010  0.11330  0.79160  Biso   1.000  P
  O1       1.0000 0.89610  0.39830  0.40980  Biso   1.000  O
  O2       1.0000 0.10390  0.89830  0.09020  Biso   1.000  O
  O3       1.0000 0.10390  0.60170  0.59020  Biso   1.000  O
  O4       1.0000 0.89610  0.10170  0.90980  Biso   1.000  O
  O5       1.0000 0.13710  0.48040  0.36580  Biso   1.000  O
  O6       1.0000 0.86290  0.98040  0.13420  Biso   1.000  O
  O7       1.0000 0.86290  0.51960  0.63420  Biso   1.000  O
  O8       1.0000 0.13710  0.01960  0.86580  Biso   1.000  O
  O9       1.0000 0.22800  0.39860  0.14400  Biso   1.000  O
  O10      1.0000 0.77200  0.89860  0.35600  Biso   1.000  O
  O11      1.0000 0.77200  0.60140  0.85600  Biso   1.000  O
  O12      1.0000 0.22800  0.10140  0.64400  Biso   1.000  O
  O13      1.0000 0.28500  0.32860  0.36400  Biso   1.000  O
  O14      1.0000 0.71500  0.82860  0.13600  Biso   1.000  O
  O15      1.0000 0.71500  0.67140  0.63600  Biso   1.000  O
  O16      1.0000 0.28500  0.17140  0.86400  Biso   1.000  O
  N1       1.0000 0.08200  0.14220  0.14700  Biso   1.000  N
  N2       1.0000 0.91800  0.64220  0.35300  Biso   1.000  N
  N3       1.0000 0.91800  0.85780  0.85300  Biso   1.000  N
  N4       1.0000 0.08200  0.35780  0.64700  Biso   1.000  N
  C1       1.0000 0.04500  0.30430  0.28000  Biso   1.000  C
  C2       1.0000 0.95500  0.80430  0.22000  Biso   1.000  C
  C3       1.0000 0.95500  0.69570  0.72000  Biso   1.000  C
  C4       1.0000 0.04500  0.19570  0.78000  Biso   1.000  C
  C5       1.0000 0.92580  0.32230  0.33800  Biso   1.000  C
  C6       1.0000 0.07420  0.82230  0.16200  Biso   1.000  C
  C7       1.0000 0.07420  0.67770  0.66200  Biso   1.000  C
  C8       1.0000 0.92580  0.17770  0.83800  Biso   1.000  C
  C9       1.0000 0.82200  0.24900  0.32100  Biso   1.000  C
  C10      1.0000 0.17800  0.74900  0.17900  Biso   1.000  C
  C11      1.0000 0.17800  0.75100  0.67900  Biso   1.000  C
  C12      1.0000 0.82200  0.25100  0.82100  Biso   1.000  C
  C13      1.0000 0.06500  0.21470  0.20800  Biso   1.000  C
  C14      1.0000 0.93500  0.71470  0.29200  Biso   1.000  C
  C15      1.0000 0.93500  0.78530  0.79200  Biso   1.000  C
  C16      1.0000 0.06500  0.28530  0.70800  Biso   1.000  C
  C17      1.0000 0.16300  0.44500  0.04100  Biso   1.000  C
  C18      1.0000 0.83700  0.94500  0.45900  Biso   1.000  C
  C19      1.0000 0.83700  0.55500  0.95900  Biso   1.000  C
  C20      1.0000 0.16300  0.05500  0.54100  Biso   1.000  C
  C21      1.0000 0.35900  0.37000  0.45800  Biso   1.000  C
  C22      1.0000 0.64100  0.87000  0.04200  Biso   1.000  C
  C23      1.0000 0.64100  0.63000  0.54200  Biso   1.000  C
  C24      1.0000 0.35900  0.13000  0.95800  Biso   1.000  C
  C25      1.0000 0.22500  0.49200  0.91200  Biso   1.000  C
  C26      1.0000 0.77500  0.99200  0.58800  Biso   1.000  C
  C27      1.0000 0.77500  0.50800  0.08800  Biso   1.000  C
  C28      1.0000 0.22500  0.00800  0.41200  Biso   1.000  C
  C29      1.0000 0.47300  0.30600  0.49700  Biso   1.000  C
  C30      1.0000 0.52700  0.80600  0.00300  Biso   1.000  C
  C31      1.0000 0.52700  0.69400  0.50300  Biso   1.000  C
  C32      1.0000 0.47300  0.19400  0.99700  Biso   1.000  C
  C33      1.0000 0.36400  0.51200  0.94600  Biso   1.000  C
  C34      1.0000 0.63600  0.01200  0.55400  Biso   1.000  C
  C35      1.0000 0.63600  0.48800  0.05400  Biso   1.000  C
  C36      1.0000 0.36400  0.98800  0.44600  Biso   1.000  C
  C37      1.0000 0.55400  0.35600  0.60400  Biso   1.000  C
  C38      1.0000 0.44600  0.85600  0.89600  Biso   1.000  C
  C39      1.0000 0.44600  0.64400  0.39600  Biso   1.000  C
  C40      1.0000 0.55400  0.14400  0.10400  Biso   1.000  C
