data_image0
_cell_length_a       8.967
_cell_length_b       9.4108
_cell_length_c       15.4476
_cell_angle_alpha    96.609
_cell_angle_beta     100.627
_cell_angle_gamma    95.595

_symmetry_space_group_name_H-M    "P 1"
_symmetry_int_tables_number       1

loop_
  _symmetry_equiv_pos_as_xyz
  'x, y, z'

loop_
  _atom_site_label
  _atom_site_occupancy
  _atom_site_fract_x
  _atom_site_fract_y
  _atom_site_fract_z
  _atom_site_thermal_displace_type
  _atom_site_B_iso_or_equiv
  _atom_site_type_symbol
  C1       1.0000 0.48640  0.51590  0.29340  Biso   1.000  C
  C2       1.0000 0.51360  0.48410  0.70660  Biso   1.000  C
  C3       1.0000 0.62670  0.63450  0.42150  Biso   1.000  C
  C4       1.0000 0.37330  0.36550  0.57850  Biso   1.000  C
  C5       1.0000 0.67970  0.68610  0.28960  Biso   1.000  C
  C6       1.0000 0.32030  0.31390  0.71040  Biso   1.000  C
  C7       1.0000 0.09510  0.82430  0.60340  Biso   1.000  C
  C8       1.0000 0.90490  0.17570  0.39660  Biso   1.000  C
  C9       1.0000 0.14580  0.71640  0.66330  Biso   1.000  C
  C10      1.0000 0.85420  0.28360  0.33670  Biso   1.000  C
  C11      1.0000 0.05980  0.57400  0.64510  Biso   1.000  C
  C12      1.0000 0.94020  0.42600  0.35490  Biso   1.000  C
  H1       1.0000 0.09140  0.52060  0.69330  Biso   1.000  H
  H2       1.0000 0.90860  0.47940  0.30670  Biso   1.000  H
  H3       1.0000 0.95270  0.58250  0.63910  Biso   1.000  H
  H4       1.0000 0.04730  0.41750  0.36090  Biso   1.000  H
  H5       1.0000 0.07840  0.52440  0.59100  Biso   1.000  H
  H6       1.0000 0.92160  0.47560  0.40900  Biso   1.000  H
  C13      1.0000 0.26800  0.75820  0.73100  Biso   1.000  C
  C14      1.0000 0.73200  0.24180  0.26900  Biso   1.000  C
  H7       1.0000 0.30150  0.69350  0.76940  Biso   1.000  H
  H8       1.0000 0.69850  0.30650  0.23060  Biso   1.000  H
  H9       1.0000 0.31810  0.85140  0.73900  Biso   1.000  H
  H10      1.0000 0.68190  0.14860  0.26100  Biso   1.000  H
  C15      1.0000 0.81930  0.07100  0.60080  Biso   1.000  C
  C16      1.0000 0.18070  0.92900  0.39920  Biso   1.000  C
  C17      1.0000 0.71210  0.11180  0.66040  Biso   1.000  C
  C18      1.0000 0.28790  0.88820  0.33960  Biso   1.000  C
  C19      1.0000 0.75390  0.22490  0.72190  Biso   1.000  C
  C20      1.0000 0.24610  0.77510  0.27810  Biso   1.000  C
  H11      1.0000 0.68860  0.25100  0.75970  Biso   1.000  H
  H12      1.0000 0.31140  0.74900  0.24030  Biso   1.000  H
  H13      1.0000 0.84870  0.27880  0.72760  Biso   1.000  H
  H14      1.0000 0.15130  0.72120  0.27240  Biso   1.000  H
  C21      1.0000 0.56620  0.02190  0.64700  Biso   1.000  C
  C22      1.0000 0.43380  0.97810  0.35300  Biso   1.000  C
  H15      1.0000 0.51140  0.05400  0.69200  Biso   1.000  H
  H16      1.0000 0.48860  0.94600  0.30800  Biso   1.000  H
  H17      1.0000 0.50730  0.02870  0.58940  Biso   1.000  H
  H18      1.0000 0.49270  0.97130  0.41060  Biso   1.000  H
  H19      1.0000 0.58370  0.92350  0.65080  Biso   1.000  H
  H20      1.0000 0.41630  0.07650  0.34920  Biso   1.000  H
  C23      1.0000 0.24050  0.58790  0.98560  Biso   1.000  C
  C24      1.0000 0.75950  0.41210  0.01440  Biso   1.000  C
  C25      1.0000 0.09230  0.65020  0.97490  Biso   1.000  C
  C26      1.0000 0.90770  0.34980  0.02510  Biso   1.000  C
  C27      1.0000 0.00190  0.64160  0.88490  Biso   1.000  C
  C28      1.0000 0.99810  0.35840  0.11510  Biso   1.000  C
  H21      1.0000 0.91070  0.68620  0.88720  Biso   1.000  H
  H22      1.0000 0.08930  0.31380  0.11280  Biso   1.000  H
  H23      1.0000 0.06100  0.69050  0.84890  Biso   1.000  H
  H24      1.0000 0.93900  0.30950  0.15110  Biso   1.000  H
  H25      1.0000 0.97480  0.54230  0.85950  Biso   1.000  H
  H26      1.0000 0.02520  0.45770  0.14050  Biso   1.000  H
  C29      1.0000 0.04660  0.71100  0.04620  Biso   1.000  C
  C30      1.0000 0.95340  0.28900  0.95380  Biso   1.000  C
  H27      1.0000 0.95440  0.74990  0.03970  Biso   1.000  H
  H28      1.0000 0.04560  0.25010  0.96030  Biso   1.000  H
  H29      1.0000 0.10700  0.71460  0.10240  Biso   1.000  H
  H30      1.0000 0.89300  0.28540  0.89760  Biso   1.000  H
  C31      1.0000 0.38760  0.24600  0.01170  Biso   1.000  C
  C32      1.0000 0.61240  0.75400  0.98830  Biso   1.000  C
  C33      1.0000 0.32830  0.09600  0.01720  Biso   1.000  C
  C34      1.0000 0.67170  0.90400  0.98280  Biso   1.000  C
  C35      1.0000 0.27240  0.00120  0.93960  Biso   1.000  C
  C36      1.0000 0.72760  0.99880  0.06040  Biso   1.000  C
  H31      1.0000 0.23410  0.90680  0.94260  Biso   1.000  H
  H32      1.0000 0.76590  0.09320  0.05740  Biso   1.000  H
  H33      1.0000 0.27330  0.03210  0.88460  Biso   1.000  H
  H34      1.0000 0.72670  0.96790  0.11540  Biso   1.000  H
  C37      1.0000 0.32980  0.05450  0.10330  Biso   1.000  C
  C38      1.0000 0.67020  0.94550  0.89670  Biso   1.000  C
  H35      1.0000 0.39280  0.97850  0.11160  Biso   1.000  H
  H36      1.0000 0.60720  0.02150  0.88840  Biso   1.000  H
  H37      1.0000 0.37000  0.13580  0.14780  Biso   1.000  H
  H38      1.0000 0.63000  0.86420  0.85220  Biso   1.000  H
  H39      1.0000 0.22750  0.02140  0.10850  Biso   1.000  H
  H40      1.0000 0.77250  0.97860  0.89150  Biso   1.000  H
  N1       1.0000 0.76640  0.75970  0.24452  Biso   1.000  N
  N2       1.0000 0.23360  0.24030  0.75548  Biso   1.000  N
  H41      1.0000 0.83970  0.82370  0.27250  Biso   1.000  H
  H42      1.0000 0.16030  0.17630  0.72750  Biso   1.000  H
  H43      1.0000 0.74900  0.74340  0.18740  Biso   1.000  H
  H44      1.0000 0.25100  0.25660  0.81260  Biso   1.000  H
  N3       1.0000 0.65650  0.65350  0.50854  Biso   1.000  N
  N4       1.0000 0.34350  0.34650  0.49146  Biso   1.000  N
  H45      1.0000 0.60320  0.60220  0.53710  Biso   1.000  H
  H46      1.0000 0.39680  0.39780  0.46290  Biso   1.000  H
  H47      1.0000 0.72950  0.71730  0.53710  Biso   1.000  H
  H48      1.0000 0.27050  0.28270  0.46290  Biso   1.000  H
  N5       1.0000 0.37040  0.41780  0.25180  Biso   1.000  N
  N6       1.0000 0.62960  0.58220  0.74820  Biso   1.000  N
  H49      1.0000 0.31690  0.37010  0.28200  Biso   1.000  H
  H50      1.0000 0.68310  0.62990  0.71800  Biso   1.000  H
  H51      1.0000 0.34910  0.40220  0.19460  Biso   1.000  H
  H52      1.0000 0.65090  0.59780  0.80540  Biso   1.000  H
  N7       1.0000 0.51200  0.53370  0.38141  Biso   1.000  N
  N8       1.0000 0.48800  0.46630  0.61859  Biso   1.000  N
  N9       1.0000 0.71300  0.71690  0.37865  Biso   1.000  N
  N10      1.0000 0.28700  0.28310  0.62135  Biso   1.000  N
  N11      1.0000 0.56700  0.58690  0.24246  Biso   1.000  N
  N12      1.0000 0.43300  0.41310  0.75754  Biso   1.000  N
  O1       1.0000 0.16370  0.94940  0.61950  Biso   1.000  O
  O2       1.0000 0.83630  0.05060  0.38050  Biso   1.000  O
  O3       1.0000 0.98340  0.78120  0.54040  Biso   1.000  O
  O4       1.0000 0.01660  0.21880  0.45960  Biso   1.000  O
  O5       1.0000 0.95100  0.13940  0.61722  Biso   1.000  O
  O6       1.0000 0.04900  0.86060  0.38278  Biso   1.000  O
  O7       1.0000 0.77140  0.97160  0.53774  Biso   1.000  O
  O8       1.0000 0.22860  0.02840  0.46226  Biso   1.000  O
  O9       1.0000 0.28060  0.53800  0.91602  Biso   1.000  O
  O10      1.0000 0.71940  0.46200  0.08398  Biso   1.000  O
  O11      1.0000 0.31710  0.59160  0.06296  Biso   1.000  O
  O12      1.0000 0.68290  0.40840  0.93704  Biso   1.000  O
  O13      1.0000 0.39380  0.27780  0.93584  Biso   1.000  O
  O14      1.0000 0.60620  0.72220  0.06416  Biso   1.000  O
  O15      1.0000 0.43200  0.33210  0.08198  Biso   1.000  O
  O16      1.0000 0.56800  0.66790  0.91802  Biso   1.000  O
  Cu1      1.0000 0.89200  0.89862  0.45255  Biso   1.000  Cu
  Cu2      1.0000 0.10800  0.10138  0.54745  Biso   1.000  Cu
  Cu3      1.0000 0.52241  0.53313  0.08935  Biso   1.000  Cu
  Cu4      1.0000 0.47759  0.46687  0.91065  Biso   1.000  Cu
