data_image0
_cell_length_a       9.7897
_cell_length_b       13.254
_cell_length_c       11.0528
_cell_angle_alpha    90
_cell_angle_beta     98.502
_cell_angle_gamma    90

_symmetry_space_group_name_H-M    "P 1"
_symmetry_int_tables_number       1

loop_
  _symmetry_equiv_pos_as_xyz
  'x, y, z'

loop_
  _atom_site_label
  _atom_site_occupancy
  _atom_site_fract_x
  _atom_site_fract_y
  _atom_site_fract_z
  _atom_site_thermal_displace_type
  _atom_site_B_iso_or_equiv
  _atom_site_type_symbol
  Cu1      1.0000 0.39620  0.17750  0.12820  Biso   1.000  Cu
  Cu2      1.0000 0.60380  0.67750  0.87180  Biso   1.000  Cu
  O1       1.0000 0.27100  0.29000  0.09700  Biso   1.000  O
  O2       1.0000 0.72900  0.79000  0.90300  Biso   1.000  O
  O3       1.0000 0.51200  0.06100  0.17300  Biso   1.000  O
  O4       1.0000 0.48800  0.56100  0.82700  Biso   1.000  O
  N1       1.0000 0.27000  0.08100  0.03200  Biso   1.000  N
  N2       1.0000 0.73000  0.58100  0.96800  Biso   1.000  N
  H1       1.0000 0.29000  0.08000  0.96000  Biso   1.000  H
  H2       1.0000 0.71000  0.58000  0.04000  Biso   1.000  H
  N3       1.0000 0.51500  0.89300  0.17000  Biso   1.000  N
  N4       1.0000 0.48500  0.39300  0.83000  Biso   1.000  N
  H3       1.0000 0.48000  0.85000  0.14000  Biso   1.000  H
  H4       1.0000 0.52000  0.35000  0.86000  Biso   1.000  H
  H5       1.0000 0.59000  0.89000  0.20000  Biso   1.000  H
  H6       1.0000 0.41000  0.39000  0.80000  Biso   1.000  H
  C1       1.0000 0.16800  0.29700  0.00100  Biso   1.000  C
  C2       1.0000 0.83200  0.79700  0.99900  Biso   1.000  C
  C3       1.0000 0.13900  0.38900  0.94100  Biso   1.000  C
  C4       1.0000 0.86100  0.88900  0.05900  Biso   1.000  C
  H7       1.0000 0.19000  0.46000  0.97000  Biso   1.000  H
  H8       1.0000 0.81000  0.96000  0.03000  Biso   1.000  H
  C5       1.0000 0.03500  0.39300  0.84000  Biso   1.000  C
  C6       1.0000 0.96500  0.89300  0.16000  Biso   1.000  C
  H9       1.0000 0.03000  0.45000  0.79000  Biso   1.000  H
  H10      1.0000 0.97000  0.95000  0.21000  Biso   1.000  H
  C7       1.0000 0.96000  0.30700  0.80000  Biso   1.000  C
  C8       1.0000 0.04000  0.80700  0.20000  Biso   1.000  C
  H11      1.0000 0.89000  0.32000  0.73000  Biso   1.000  H
  H12      1.0000 0.11000  0.82000  0.27000  Biso   1.000  H
  C9       1.0000 0.99000  0.21700  0.86000  Biso   1.000  C
  C10      1.0000 0.01000  0.71700  0.14000  Biso   1.000  C
  H13      1.0000 0.94000  0.16000  0.83000  Biso   1.000  H
  H14      1.0000 0.06000  0.66000  0.17000  Biso   1.000  H
  C11      1.0000 0.09300  0.20900  0.96100  Biso   1.000  C
  C12      1.0000 0.90700  0.70900  0.03900  Biso   1.000  C
  C13      1.0000 0.12200  0.11200  0.02700  Biso   1.000  C
  C14      1.0000 0.87800  0.61200  0.97300  Biso   1.000  C
  H15      1.0000 0.10000  0.12000  0.11000  Biso   1.000  H
  H16      1.0000 0.90000  0.62000  0.89000  Biso   1.000  H
  H17      1.0000 0.06000  0.07000  0.99000  Biso   1.000  H
  H18      1.0000 0.94000  0.57000  0.01000  Biso   1.000  H
  C15      1.0000 0.30100  0.97900  0.08600  Biso   1.000  C
  C16      1.0000 0.69900  0.47900  0.91400  Biso   1.000  C
  H19      1.0000 0.24000  0.97000  0.15000  Biso   1.000  H
  H20      1.0000 0.76000  0.47000  0.85000  Biso   1.000  H
  C17      1.0000 0.45200  0.97900  0.14500  Biso   1.000  C
  C18      1.0000 0.54800  0.47900  0.85500  Biso   1.000  C
  C19      1.0000 0.26300  0.89300  0.99500  Biso   1.000  C
  C20      1.0000 0.73700  0.39300  0.00500  Biso   1.000  C
  H21      1.0000 0.16000  0.91000  0.96000  Biso   1.000  H
  H22      1.0000 0.84000  0.41000  0.04000  Biso   1.000  H
  H23      1.0000 0.32000  0.90000  0.95000  Biso   1.000  H
  H24      1.0000 0.68000  0.40000  0.05000  Biso   1.000  H
  H25      1.0000 0.26000  0.82000  0.03000  Biso   1.000  H
  H26      1.0000 0.74000  0.32000  0.97000  Biso   1.000  H
  Cu3      1.0000 0.33820  0.37650  0.23340  Biso   1.000  Cu
  Cu4      1.0000 0.66180  0.87650  0.76660  Biso   1.000  Cu
  O5       1.0000 0.48700  0.28000  0.23700  Biso   1.000  O
  O6       1.0000 0.51300  0.78000  0.76300  Biso   1.000  O
  O7       1.0000 0.17300  0.45400  0.24600  Biso   1.000  O
  O8       1.0000 0.82700  0.95400  0.75400  Biso   1.000  O
  N5       1.0000 0.41800  0.44700  0.38500  Biso   1.000  N
  N6       1.0000 0.58200  0.94700  0.61500  Biso   1.000  N
  H27      1.0000 0.46000  0.49000  0.36000  Biso   1.000  H
  H28      1.0000 0.54000  0.99000  0.64000  Biso   1.000  H
  N7       1.0000 0.06800  0.54400  0.37700  Biso   1.000  N
  N8       1.0000 0.93200  0.04400  0.62300  Biso   1.000  N
  H29      1.0000 0.00000  0.54000  0.32000  Biso   1.000  H
  H30      1.0000 0.00000  0.04000  0.68000  Biso   1.000  H
  H31      1.0000 0.07000  0.57000  0.45000  Biso   1.000  H
  H32      1.0000 0.93000  0.07000  0.55000  Biso   1.000  H
  C21      1.0000 0.61700  0.29200  0.29800  Biso   1.000  C
  C22      1.0000 0.38300  0.79200  0.70200  Biso   1.000  C
  C23      1.0000 0.72900  0.25300  0.25100  Biso   1.000  C
  C24      1.0000 0.27100  0.75300  0.74900  Biso   1.000  C
  H33      1.0000 0.71000  0.22000  0.18000  Biso   1.000  H
  H34      1.0000 0.29000  0.72000  0.82000  Biso   1.000  H
  C25      1.0000 0.86200  0.26700  0.31400  Biso   1.000  C
  C26      1.0000 0.13800  0.76700  0.68600  Biso   1.000  C
  H35      1.0000 0.94000  0.24000  0.28000  Biso   1.000  H
  H36      1.0000 0.06000  0.74000  0.72000  Biso   1.000  H
  C27      1.0000 0.88300  0.32000  0.42300  Biso   1.000  C
  C28      1.0000 0.11700  0.82000  0.57700  Biso   1.000  C
  H37      1.0000 0.97000  0.33000  0.46000  Biso   1.000  H
  H38      1.0000 0.03000  0.83000  0.54000  Biso   1.000  H
  C29      1.0000 0.77200  0.35900  0.46900  Biso   1.000  C
  C30      1.0000 0.22800  0.85900  0.53100  Biso   1.000  C
  H39      1.0000 0.78000  0.40000  0.54000  Biso   1.000  H
  H40      1.0000 0.22000  0.90000  0.46000  Biso   1.000  H
  C31      1.0000 0.63600  0.34600  0.40900  Biso   1.000  C
  C32      1.0000 0.36400  0.84600  0.59100  Biso   1.000  C
  C33      1.0000 0.51600  0.38200  0.46800  Biso   1.000  C
  C34      1.0000 0.48400  0.88200  0.53200  Biso   1.000  C
  H41      1.0000 0.56000  0.42000  0.55000  Biso   1.000  H
  H42      1.0000 0.44000  0.92000  0.45000  Biso   1.000  H
  H43      1.0000 0.46000  0.32000  0.50000  Biso   1.000  H
  H44      1.0000 0.54000  0.82000  0.50000  Biso   1.000  H
  C35      1.0000 0.30100  0.48400  0.44600  Biso   1.000  C
  C36      1.0000 0.69900  0.98400  0.55400  Biso   1.000  C
  H45      1.0000 0.28000  0.43000  0.50000  Biso   1.000  H
  H46      1.0000 0.72000  0.93000  0.50000  Biso   1.000  H
  C37      1.0000 0.17500  0.49600  0.34800  Biso   1.000  C
  C38      1.0000 0.82500  0.99600  0.65200  Biso   1.000  C
  C39      1.0000 0.33800  0.58000  0.52200  Biso   1.000  C
  C40      1.0000 0.66200  0.08000  0.47800  Biso   1.000  C
  H47      1.0000 0.40000  0.57000  0.57000  Biso   1.000  H
  H48      1.0000 0.60000  0.07000  0.43000  Biso   1.000  H
  H49      1.0000 0.34000  0.68000  0.46000  Biso   1.000  H
  H50      1.0000 0.66000  0.18000  0.54000  Biso   1.000  H
  H51      1.0000 0.28000  0.60000  0.56000  Biso   1.000  H
  H52      1.0000 0.72000  0.10000  0.44000  Biso   1.000  H
  Cl1      1.0000 0.59900  0.11720  0.88620  Biso   1.000  Cl
  Cl2      1.0000 0.40100  0.61720  0.11380  Biso   1.000  Cl
  O9       1.0000 0.50200  0.18700  0.93100  Biso   1.000  O
  O10      1.0000 0.49800  0.68700  0.06900  Biso   1.000  O
  O11      1.0000 0.72800  0.12000  0.96900  Biso   1.000  O
  O12      1.0000 0.27200  0.62000  0.03100  Biso   1.000  O
  O13      1.0000 0.54200  0.01600  0.88300  Biso   1.000  O
  O14      1.0000 0.45800  0.51600  0.11700  Biso   1.000  O
  O15      1.0000 0.62000  0.14800  0.76600  Biso   1.000  O
  O16      1.0000 0.38000  0.64800  0.23400  Biso   1.000  O
  Cl3      1.0000 0.23100  0.14110  0.42110  Biso   1.000  Cl
  Cl4      1.0000 0.76900  0.64110  0.57890  Biso   1.000  Cl
  O17      1.0000 0.30000  0.08700  0.33500  Biso   1.000  O
  O18      1.0000 0.70000  0.58700  0.66500  Biso   1.000  O
  O19      1.0000 0.21600  0.24700  0.38400  Biso   1.000  O
  O20      1.0000 0.78400  0.74700  0.61600  Biso   1.000  O
  O21      1.0000 0.31700  0.13500  0.53800  Biso   1.000  O
  O22      1.0000 0.68300  0.63500  0.46200  Biso   1.000  O
  O23      1.0000 0.10000  0.09700  0.42600  Biso   1.000  O
  O24      1.0000 0.90000  0.59700  0.57400  Biso   1.000  O
  O25      1.0000 0.75400  0.82200  0.33100  Biso   1.000  O
  O26      1.0000 0.24600  0.32200  0.66900  Biso   1.000  O
  H53      1.0000 0.84000  0.80000  0.30000  Biso   1.000  H
  H54      1.0000 0.16000  0.30000  0.70000  Biso   1.000  H
  H55      1.0000 0.70000  0.79000  0.26000  Biso   1.000  H
  H56      1.0000 0.30000  0.29000  0.74000  Biso   1.000  H
  O27      1.0000 0.21600  0.04200  0.75200  Biso   1.000  O
  O28      1.0000 0.78400  0.54200  0.24800  Biso   1.000  O
  H57      1.0000 0.25000  0.07000  0.69000  Biso   1.000  H
  H58      1.0000 0.75000  0.57000  0.31000  Biso   1.000  H
  H59      1.0000 0.24000  0.97700  0.74000  Biso   1.000  H
  H60      1.0000 0.76000  0.47700  0.26000  Biso   1.000  H
