data_image0
_cell_length_a       9.5497
_cell_length_b       9.8247
_cell_length_c       16.553
_cell_angle_alpha    78.06
_cell_angle_beta     76.178
_cell_angle_gamma    77.737

_symmetry_space_group_name_H-M    "P 1"
_symmetry_int_tables_number       1

loop_
  _symmetry_equiv_pos_as_xyz
  'x, y, z'

loop_
  _atom_site_label
  _atom_site_occupancy
  _atom_site_fract_x
  _atom_site_fract_y
  _atom_site_fract_z
  _atom_site_thermal_displace_type
  _atom_site_B_iso_or_equiv
  _atom_site_type_symbol
  Cu1      1.0000 0.50000  0.00000  0.00000  Biso   1.000  Cu
  O1       1.0000 0.62840  0.08699  0.04087  Biso   1.000  O
  O2       1.0000 0.37160  0.91301  0.95913  Biso   1.000  O
  N1       1.0000 0.24990  0.11990  0.16282  Biso   1.000  N
  N2       1.0000 0.75010  0.88010  0.83718  Biso   1.000  N
  O3       1.0000 0.27201  0.09261  0.08756  Biso   1.000  O
  O4       1.0000 0.72799  0.90739  0.91244  Biso   1.000  O
  C1       1.0000 0.22900  0.26990  0.17925  Biso   1.000  C
  C2       1.0000 0.77100  0.73010  0.82075  Biso   1.000  C
  C3       1.0000 0.82040  0.11060  0.09810  Biso   1.000  C
  C4       1.0000 0.17960  0.88940  0.90190  Biso   1.000  C
  F1       1.0000 0.85100  0.20200  0.03780  Biso   1.000  F
  F2       1.0000 0.14900  0.79800  0.96220  Biso   1.000  F
  F3       1.0000 0.93880  0.04320  0.11430  Biso   1.000  F
  F4       1.0000 0.06120  0.95680  0.88570  Biso   1.000  F
  F5       1.0000 0.75510  0.17100  0.15880  Biso   1.000  F
  F6       1.0000 0.24490  0.82900  0.84120  Biso   1.000  F
  F7       1.0000 0.77940  0.59860  0.18820  Biso   1.000  F
  F8       1.0000 0.22060  0.40140  0.81180  Biso   1.000  F
  F9       1.0000 0.63560  0.56200  0.12200  Biso   1.000  F
  F10      1.0000 0.36440  0.43800  0.87800  Biso   1.000  F
  F11      1.0000 0.55780  0.64000  0.23700  Biso   1.000  F
  F12      1.0000 0.44220  0.36000  0.76300  Biso   1.000  F
  F13      1.0000 0.73100  0.72750  0.44270  Biso   1.000  F
  F14      1.0000 0.26900  0.27250  0.55730  Biso   1.000  F
  F15      1.0000 0.83700  0.80900  0.31520  Biso   1.000  F
  F16      1.0000 0.16300  0.19100  0.68480  Biso   1.000  F
  F17      1.0000 0.61900  0.87800  0.36690  Biso   1.000  F
  F18      1.0000 0.38100  0.12200  0.63310  Biso   1.000  F
  F19      1.0000 0.75260  0.43490  0.40040  Biso   1.000  F
  F20      1.0000 0.24740  0.56510  0.59960  Biso   1.000  F
  F21      1.0000 0.61560  0.36320  0.52150  Biso   1.000  F
  F22      1.0000 0.38440  0.63680  0.47850  Biso   1.000  F
  F23      1.0000 0.54840  0.35860  0.40830  Biso   1.000  F
  F24      1.0000 0.45160  0.64140  0.59170  Biso   1.000  F
  Cu2      1.0000 0.00000  0.00000  0.50000  Biso   1.000  Cu
  O5       1.0000 0.53810  0.82555  0.07700  Biso   1.000  O
  O6       1.0000 0.46190  0.17445  0.92300  Biso   1.000  O
  O7       1.0000 0.19270  0.03120  0.37656  Biso   1.000  O
  O8       1.0000 0.80730  0.96880  0.62344  Biso   1.000  O
  C5       1.0000 0.71980  0.02050  0.08454  Biso   1.000  C
  C6       1.0000 0.28020  0.97950  0.91546  Biso   1.000  C
  N3       1.0000 0.20820  0.09530  0.29805  Biso   1.000  N
  N4       1.0000 0.79180  0.90470  0.70195  Biso   1.000  N
  C7       1.0000 0.07610  0.33850  0.16260  Biso   1.000  C
  C8       1.0000 0.92390  0.66150  0.83740  Biso   1.000  C
  H1       1.0000 0.07830  0.35320  0.10320  Biso   1.000  H
  H2       1.0000 0.92170  0.64680  0.89680  Biso   1.000  H
  H3       1.0000 0.04720  0.42760  0.18230  Biso   1.000  H
  H4       1.0000 0.95280  0.57240  0.81770  Biso   1.000  H
  H5       1.0000 0.00720  0.27760  0.19190  Biso   1.000  H
  H6       1.0000 0.99280  0.72240  0.80810  Biso   1.000  H
  O9       1.0000 0.90600  0.90110  0.44630  Biso   1.000  O
  O10      1.0000 0.09400  0.09890  0.55370  Biso   1.000  O
  N5       1.0000 0.19570  0.68050  0.20420  Biso   1.000  N
  N6       1.0000 0.80430  0.31950  0.79580  Biso   1.000  N
  O11      1.0000 0.18790  0.66240  0.29330  Biso   1.000  O
  O12      1.0000 0.81210  0.33760  0.70670  Biso   1.000  O
  C9       1.0000 0.34180  0.34680  0.11881  Biso   1.000  C
  C10      1.0000 0.65820  0.65320  0.88119  Biso   1.000  C
  H7       1.0000 0.43730  0.30350  0.12920  Biso   1.000  H
  H8       1.0000 0.56270  0.69650  0.87080  Biso   1.000  H
  H9       1.0000 0.32240  0.44370  0.12650  Biso   1.000  H
  H10      1.0000 0.67760  0.55630  0.87350  Biso   1.000  H
  H11      1.0000 0.33780  0.34230  0.06200  Biso   1.000  H
  H12      1.0000 0.66220  0.65770  0.93800  Biso   1.000  H
  C11      1.0000 0.73400  0.88150  0.12130  Biso   1.000  C
  C12      1.0000 0.26600  0.11850  0.87870  Biso   1.000  C
  H13      1.0000 0.80880  0.84450  0.15080  Biso   1.000  H
  H14      1.0000 0.19120  0.15550  0.84920  Biso   1.000  H
  O13      1.0000 0.86760  0.17600  0.47554  Biso   1.000  O
  O14      1.0000 0.13240  0.82400  0.52446  Biso   1.000  O
  C13      1.0000 0.64090  0.79270  0.11635  Biso   1.000  C
  C14      1.0000 0.35910  0.20730  0.88365  Biso   1.000  C
  C15      1.0000 0.23730  0.23970  0.27309  Biso   1.000  C
  C16      1.0000 0.76270  0.76030  0.72691  Biso   1.000  C
  C17      1.0000 0.65860  0.64520  0.16340  Biso   1.000  C
  C18      1.0000 0.34140  0.35480  0.83660  Biso   1.000  C
  C19      1.0000 0.39400  0.23450  0.28350  Biso   1.000  C
  C20      1.0000 0.60600  0.76550  0.71650  Biso   1.000  C
  H15      1.0000 0.39670  0.21620  0.34240  Biso   1.000  H
  H16      1.0000 0.60330  0.78380  0.65760  Biso   1.000  H
  H17      1.0000 0.42450  0.32340  0.25820  Biso   1.000  H
  H18      1.0000 0.57550  0.67660  0.74180  Biso   1.000  H
  H19      1.0000 0.45870  0.16070  0.25640  Biso   1.000  H
  H20      1.0000 0.54130  0.83930  0.74360  Biso   1.000  H
  C21      1.0000 0.13310  0.33070  0.33090  Biso   1.000  C
  C22      1.0000 0.86690  0.66930  0.66910  Biso   1.000  C
  H21      1.0000 0.03540  0.33720  0.32290  Biso   1.000  H
  H22      1.0000 0.96460  0.66280  0.67710  Biso   1.000  H
  H23      1.0000 0.15840  0.42330  0.31860  Biso   1.000  H
  H24      1.0000 0.84160  0.57670  0.68140  Biso   1.000  H
  H25      1.0000 0.13840  0.29000  0.38820  Biso   1.000  H
  H26      1.0000 0.86160  0.71000  0.61180  Biso   1.000  H
  C23      1.0000 0.73980  0.84410  0.38390  Biso   1.000  C
  C24      1.0000 0.26020  0.15590  0.61610  Biso   1.000  C
  C25      1.0000 0.22310  0.02950  0.23213  Biso   1.000  C
  C26      1.0000 0.77690  0.97050  0.76787  Biso   1.000  C
  C27      1.0000 0.79250  0.95090  0.41880  Biso   1.000  C
  C28      1.0000 0.20750  0.04910  0.58120  Biso   1.000  C
  C29      1.0000 0.21450  0.88310  0.23850  Biso   1.000  C
  C30      1.0000 0.78550  0.11690  0.76150  Biso   1.000  C
  C31      1.0000 0.71590  0.08620  0.41470  Biso   1.000  C
  C32      1.0000 0.28410  0.91380  0.58530  Biso   1.000  C
  H27      1.0000 0.63230  0.10850  0.39180  Biso   1.000  H
  H28      1.0000 0.36770  0.89150  0.60820  Biso   1.000  H
  C33      1.0000 0.21260  0.81200  0.17430  Biso   1.000  C
  C34      1.0000 0.78740  0.18800  0.82570  Biso   1.000  C
  H29      1.0000 0.22230  0.85260  0.11770  Biso   1.000  H
  H30      1.0000 0.77770  0.14740  0.88230  Biso   1.000  H
  C35      1.0000 0.75720  0.18860  0.44270  Biso   1.000  C
  C36      1.0000 0.24280  0.81140  0.55730  Biso   1.000  C
  C37      1.0000 0.19900  0.78300  0.31000  Biso   1.000  C
  C38      1.0000 0.80100  0.21700  0.69000  Biso   1.000  C
  H31      1.0000 0.19760  0.79900  0.36360  Biso   1.000  H
  H32      1.0000 0.80240  0.20100  0.63640  Biso   1.000  H
  C39      1.0000 0.67250  0.33910  0.44000  Biso   1.000  C
  C40      1.0000 0.32750  0.66090  0.56000  Biso   1.000  C
  F25      1.0000 0.90900  0.14800  0.02650  Biso   1.000  F
  F26      1.0000 0.09100  0.85200  0.97350  Biso   1.000  F
  F27      1.0000 0.89400  0.05570  0.15720  Biso   1.000  F
  F28      1.0000 0.10600  0.94430  0.84280  Biso   1.000  F
  F29      1.0000 0.74950  0.23210  0.12250  Biso   1.000  F
  F30      1.0000 0.25050  0.76790  0.87750  Biso   1.000  F
  F31      1.0000 0.76100  0.56470  0.10370  Biso   1.000  F
  F32      1.0000 0.23900  0.43530  0.89630  Biso   1.000  F
  F33      1.0000 0.55300  0.57820  0.17580  Biso   1.000  F
  F34      1.0000 0.44700  0.42180  0.82420  Biso   1.000  F
  F35      1.0000 0.72300  0.62140  0.21700  Biso   1.000  F
  F36      1.0000 0.27700  0.37860  0.78300  Biso   1.000  F
  F37      1.0000 0.81500  0.76700  0.34870  Biso   1.000  F
  F38      1.0000 0.18500  0.23300  0.65130  Biso   1.000  F
  F39      1.0000 0.63600  0.79100  0.43220  Biso   1.000  F
  F40      1.0000 0.36400  0.20900  0.56780  Biso   1.000  F
  F41      1.0000 0.64400  0.91600  0.32680  Biso   1.000  F
  F42      1.0000 0.35600  0.08400  0.67320  Biso   1.000  F
  F43      1.0000 0.69800  0.39900  0.36900  Biso   1.000  F
  F44      1.0000 0.30200  0.60100  0.63100  Biso   1.000  F
  F45      1.0000 0.68100  0.40200  0.49750  Biso   1.000  F
  F46      1.0000 0.31900  0.59800  0.50250  Biso   1.000  F
  F47      1.0000 0.54500  0.32700  0.45200  Biso   1.000  F
  F48      1.0000 0.45500  0.67300  0.54800  Biso   1.000  F
