data_image0
_cell_length_a       9.194
_cell_length_b       11.528
_cell_length_c       13.977
_cell_angle_alpha    81.795
_cell_angle_beta     87.787
_cell_angle_gamma    79.924

_symmetry_space_group_name_H-M    "P 1"
_symmetry_int_tables_number       1

loop_
  _symmetry_equiv_pos_as_xyz
  'x, y, z'

loop_
  _atom_site_label
  _atom_site_occupancy
  _atom_site_fract_x
  _atom_site_fract_y
  _atom_site_fract_z
  _atom_site_thermal_displace_type
  _atom_site_B_iso_or_equiv
  _atom_site_type_symbol
  Cu1      1.0000 0.50000  0.50000  0.00000  Biso   1.000  Cu
  O1       1.0000 0.58920  0.60828  0.06578  Biso   1.000  O
  O2       1.0000 0.41080  0.39172  0.93422  Biso   1.000  O
  C1       1.0000 0.68070  0.68070  0.19350  Biso   1.000  C
  C2       1.0000 0.31930  0.31930  0.80650  Biso   1.000  C
  F1       1.0000 0.81980  0.66130  0.15770  Biso   1.000  F
  F2       1.0000 0.18020  0.33870  0.84230  Biso   1.000  F
  F3       1.0000 0.63600  0.79510  0.17120  Biso   1.000  F
  F4       1.0000 0.36400  0.20490  0.82880  Biso   1.000  F
  F5       1.0000 0.70100  0.66010  0.28540  Biso   1.000  F
  F6       1.0000 0.29900  0.33990  0.71460  Biso   1.000  F
  C3       1.0000 0.57430  0.61190  0.15420  Biso   1.000  C
  C4       1.0000 0.42570  0.38810  0.84580  Biso   1.000  C
  C5       1.0000 0.47260  0.56560  0.21670  Biso   1.000  C
  C6       1.0000 0.52740  0.43440  0.78330  Biso   1.000  C
  H1       1.0000 0.47320  0.57490  0.28240  Biso   1.000  H
  H2       1.0000 0.52680  0.42510  0.71760  Biso   1.000  H
  C7       1.0000 0.36950  0.50560  0.18520  Biso   1.000  C
  C8       1.0000 0.63050  0.49440  0.81480  Biso   1.000  C
  C9       1.0000 0.24960  0.46840  0.25510  Biso   1.000  C
  C10      1.0000 0.75040  0.53160  0.74490  Biso   1.000  C
  F7       1.0000 0.27800  0.34670  0.27760  Biso   1.000  F
  F8       1.0000 0.72200  0.65330  0.72240  Biso   1.000  F
  F9       1.0000 0.11650  0.49130  0.21760  Biso   1.000  F
  F10      1.0000 0.88350  0.50870  0.78240  Biso   1.000  F
  F11      1.0000 0.23600  0.50120  0.33590  Biso   1.000  F
  F12      1.0000 0.76400  0.49880  0.66410  Biso   1.000  F
  O3       1.0000 0.35810  0.47837  0.10320  Biso   1.000  O
  O4       1.0000 0.64190  0.52163  0.89680  Biso   1.000  O
  O5       1.0000 0.99003  0.93701  0.67660  Biso   1.000  O
  O6       1.0000 0.00997  0.06299  0.32340  Biso   1.000  O
  N1       1.0000 0.93830  0.94636  0.76152  Biso   1.000  N
  N2       1.0000 0.06170  0.05364  0.23848  Biso   1.000  N
  C11      1.0000 0.80700  0.03730  0.78193  Biso   1.000  C
  C12      1.0000 0.19300  0.96270  0.21807  Biso   1.000  C
  C13      1.0000 0.86630  0.15390  0.77870  Biso   1.000  C
  C14      1.0000 0.13370  0.84610  0.22130  Biso   1.000  C
  H3       1.0000 0.89020  0.18290  0.71240  Biso   1.000  H
  H4       1.0000 0.10980  0.81710  0.28760  Biso   1.000  H
  H5       1.0000 0.95440  0.14020  0.81760  Biso   1.000  H
  H6       1.0000 0.04560  0.85980  0.18240  Biso   1.000  H
  H7       1.0000 0.79170  0.21250  0.80420  Biso   1.000  H
  H8       1.0000 0.20830  0.78750  0.19580  Biso   1.000  H
  C15      1.0000 0.69020  0.04770  0.70680  Biso   1.000  C
  C16      1.0000 0.30980  0.95230  0.29320  Biso   1.000  C
  H9       1.0000 0.65400  0.97300  0.71100  Biso   1.000  H
  H10      1.0000 0.34600  0.02700  0.28900  Biso   1.000  H
  H11      1.0000 0.73250  0.06620  0.64290  Biso   1.000  H
  H12      1.0000 0.26750  0.93380  0.35710  Biso   1.000  H
  H13      1.0000 0.60920  0.11060  0.71800  Biso   1.000  H
  H14      1.0000 0.39080  0.88940  0.28200  Biso   1.000  H
  C17      1.0000 0.76550  0.98280  0.88455  Biso   1.000  C
  C18      1.0000 0.23450  0.01720  0.11545  Biso   1.000  C
  C19      1.0000 0.66400  0.89130  0.88680  Biso   1.000  C
  C20      1.0000 0.33600  0.10870  0.11320  Biso   1.000  C
  H15      1.0000 0.64260  0.86150  0.95330  Biso   1.000  H
  H16      1.0000 0.35740  0.13850  0.04670  Biso   1.000  H
  H17      1.0000 0.71200  0.82600  0.85390  Biso   1.000  H
  H18      1.0000 0.28800  0.17400  0.14610  Biso   1.000  H
  H19      1.0000 0.57250  0.92830  0.85450  Biso   1.000  H
  H20      1.0000 0.42750  0.07170  0.14550  Biso   1.000  H
  C21      1.0000 0.70850  0.07170  0.95290  Biso   1.000  C
  C22      1.0000 0.29150  0.92830  0.04710  Biso   1.000  C
  H21      1.0000 0.68520  0.02960  0.01530  Biso   1.000  H
  H22      1.0000 0.31480  0.97040  0.98470  Biso   1.000  H
  H23      1.0000 0.62020  0.12340  0.92660  Biso   1.000  H
  H24      1.0000 0.37980  0.87660  0.07340  Biso   1.000  H
  H25      1.0000 0.78360  0.11900  0.96080  Biso   1.000  H
  H26      1.0000 0.21640  0.88100  0.03920  Biso   1.000  H
  N3       1.0000 0.91240  0.91403  0.91848  Biso   1.000  N
  N4       1.0000 0.08760  0.08597  0.08152  Biso   1.000  N
  O7       1.0000 0.93960  0.87740  0.00718  Biso   1.000  O
  O8       1.0000 0.06040  0.12260  0.99282  Biso   1.000  O
  C23      1.0000 0.00080  0.88710  0.84333  Biso   1.000  C
  C24      1.0000 0.99920  0.11290  0.15667  Biso   1.000  C
  C25      1.0000 0.14190  0.80940  0.85081  Biso   1.000  C
  C26      1.0000 0.85810  0.19060  0.14919  Biso   1.000  C
  C27      1.0000 0.17990  0.69820  0.90921  Biso   1.000  C
  C28      1.0000 0.82010  0.30180  0.09079  Biso   1.000  C
  C29      1.0000 0.08090  0.62640  0.96840  Biso   1.000  C
  C30      1.0000 0.91910  0.37360  0.03160  Biso   1.000  C
  H27      1.0000 0.13900  0.55360  0.00010  Biso   1.000  H
  H28      1.0000 0.86100  0.44640  0.99990  Biso   1.000  H
  H29      1.0000 0.00900  0.60690  0.92700  Biso   1.000  H
  H30      1.0000 0.99100  0.39310  0.07300  Biso   1.000  H
  H31      1.0000 0.02990  0.67180  0.01680  Biso   1.000  H
  H32      1.0000 0.97010  0.32820  0.98320  Biso   1.000  H
  N5       1.0000 0.32070  0.65714  0.90299  Biso   1.000  N
  N6       1.0000 0.67930  0.34286  0.09701  Biso   1.000  N
  O9       1.0000 0.37932  0.74246  0.83728  Biso   1.000  O
  O10      1.0000 0.62068  0.25754  0.16272  Biso   1.000  O
  C31      1.0000 0.26880  0.83150  0.80705  Biso   1.000  C
  C32      1.0000 0.73120  0.16850  0.19295  Biso   1.000  C
  C33      1.0000 0.30900  0.93000  0.73680  Biso   1.000  C
  C34      1.0000 0.69100  0.07000  0.26320  Biso   1.000  C
  H33      1.0000 0.41380  0.91350  0.72180  Biso   1.000  H
  H34      1.0000 0.58620  0.08650  0.27820  Biso   1.000  H
  H35      1.0000 0.28630  0.00380  0.76450  Biso   1.000  H
  H36      1.0000 0.71370  0.99620  0.23550  Biso   1.000  H
  H37      1.0000 0.25320  0.93740  0.67810  Biso   1.000  H
  H38      1.0000 0.74680  0.06260  0.32190  Biso   1.000  H
  Cu2      1.0000 0.00000  0.00000  0.50000  Biso   1.000  Cu
  O11      1.0000 0.17771  0.06338  0.51236  Biso   1.000  O
  O12      1.0000 0.82229  0.93662  0.48764  Biso   1.000  O
  C35      1.0000 0.34350  0.19470  0.50340  Biso   1.000  C
  C36      1.0000 0.65650  0.80530  0.49660  Biso   1.000  C
  F13      1.0000 0.41920  0.16470  0.42720  Biso   1.000  F
  F14      1.0000 0.58080  0.83530  0.57280  Biso   1.000  F
  F15      1.0000 0.35200  0.30611  0.50781  Biso   1.000  F
  F16      1.0000 0.64800  0.69389  0.49219  Biso   1.000  F
  F17      1.0000 0.40980  0.13243  0.57994  Biso   1.000  F
  F18      1.0000 0.59020  0.86757  0.42006  Biso   1.000  F
  C37      1.0000 0.18610  0.17150  0.49887  Biso   1.000  C
  C38      1.0000 0.81390  0.82850  0.50113  Biso   1.000  C
  C39      1.0000 0.07220  0.26770  0.47890  Biso   1.000  C
  C40      1.0000 0.92780  0.73230  0.52110  Biso   1.000  C
  H39      1.0000 0.09360  0.34530  0.46860  Biso   1.000  H
  H40      1.0000 0.90640  0.65470  0.53140  Biso   1.000  H
  C41      1.0000 0.92720  0.25060  0.47390  Biso   1.000  C
  C42      1.0000 0.07280  0.74940  0.52610  Biso   1.000  C
  C43      1.0000 0.80880  0.35950  0.44570  Biso   1.000  C
  C44      1.0000 0.19120  0.64050  0.55430  Biso   1.000  C
  F19      1.0000 0.70800  0.36730  0.51570  Biso   1.000  F
  F20      1.0000 0.29200  0.63270  0.48430  Biso   1.000  F
  F21      1.0000 0.85600  0.45810  0.43340  Biso   1.000  F
  F22      1.0000 0.14400  0.54190  0.56660  Biso   1.000  F
  F23      1.0000 0.73600  0.35100  0.37570  Biso   1.000  F
  F24      1.0000 0.26400  0.64900  0.62430  Biso   1.000  F
  O13      1.0000 0.87863  0.15551  0.48805  Biso   1.000  O
  O14      1.0000 0.12137  0.84449  0.51195  Biso   1.000  O
  F25      1.0000 0.12900  0.54110  0.23350  Biso   1.000  F
  F26      1.0000 0.87100  0.45890  0.76650  Biso   1.000  F
  F27      1.0000 0.28400  0.47760  0.34410  Biso   1.000  F
  F28      1.0000 0.71600  0.52240  0.65590  Biso   1.000  F
  F29      1.0000 0.22280  0.36840  0.24770  Biso   1.000  F
  F30      1.0000 0.77720  0.63160  0.75230  Biso   1.000  F
  F31      1.0000 0.78400  0.36500  0.34860  Biso   1.000  F
  F32      1.0000 0.21600  0.63500  0.65140  Biso   1.000  F
  F33      1.0000 0.68960  0.35350  0.49470  Biso   1.000  F
  F34      1.0000 0.31040  0.64650  0.50530  Biso   1.000  F
  F35      1.0000 0.84900  0.45970  0.45770  Biso   1.000  F
  F36      1.0000 0.15100  0.54030  0.54230  Biso   1.000  F
  F37      1.0000 0.34700  0.31300  0.71270  Biso   1.000  F
  F38      1.0000 0.65300  0.68700  0.28730  Biso   1.000  F
  F39      1.0000 0.19310  0.37570  0.81970  Biso   1.000  F
  F40      1.0000 0.80690  0.62430  0.18030  Biso   1.000  F
  F41      1.0000 0.33200  0.21280  0.84860  Biso   1.000  F
  F42      1.0000 0.66800  0.78720  0.15140  Biso   1.000  F
