data_image0
_cell_length_a       12.0937
_cell_length_b       13.3086
_cell_length_c       15.6413
_cell_angle_alpha    68.442
_cell_angle_beta     69.545
_cell_angle_gamma    80.584

_symmetry_space_group_name_H-M    "P 1"
_symmetry_int_tables_number       1

loop_
  _symmetry_equiv_pos_as_xyz
  'x, y, z'

loop_
  _atom_site_label
  _atom_site_occupancy
  _atom_site_fract_x
  _atom_site_fract_y
  _atom_site_fract_z
  _atom_site_thermal_displace_type
  _atom_site_B_iso_or_equiv
  _atom_site_type_symbol
  Cu1      1.0000 0.50000  0.00000  0.00000  Biso   1.000  Cu
  O1       1.0000 0.40270  0.01740  0.91860  Biso   1.000  O
  O2       1.0000 0.59730  0.98260  0.08140  Biso   1.000  O
  C1       1.0000 0.32640  0.99310  0.81130  Biso   1.000  C
  C2       1.0000 0.67360  0.00690  0.18870  Biso   1.000  C
  F1       1.0000 0.35820  0.95910  0.73650  Biso   1.000  F
  F2       1.0000 0.64180  0.04090  0.26350  Biso   1.000  F
  F3       1.0000 0.30600  0.09700  0.77680  Biso   1.000  F
  F4       1.0000 0.69400  0.90300  0.22320  Biso   1.000  F
  F5       1.0000 0.22390  0.95530  0.86860  Biso   1.000  F
  F6       1.0000 0.77610  0.04470  0.13140  Biso   1.000  F
  C3       1.0000 0.41830  0.96330  0.86360  Biso   1.000  C
  C4       1.0000 0.58170  0.03670  0.13640  Biso   1.000  C
  C5       1.0000 0.50060  0.88120  0.85210  Biso   1.000  C
  C6       1.0000 0.49940  0.11880  0.14790  Biso   1.000  C
  H1       1.0000 0.50420  0.84900  0.80670  Biso   1.000  H
  H2       1.0000 0.49580  0.15100  0.19330  Biso   1.000  H
  C7       1.0000 0.57850  0.84420  0.90530  Biso   1.000  C
  C8       1.0000 0.42150  0.15580  0.09470  Biso   1.000  C
  C9       1.0000 0.66790  0.75060  0.89070  Biso   1.000  C
  C10      1.0000 0.33210  0.24940  0.10930  Biso   1.000  C
  F7       1.0000 0.64900  0.70500  0.83530  Biso   1.000  F
  F8       1.0000 0.35100  0.29500  0.16470  Biso   1.000  F
  F9       1.0000 0.77380  0.78120  0.85740  Biso   1.000  F
  F10      1.0000 0.22620  0.21880  0.14260  Biso   1.000  F
  F11      1.0000 0.65720  0.67340  0.97500  Biso   1.000  F
  F12      1.0000 0.34280  0.32660  0.02500  Biso   1.000  F
  O3       1.0000 0.58610  0.87720  0.96830  Biso   1.000  O
  O4       1.0000 0.41390  0.12280  0.03170  Biso   1.000  O
  O5       1.0000 0.36710  0.88300  0.14470  Biso   1.000  O
  O6       1.0000 0.63290  0.11700  0.85530  Biso   1.000  O
  N1       1.0000 0.26900  0.83460  0.19020  Biso   1.000  N
  N2       1.0000 0.73100  0.16540  0.80980  Biso   1.000  N
  C11      1.0000 0.15010  0.89410  0.21120  Biso   1.000  C
  C12      1.0000 0.84990  0.10590  0.78880  Biso   1.000  C
  C13      1.0000 0.13970  0.97880  0.11790  Biso   1.000  C
  C14      1.0000 0.86030  0.02120  0.88210  Biso   1.000  C
  H3       1.0000 0.13860  0.94360  0.07390  Biso   1.000  H
  H4       1.0000 0.86140  0.05640  0.92610  Biso   1.000  H
  H5       1.0000 0.20670  0.02500  0.08830  Biso   1.000  H
  H6       1.0000 0.79330  0.97500  0.91170  Biso   1.000  H
  H7       1.0000 0.06730  0.02210  0.13170  Biso   1.000  H
  H8       1.0000 0.93270  0.97790  0.86830  Biso   1.000  H
  C15      1.0000 0.15260  0.94840  0.28190  Biso   1.000  C
  C16      1.0000 0.84740  0.05160  0.71810  Biso   1.000  C
  H9       1.0000 0.20730  0.00670  0.24790  Biso   1.000  H
  H10      1.0000 0.79270  0.99330  0.75210  Biso   1.000  H
  H11      1.0000 0.17790  0.89550  0.33430  Biso   1.000  H
  H12      1.0000 0.82210  0.10450  0.66570  Biso   1.000  H
  H13      1.0000 0.07420  0.97730  0.30830  Biso   1.000  H
  H14      1.0000 0.92580  0.02270  0.69170  Biso   1.000  H
  C17      1.0000 0.06540  0.79870  0.25770  Biso   1.000  C
  C18      1.0000 0.93460  0.20130  0.74230  Biso   1.000  C
  C19      1.0000 0.96150  0.80450  0.34710  Biso   1.000  C
  C20      1.0000 0.03850  0.19550  0.65290  Biso   1.000  C
  H15      1.0000 0.91330  0.74240  0.37130  Biso   1.000  H
  H16      1.0000 0.08670  0.25760  0.62870  Biso   1.000  H
  H17      1.0000 0.91410  0.87030  0.32930  Biso   1.000  H
  H18      1.0000 0.08590  0.12970  0.67070  Biso   1.000  H
  H19      1.0000 0.99160  0.80450  0.39700  Biso   1.000  H
  H20      1.0000 0.00840  0.19550  0.60300  Biso   1.000  H
  C21      1.0000 0.02040  0.77970  0.18680  Biso   1.000  C
  C22      1.0000 0.97960  0.22030  0.81320  Biso   1.000  C
  H21      1.0000 0.96800  0.71970  0.22030  Biso   1.000  H
  H22      1.0000 0.03200  0.28030  0.77970  Biso   1.000  H
  H23      1.0000 0.08650  0.76310  0.13630  Biso   1.000  H
  H24      1.0000 0.91350  0.23690  0.86370  Biso   1.000  H
  H25      1.0000 0.97760  0.84430  0.15810  Biso   1.000  H
  H26      1.0000 0.02240  0.15570  0.84190  Biso   1.000  H
  N3       1.0000 0.14890  0.70330  0.28560  Biso   1.000  N
  N4       1.0000 0.85110  0.29670  0.71440  Biso   1.000  N
  O7       1.0000 0.11220  0.60850  0.33400  Biso   1.000  O
  O8       1.0000 0.88780  0.39150  0.66600  Biso   1.000  O
  C23      1.0000 0.26210  0.72920  0.23850  Biso   1.000  C
  C24      1.0000 0.73790  0.27080  0.76150  Biso   1.000  C
  C25      1.0000 0.36270  0.65410  0.23750  Biso   1.000  C
  C26      1.0000 0.63730  0.34590  0.76250  Biso   1.000  C
  C27      1.0000 0.47850  0.67780  0.19310  Biso   1.000  C
  C28      1.0000 0.52150  0.32220  0.80690  Biso   1.000  C
  H27      1.0000 0.50600  0.74810  0.15800  Biso   1.000  H
  H28      1.0000 0.49400  0.25190  0.84200  Biso   1.000  H
  O9       1.0000 0.54730  0.58970  0.20580  Biso   1.000  O
  O10      1.0000 0.45270  0.41030  0.79420  Biso   1.000  O
  N5       1.0000 0.47550  0.49950  0.25980  Biso   1.000  N
  N6       1.0000 0.52450  0.50050  0.74020  Biso   1.000  N
  C29      1.0000 0.36850  0.53850  0.27860  Biso   1.000  C
  C30      1.0000 0.63150  0.46150  0.72140  Biso   1.000  C
  H29      1.0000 0.30200  0.49610  0.31510  Biso   1.000  H
  H30      1.0000 0.69800  0.50390  0.68490  Biso   1.000  H
  Cu2      1.0000 0.60284  0.34306  0.27081  Biso   1.000  Cu
  Cu3      1.0000 0.39716  0.65694  0.72919  Biso   1.000  Cu
  O11      1.0000 0.61870  0.34070  0.14310  Biso   1.000  O
  O12      1.0000 0.38130  0.65930  0.85690  Biso   1.000  O
  C31      1.0000 0.68280  0.37880  0.97570  Biso   1.000  C
  C32      1.0000 0.31720  0.62120  0.02430  Biso   1.000  C
  F13      1.0000 0.57640  0.41020  0.96700  Biso   1.000  F
  F14      1.0000 0.42360  0.58980  0.03300  Biso   1.000  F
  F15      1.0000 0.75920  0.43410  0.89450  Biso   1.000  F
  F16      1.0000 0.24080  0.56590  0.10550  Biso   1.000  F
  F17      1.0000 0.69940  0.27900  0.98040  Biso   1.000  F
  F18      1.0000 0.30060  0.72100  0.01960  Biso   1.000  F
  C33      1.0000 0.69180  0.39440  0.06480  Biso   1.000  C
  C34      1.0000 0.30820  0.60560  0.93520  Biso   1.000  C
  C35      1.0000 0.77500  0.46320  0.05270  Biso   1.000  C
  C36      1.0000 0.22500  0.53680  0.94730  Biso   1.000  C
  H31      1.0000 0.82310  0.50020  0.98990  Biso   1.000  H
  H32      1.0000 0.17690  0.49980  0.01010  Biso   1.000  H
  C37      1.0000 0.78790  0.47800  0.13010  Biso   1.000  C
  C38      1.0000 0.21210  0.52200  0.86990  Biso   1.000  C
  C39      1.0000 0.87620  0.56010  0.11190  Biso   1.000  C
  C40      1.0000 0.12380  0.43990  0.88810  Biso   1.000  C
  F19      1.0000 0.92850  0.61090  0.01920  Biso   1.000  F
  F20      1.0000 0.07150  0.38910  0.98080  Biso   1.000  F
  F21      1.0000 0.96350  0.51140  0.14870  Biso   1.000  F
  F22      1.0000 0.03650  0.48860  0.85130  Biso   1.000  F
  F23      1.0000 0.82470  0.63260  0.15320  Biso   1.000  F
  F24      1.0000 0.17530  0.36740  0.84680  Biso   1.000  F
  O13      1.0000 0.73460  0.43390  0.22010  Biso   1.000  O
  O14      1.0000 0.26540  0.56610  0.77990  Biso   1.000  O
  O15      1.0000 0.47530  0.24660  0.32530  Biso   1.000  O
  O16      1.0000 0.52470  0.75340  0.67470  Biso   1.000  O
  C41      1.0000 0.32850  0.12750  0.43680  Biso   1.000  C
  C42      1.0000 0.67150  0.87250  0.56320  Biso   1.000  C
  F25      1.0000 0.23660  0.19090  0.44230  Biso   1.000  F
  F26      1.0000 0.76340  0.80910  0.55770  Biso   1.000  F
  F27      1.0000 0.33370  0.08700  0.37470  Biso   1.000  F
  F28      1.0000 0.66630  0.91300  0.62530  Biso   1.000  F
  F29      1.0000 0.30280  0.05030  0.52230  Biso   1.000  F
  F30      1.0000 0.69720  0.94970  0.47770  Biso   1.000  F
  C43      1.0000 0.43740  0.18770  0.41310  Biso   1.000  C
  C44      1.0000 0.56260  0.81230  0.58690  Biso   1.000  C
  C45      1.0000 0.47970  0.17460  0.48710  Biso   1.000  C
  C46      1.0000 0.52030  0.82540  0.51290  Biso   1.000  C
  H33      1.0000 0.44620  0.12360  0.54840  Biso   1.000  H
  H34      1.0000 0.55380  0.87640  0.45160  Biso   1.000  H
  C47      1.0000 0.57080  0.23520  0.47360  Biso   1.000  C
  C48      1.0000 0.42920  0.76480  0.52640  Biso   1.000  C
  C49      1.0000 0.61590  0.22060  0.55670  Biso   1.000  C
  C50      1.0000 0.38410  0.77940  0.44330  Biso   1.000  C
  F31      1.0000 0.60470  0.31240  0.57360  Biso   1.000  F
  F32      1.0000 0.39530  0.68760  0.42640  Biso   1.000  F
  F33      1.0000 0.72890  0.19320  0.53700  Biso   1.000  F
  F34      1.0000 0.27110  0.80680  0.46300  Biso   1.000  F
  F35      1.0000 0.55940  0.14870  0.63820  Biso   1.000  F
  F36      1.0000 0.44060  0.85130  0.36180  Biso   1.000  F
  O17      1.0000 0.62840  0.30460  0.39400  Biso   1.000  O
  O18      1.0000 0.37160  0.69540  0.60600  Biso   1.000  O
  Cu4      1.0000 0.00000  0.50000  0.50000  Biso   1.000  Cu
  O19      1.0000 0.85060  0.55130  0.47830  Biso   1.000  O
  O20      1.0000 0.14940  0.44870  0.52170  Biso   1.000  O
  C51      1.0000 0.68910  0.58090  0.42290  Biso   1.000  C
  C52      1.0000 0.31090  0.41910  0.57710  Biso   1.000  C
  F37      1.0000 0.70560  0.68320  0.37280  Biso   1.000  F
  F38      1.0000 0.29440  0.31680  0.62720  Biso   1.000  F
  F39      1.0000 0.63610  0.54320  0.38070  Biso   1.000  F
  F40      1.0000 0.36390  0.45680  0.61930  Biso   1.000  F
  F41      1.0000 0.61240  0.57550  0.50770  Biso   1.000  F
  F42      1.0000 0.38760  0.42450  0.49230  Biso   1.000  F
  C53      1.0000 0.80500  0.51930  0.43400  Biso   1.000  C
  C54      1.0000 0.19500  0.48070  0.56600  Biso   1.000  C
  C55      1.0000 0.84900  0.44060  0.39070  Biso   1.000  C
  C56      1.0000 0.15100  0.55940  0.60930  Biso   1.000  C
  H35      1.0000 0.80800  0.42740  0.35500  Biso   1.000  H
  H36      1.0000 0.19200  0.57260  0.64500  Biso   1.000  H
  C57      1.0000 0.95140  0.38160  0.39920  Biso   1.000  C
  C58      1.0000 0.04860  0.61840  0.60080  Biso   1.000  C
  C59      1.0000 0.99540  0.29380  0.35280  Biso   1.000  C
  C60      1.0000 0.00460  0.70620  0.64720  Biso   1.000  C
  F43      1.0000 0.09900  0.34000  0.26800  Biso   1.000  F
  F44      1.0000 0.90100  0.66000  0.73200  Biso   1.000  F
  F45      1.0000 0.02400  0.21000  0.40600  Biso   1.000  F
  F46      1.0000 0.97600  0.79000  0.59400  Biso   1.000  F
  F47      1.0000 0.91600  0.26000  0.32100  Biso   1.000  F
  F48      1.0000 0.08400  0.74000  0.67900  Biso   1.000  F
  O21      1.0000 0.01860  0.39070  0.44150  Biso   1.000  O
  O22      1.0000 0.98140  0.60930  0.55850  Biso   1.000  O
  F49      1.0000 0.90200  0.70500  0.69400  Biso   1.000  F
  F50      1.0000 0.09800  0.29500  0.30600  Biso   1.000  F
  F51      1.0000 0.98500  0.19000  0.43200  Biso   1.000  F
  F52      1.0000 0.01500  0.81000  0.56800  Biso   1.000  F
  F53      1.0000 0.93500  0.30200  0.29900  Biso   1.000  F
  F54      1.0000 0.06500  0.69800  0.70100  Biso   1.000  F
