data_image0
_cell_length_a       9.1696
_cell_length_b       11.4047
_cell_length_c       13.9321
_cell_angle_alpha    81.938
_cell_angle_beta     87.86
_cell_angle_gamma    80.201

_symmetry_space_group_name_H-M    "P 1"
_symmetry_int_tables_number       1

loop_
  _symmetry_equiv_pos_as_xyz
  'x, y, z'

loop_
  _atom_site_label
  _atom_site_occupancy
  _atom_site_fract_x
  _atom_site_fract_y
  _atom_site_fract_z
  _atom_site_thermal_displace_type
  _atom_site_B_iso_or_equiv
  _atom_site_type_symbol
  Cu1      1.0000 0.50000  0.50000  0.00000  Biso   1.000  Cu
  O1       1.0000 0.58848  0.61113  0.06551  Biso   1.000  O
  O2       1.0000 0.41152  0.38887  0.93449  Biso   1.000  O
  C1       1.0000 0.68220  0.68450  0.19370  Biso   1.000  C
  C2       1.0000 0.31780  0.31550  0.80630  Biso   1.000  C
  F1       1.0000 0.82000  0.65640  0.16040  Biso   1.000  F
  F2       1.0000 0.18000  0.34360  0.83960  Biso   1.000  F
  F3       1.0000 0.65065  0.80060  0.15961  Biso   1.000  F
  F4       1.0000 0.34935  0.19940  0.84039  Biso   1.000  F
  F5       1.0000 0.69800  0.67100  0.29010  Biso   1.000  F
  F6       1.0000 0.30200  0.32900  0.70990  Biso   1.000  F
  C3       1.0000 0.57350  0.61525  0.15515  Biso   1.000  C
  C4       1.0000 0.42650  0.38475  0.84485  Biso   1.000  C
  C5       1.0000 0.47080  0.56810  0.21863  Biso   1.000  C
  C6       1.0000 0.52920  0.43190  0.78137  Biso   1.000  C
  H1       1.0000 0.47160  0.57750  0.28530  Biso   1.000  H
  H2       1.0000 0.52840  0.42250  0.71470  Biso   1.000  H
  C7       1.0000 0.36730  0.50770  0.18640  Biso   1.000  C
  C8       1.0000 0.63270  0.49230  0.81360  Biso   1.000  C
  C9       1.0000 0.24610  0.46950  0.25660  Biso   1.000  C
  C10      1.0000 0.75390  0.53050  0.74340  Biso   1.000  C
  F7       1.0000 0.26900  0.34600  0.27890  Biso   1.000  F
  F8       1.0000 0.73100  0.65400  0.72110  Biso   1.000  F
  F9       1.0000 0.11420  0.49910  0.22030  Biso   1.000  F
  F10      1.0000 0.88580  0.50090  0.77970  Biso   1.000  F
  F11      1.0000 0.24120  0.50590  0.34110  Biso   1.000  F
  F12      1.0000 0.75880  0.49410  0.65890  Biso   1.000  F
  O3       1.0000 0.35567  0.48022  0.10326  Biso   1.000  O
  O4       1.0000 0.64433  0.51978  0.89674  Biso   1.000  O
  O5       1.0000 0.99184  0.93944  0.67525  Biso   1.000  O
  O6       1.0000 0.00816  0.06056  0.32475  Biso   1.000  O
  N1       1.0000 0.93946  0.94862  0.76048  Biso   1.000  N
  N2       1.0000 0.06054  0.05138  0.23952  Biso   1.000  N
  C11      1.0000 0.80780  0.04086  0.78196  Biso   1.000  C
  C12      1.0000 0.19220  0.95914  0.21804  Biso   1.000  C
  C13      1.0000 0.86800  0.15830  0.77930  Biso   1.000  C
  C14      1.0000 0.13200  0.84170  0.22070  Biso   1.000  C
  H3       1.0000 0.89250  0.18810  0.71220  Biso   1.000  H
  H4       1.0000 0.10750  0.81190  0.28780  Biso   1.000  H
  H5       1.0000 0.95720  0.14410  0.81870  Biso   1.000  H
  H6       1.0000 0.04280  0.85590  0.18130  Biso   1.000  H
  H7       1.0000 0.79290  0.21810  0.80530  Biso   1.000  H
  H8       1.0000 0.20710  0.78190  0.19470  Biso   1.000  H
  C15      1.0000 0.69090  0.05300  0.70569  Biso   1.000  C
  C16      1.0000 0.30910  0.94700  0.29431  Biso   1.000  C
  H9       1.0000 0.65270  0.97730  0.70920  Biso   1.000  H
  H10      1.0000 0.34730  0.02270  0.29080  Biso   1.000  H
  H11      1.0000 0.73450  0.07210  0.64130  Biso   1.000  H
  H12      1.0000 0.26550  0.92790  0.35870  Biso   1.000  H
  H13      1.0000 0.60960  0.11760  0.71720  Biso   1.000  H
  H14      1.0000 0.39040  0.88240  0.28280  Biso   1.000  H
  C17      1.0000 0.76500  0.98540  0.88499  Biso   1.000  C
  C18      1.0000 0.23500  0.01460  0.11501  Biso   1.000  C
  C19      1.0000 0.66280  0.89240  0.88597  Biso   1.000  C
  C20      1.0000 0.33720  0.10760  0.11403  Biso   1.000  C
  H15      1.0000 0.64040  0.86150  0.95320  Biso   1.000  H
  H16      1.0000 0.35960  0.13850  0.04680  Biso   1.000  H
  H17      1.0000 0.71170  0.82610  0.85250  Biso   1.000  H
  H18      1.0000 0.28830  0.17390  0.14750  Biso   1.000  H
  H19      1.0000 0.57060  0.93010  0.85290  Biso   1.000  H
  H20      1.0000 0.42940  0.06990  0.14710  Biso   1.000  H
  C21      1.0000 0.70800  0.07490  0.95427  Biso   1.000  C
  C22      1.0000 0.29200  0.92510  0.04573  Biso   1.000  C
  H21      1.0000 0.68460  0.03160  0.01730  Biso   1.000  H
  H22      1.0000 0.31540  0.96840  0.98270  Biso   1.000  H
  H23      1.0000 0.61860  0.12740  0.92790  Biso   1.000  H
  H24      1.0000 0.38140  0.87260  0.07210  Biso   1.000  H
  H25      1.0000 0.78410  0.12340  0.96240  Biso   1.000  H
  H26      1.0000 0.21590  0.87660  0.03760  Biso   1.000  H
  N3       1.0000 0.91273  0.91501  0.91870  Biso   1.000  N
  N4       1.0000 0.08727  0.08499  0.08130  Biso   1.000  N
  O7       1.0000 0.93925  0.87660  0.00798  Biso   1.000  O
  O8       1.0000 0.06075  0.12340  0.99202  Biso   1.000  O
  C23      1.0000 0.00160  0.88828  0.84280  Biso   1.000  C
  C24      1.0000 0.99840  0.11172  0.15720  Biso   1.000  C
  C25      1.0000 0.14350  0.80956  0.84936  Biso   1.000  C
  C26      1.0000 0.85650  0.19044  0.15064  Biso   1.000  C
  C27      1.0000 0.18100  0.69615  0.90793  Biso   1.000  C
  C28      1.0000 0.81900  0.30385  0.09207  Biso   1.000  C
  C29      1.0000 0.08190  0.62350  0.96740  Biso   1.000  C
  C30      1.0000 0.91810  0.37650  0.03260  Biso   1.000  C
  H27      1.0000 0.14080  0.54960  0.99960  Biso   1.000  H
  H28      1.0000 0.85920  0.45040  0.00040  Biso   1.000  H
  H29      1.0000 0.00920  0.60300  0.92550  Biso   1.000  H
  H30      1.0000 0.99080  0.39700  0.07450  Biso   1.000  H
  H31      1.0000 0.03040  0.66990  0.01640  Biso   1.000  H
  H32      1.0000 0.96960  0.33010  0.98360  Biso   1.000  H
  N5       1.0000 0.32331  0.65519  0.90033  Biso   1.000  N
  N6       1.0000 0.67669  0.34481  0.09967  Biso   1.000  N
  O9       1.0000 0.38226  0.74193  0.83461  Biso   1.000  O
  O10      1.0000 0.61774  0.25807  0.16539  Biso   1.000  O
  C31      1.0000 0.27190  0.83241  0.80502  Biso   1.000  C
  C32      1.0000 0.72810  0.16759  0.19498  Biso   1.000  C
  C33      1.0000 0.31100  0.93160  0.73408  Biso   1.000  C
  C34      1.0000 0.68900  0.06840  0.26592  Biso   1.000  C
  H33      1.0000 0.41700  0.91540  0.71850  Biso   1.000  H
  H34      1.0000 0.58300  0.08460  0.28150  Biso   1.000  H
  H35      1.0000 0.28770  0.00710  0.76180  Biso   1.000  H
  H36      1.0000 0.71230  0.99290  0.23820  Biso   1.000  H
  H37      1.0000 0.25410  0.93800  0.67490  Biso   1.000  H
  H38      1.0000 0.74590  0.06200  0.32510  Biso   1.000  H
  Cu2      1.0000 0.00000  0.00000  0.50000  Biso   1.000  Cu
  O11      1.0000 0.17910  0.06461  0.51126  Biso   1.000  O
  O12      1.0000 0.82090  0.93539  0.48874  Biso   1.000  O
  C35      1.0000 0.34630  0.19850  0.49986  Biso   1.000  C
  C36      1.0000 0.65370  0.80150  0.50014  Biso   1.000  C
  F13      1.0000 0.42085  0.16706  0.42182  Biso   1.000  F
  F14      1.0000 0.57915  0.83294  0.57818  Biso   1.000  F
  F15      1.0000 0.35501  0.31221  0.50344  Biso   1.000  F
  F16      1.0000 0.64499  0.68779  0.49656  Biso   1.000  F
  F17      1.0000 0.41526  0.13460  0.57682  Biso   1.000  F
  F18      1.0000 0.58474  0.86540  0.42318  Biso   1.000  F
  C37      1.0000 0.18730  0.17490  0.49669  Biso   1.000  C
  C38      1.0000 0.81270  0.82510  0.50331  Biso   1.000  C
  C39      1.0000 0.07300  0.27150  0.47652  Biso   1.000  C
  C40      1.0000 0.92700  0.72850  0.52348  Biso   1.000  C
  H39      1.0000 0.09500  0.35080  0.46540  Biso   1.000  H
  H40      1.0000 0.90500  0.64920  0.53460  Biso   1.000  H
  C41      1.0000 0.92710  0.25401  0.47233  Biso   1.000  C
  C42      1.0000 0.07290  0.74599  0.52767  Biso   1.000  C
  C43      1.0000 0.80760  0.36250  0.44260  Biso   1.000  C
  C44      1.0000 0.19240  0.63750  0.55740  Biso   1.000  C
  F19      1.0000 0.69222  0.36362  0.50332  Biso   1.000  F
  F20      1.0000 0.30778  0.63638  0.49668  Biso   1.000  F
  F21      1.0000 0.85700  0.46150  0.43940  Biso   1.000  F
  F22      1.0000 0.14300  0.53850  0.56060  Biso   1.000  F
  F23      1.0000 0.74400  0.35940  0.36390  Biso   1.000  F
  F24      1.0000 0.25600  0.64060  0.63610  Biso   1.000  F
  O13      1.0000 0.87719  0.15695  0.48810  Biso   1.000  O
  O14      1.0000 0.12281  0.84305  0.51190  Biso   1.000  O
  F25      1.0000 0.11640  0.53540  0.22560  Biso   1.000  F
  F26      1.0000 0.88360  0.46460  0.77440  Biso   1.000  F
  F27      1.0000 0.26700  0.49200  0.34450  Biso   1.000  F
  F28      1.0000 0.73300  0.50800  0.65550  Biso   1.000  F
  F29      1.0000 0.23500  0.36140  0.25440  Biso   1.000  F
  F30      1.0000 0.76500  0.63860  0.74560  Biso   1.000  F
  F31      1.0000 0.77300  0.36010  0.34980  Biso   1.000  F
  F32      1.0000 0.22700  0.63990  0.65020  Biso   1.000  F
  F33      1.0000 0.84900  0.47150  0.44540  Biso   1.000  F
  F34      1.0000 0.15100  0.52850  0.55460  Biso   1.000  F
  F35      1.0000 0.33800  0.31700  0.71200  Biso   1.000  F
  F36      1.0000 0.66200  0.68300  0.28800  Biso   1.000  F
  F37      1.0000 0.18300  0.36700  0.82480  Biso   1.000  F
  F38      1.0000 0.81700  0.63300  0.17520  Biso   1.000  F
