data_image0
_cell_length_a       9.1439
_cell_length_b       11.3037
_cell_length_c       13.8564
_cell_angle_alpha    82.146
_cell_angle_beta     87.87
_cell_angle_gamma    80.158

_symmetry_space_group_name_H-M    "P 1"
_symmetry_int_tables_number       1

loop_
  _symmetry_equiv_pos_as_xyz
  'x, y, z'

loop_
  _atom_site_label
  _atom_site_occupancy
  _atom_site_fract_x
  _atom_site_fract_y
  _atom_site_fract_z
  _atom_site_thermal_displace_type
  _atom_site_B_iso_or_equiv
  _atom_site_type_symbol
  Cu1      1.0000 0.50000  0.50000  0.00000  Biso   1.000  Cu
  O1       1.0000 0.58818  0.61396  0.06492  Biso   1.000  O
  O2       1.0000 0.41182  0.38604  0.93508  Biso   1.000  O
  C1       1.0000 0.68370  0.68850  0.19360  Biso   1.000  C
  C2       1.0000 0.31630  0.31150  0.80640  Biso   1.000  C
  F1       1.0000 0.82800  0.65000  0.16280  Biso   1.000  F
  F2       1.0000 0.17200  0.35000  0.83720  Biso   1.000  F
  F3       1.0000 0.68155  0.68131  0.29045  Biso   1.000  F
  F4       1.0000 0.31845  0.31869  0.70955  Biso   1.000  F
  F5       1.0000 0.65083  0.80651  0.15865  Biso   1.000  F
  F6       1.0000 0.34917  0.19349  0.84135  Biso   1.000  F
  C3       1.0000 0.57377  0.61806  0.15517  Biso   1.000  C
  C4       1.0000 0.42623  0.38194  0.84483  Biso   1.000  C
  C5       1.0000 0.47087  0.57112  0.21982  Biso   1.000  C
  C6       1.0000 0.52913  0.42888  0.78018  Biso   1.000  C
  H1       1.0000 0.47230  0.58070  0.28680  Biso   1.000  H
  H2       1.0000 0.52770  0.41930  0.71320  Biso   1.000  H
  C7       1.0000 0.36572  0.51023  0.18686  Biso   1.000  C
  C8       1.0000 0.63428  0.48977  0.81314  Biso   1.000  C
  C9       1.0000 0.24450  0.47187  0.25757  Biso   1.000  C
  C10      1.0000 0.75550  0.52813  0.74243  Biso   1.000  C
  F7       1.0000 0.25533  0.35199  0.27129  Biso   1.000  F
  F8       1.0000 0.74467  0.64801  0.72871  Biso   1.000  F
  F9       1.0000 0.11600  0.50300  0.22590  Biso   1.000  F
  F10      1.0000 0.88400  0.49700  0.77410  Biso   1.000  F
  F11      1.0000 0.24400  0.51300  0.34700  Biso   1.000  F
  F12      1.0000 0.75600  0.48700  0.65300  Biso   1.000  F
  O3       1.0000 0.35440  0.48178  0.10363  Biso   1.000  O
  O4       1.0000 0.64560  0.51822  0.89637  Biso   1.000  O
  O5       1.0000 0.00695  0.05860  0.32577  Biso   1.000  O
  O6       1.0000 0.99305  0.94140  0.67423  Biso   1.000  O
  N1       1.0000 0.05942  0.04960  0.23970  Biso   1.000  N
  N2       1.0000 0.94058  0.95040  0.76030  Biso   1.000  N
  C11      1.0000 0.19109  0.95631  0.21783  Biso   1.000  C
  C12      1.0000 0.80891  0.04369  0.78217  Biso   1.000  C
  C13      1.0000 0.13010  0.83758  0.21972  Biso   1.000  C
  C14      1.0000 0.86990  0.16242  0.78028  Biso   1.000  C
  H3       1.0000 0.10540  0.80740  0.28700  Biso   1.000  H
  H4       1.0000 0.89460  0.19260  0.71300  Biso   1.000  H
  H5       1.0000 0.04070  0.85230  0.18000  Biso   1.000  H
  H6       1.0000 0.95930  0.14770  0.82000  Biso   1.000  H
  H7       1.0000 0.20530  0.77730  0.19330  Biso   1.000  H
  H8       1.0000 0.79470  0.22270  0.80670  Biso   1.000  H
  C15      1.0000 0.30854  0.94317  0.29486  Biso   1.000  C
  C16      1.0000 0.69146  0.05683  0.70514  Biso   1.000  C
  H9       1.0000 0.34740  0.01920  0.29180  Biso   1.000  H
  H10      1.0000 0.65260  0.98080  0.70820  Biso   1.000  H
  H11      1.0000 0.26450  0.92410  0.35950  Biso   1.000  H
  H12      1.0000 0.73550  0.07590  0.64050  Biso   1.000  H
  H13      1.0000 0.38960  0.87770  0.28310  Biso   1.000  H
  H14      1.0000 0.61040  0.12230  0.71690  Biso   1.000  H
  C17      1.0000 0.23441  0.01276  0.11497  Biso   1.000  C
  C18      1.0000 0.76559  0.98724  0.88503  Biso   1.000  C
  C19      1.0000 0.33772  0.10630  0.11440  Biso   1.000  C
  C20      1.0000 0.66228  0.89370  0.88560  Biso   1.000  C
  H15      1.0000 0.36030  0.13740  0.04700  Biso   1.000  H
  H16      1.0000 0.63970  0.86260  0.95300  Biso   1.000  H
  H17      1.0000 0.28890  0.17330  0.14830  Biso   1.000  H
  H18      1.0000 0.71110  0.82670  0.85170  Biso   1.000  H
  H19      1.0000 0.43000  0.06800  0.14760  Biso   1.000  H
  H20      1.0000 0.57000  0.93200  0.85240  Biso   1.000  H
  C21      1.0000 0.29257  0.92225  0.04463  Biso   1.000  C
  C22      1.0000 0.70743  0.07775  0.95537  Biso   1.000  C
  H21      1.0000 0.31590  0.96610  0.98150  Biso   1.000  H
  H22      1.0000 0.68410  0.03390  0.01850  Biso   1.000  H
  H23      1.0000 0.38250  0.86950  0.07100  Biso   1.000  H
  H24      1.0000 0.61750  0.13050  0.92900  Biso   1.000  H
  H25      1.0000 0.21670  0.87300  0.03620  Biso   1.000  H
  H26      1.0000 0.78330  0.12700  0.96380  Biso   1.000  H
  N3       1.0000 0.08677  0.08415  0.08050  Biso   1.000  N
  N4       1.0000 0.91323  0.91585  0.91950  Biso   1.000  N
  O7       1.0000 0.06059  0.12385  0.99130  Biso   1.000  O
  O8       1.0000 0.93941  0.87615  0.00870  Biso   1.000  O
  C23      1.0000 0.99760  0.11051  0.15741  Biso   1.000  C
  C24      1.0000 0.00240  0.88949  0.84259  Biso   1.000  C
  C25      1.0000 0.85511  0.19021  0.15150  Biso   1.000  C
  C26      1.0000 0.14489  0.80979  0.84850  Biso   1.000  C
  C27      1.0000 0.81716  0.30496  0.09340  Biso   1.000  C
  C28      1.0000 0.18284  0.69504  0.90660  Biso   1.000  C
  C29      1.0000 0.91710  0.37863  0.03379  Biso   1.000  C
  C30      1.0000 0.08290  0.62137  0.96621  Biso   1.000  C
  H27      1.0000 0.85800  0.45300  0.00130  Biso   1.000  H
  H28      1.0000 0.14200  0.54700  0.99870  Biso   1.000  H
  H29      1.0000 0.98950  0.39950  0.07620  Biso   1.000  H
  H30      1.0000 0.01050  0.60050  0.92380  Biso   1.000  H
  H31      1.0000 0.96940  0.33170  0.98470  Biso   1.000  H
  H32      1.0000 0.03060  0.66830  0.01530  Biso   1.000  H
  N5       1.0000 0.67465  0.34624  0.10172  Biso   1.000  N
  N6       1.0000 0.32535  0.65376  0.89828  Biso   1.000  N
  O9       1.0000 0.61558  0.25858  0.16760  Biso   1.000  O
  O10      1.0000 0.38442  0.74142  0.83240  Biso   1.000  O
  C31      1.0000 0.72636  0.16730  0.19664  Biso   1.000  C
  C32      1.0000 0.27364  0.83270  0.80336  Biso   1.000  C
  C33      1.0000 0.68801  0.06731  0.26821  Biso   1.000  C
  C34      1.0000 0.31199  0.93269  0.73179  Biso   1.000  C
  H33      1.0000 0.58170  0.08320  0.28400  Biso   1.000  H
  H34      1.0000 0.41830  0.91680  0.71600  Biso   1.000  H
  H35      1.0000 0.71180  0.99100  0.24050  Biso   1.000  H
  H36      1.0000 0.28820  0.00900  0.75950  Biso   1.000  H
  H37      1.0000 0.74510  0.06150  0.32760  Biso   1.000  H
  H38      1.0000 0.25490  0.93850  0.67240  Biso   1.000  H
  Cu2      1.0000 0.00000  0.00000  0.50000  Biso   1.000  Cu
  O11      1.0000 0.18005  0.06557  0.51053  Biso   1.000  O
  O12      1.0000 0.81995  0.93443  0.48947  Biso   1.000  O
  C35      1.0000 0.34846  0.20043  0.49755  Biso   1.000  C
  C36      1.0000 0.65154  0.79957  0.50245  Biso   1.000  C
  F13      1.0000 0.42321  0.16676  0.41902  Biso   1.000  F
  F14      1.0000 0.57679  0.83324  0.58098  Biso   1.000  F
  F15      1.0000 0.35688  0.31650  0.50004  Biso   1.000  F
  F16      1.0000 0.64312  0.68350  0.49996  Biso   1.000  F
  F17      1.0000 0.41831  0.13649  0.57534  Biso   1.000  F
  F18      1.0000 0.58169  0.86351  0.42466  Biso   1.000  F
  C37      1.0000 0.18796  0.17684  0.49552  Biso   1.000  C
  C38      1.0000 0.81204  0.82316  0.50448  Biso   1.000  C
  C39      1.0000 0.07317  0.27457  0.47509  Biso   1.000  C
  C40      1.0000 0.92683  0.72543  0.52491  Biso   1.000  C
  H39      1.0000 0.09500  0.35460  0.46390  Biso   1.000  H
  H40      1.0000 0.90500  0.64540  0.53610  Biso   1.000  H
  C41      1.0000 0.92675  0.25632  0.47096  Biso   1.000  C
  C42      1.0000 0.07325  0.74368  0.52904  Biso   1.000  C
  C43      1.0000 0.80640  0.36591  0.43953  Biso   1.000  C
  C44      1.0000 0.19360  0.63409  0.56047  Biso   1.000  C
  F19      1.0000 0.68810  0.36692  0.49875  Biso   1.000  F
  F20      1.0000 0.31190  0.63308  0.50125  Biso   1.000  F
  F21      1.0000 0.86600  0.47210  0.43400  Biso   1.000  F
  F22      1.0000 0.13400  0.52790  0.56600  Biso   1.000  F
  F23      1.0000 0.76187  0.36147  0.35025  Biso   1.000  F
  F24      1.0000 0.23813  0.63853  0.64975  Biso   1.000  F
  O13      1.0000 0.87630  0.15858  0.48769  Biso   1.000  O
  O14      1.0000 0.12370  0.84142  0.51231  Biso   1.000  O
  F25      1.0000 0.10600  0.53050  0.21700  Biso   1.000  F
  F26      1.0000 0.89400  0.46950  0.78300  Biso   1.000  F
  F27      1.0000 0.25300  0.50300  0.34200  Biso   1.000  F
  F28      1.0000 0.74700  0.49700  0.65800  Biso   1.000  F
  F29      1.0000 0.84100  0.47100  0.44370  Biso   1.000  F
  F30      1.0000 0.15900  0.52900  0.55630  Biso   1.000  F
  F31      1.0000 0.18600  0.35250  0.83100  Biso   1.000  F
  F32      1.0000 0.81400  0.64750  0.16900  Biso   1.000  F
