data_image0
_cell_length_a       12.1166
_cell_length_b       13.6844
_cell_length_c       16.211
_cell_angle_alpha    72.207
_cell_angle_beta     69.928
_cell_angle_gamma    84.605

_symmetry_space_group_name_H-M    "P 1"
_symmetry_int_tables_number       1

loop_
  _symmetry_equiv_pos_as_xyz
  'x, y, z'

loop_
  _atom_site_label
  _atom_site_occupancy
  _atom_site_fract_x
  _atom_site_fract_y
  _atom_site_fract_z
  _atom_site_thermal_displace_type
  _atom_site_B_iso_or_equiv
  _atom_site_type_symbol
  Cu1      1.0000 0.00000  0.00000  0.00000  Biso   1.000  Cu
  O1       1.0000 0.89630  0.10483  0.03918  Biso   1.000  O
  O2       1.0000 0.10370  0.89517  0.96082  Biso   1.000  O
  C1       1.0000 0.82130  0.24120  0.09660  Biso   1.000  C
  C2       1.0000 0.17870  0.75880  0.90340  Biso   1.000  C
  F1       1.0000 0.82360  0.30270  0.01620  Biso   1.000  F
  F2       1.0000 0.17640  0.69730  0.98380  Biso   1.000  F
  F3       1.0000 0.83920  0.29970  0.14250  Biso   1.000  F
  F4       1.0000 0.16080  0.70030  0.85750  Biso   1.000  F
  F5       1.0000 0.71620  0.20250  0.13990  Biso   1.000  F
  F6       1.0000 0.28380  0.79750  0.86010  Biso   1.000  F
  C3       1.0000 0.91240  0.15740  0.08490  Biso   1.000  C
  C4       1.0000 0.08760  0.84260  0.91510  Biso   1.000  C
  C5       1.0000 0.99800  0.14480  0.12620  Biso   1.000  C
  C6       1.0000 0.00200  0.85520  0.87380  Biso   1.000  C
  H1       1.0000 0.00010  0.18870  0.15960  Biso   1.000  H
  H2       1.0000 0.99990  0.81130  0.84040  Biso   1.000  H
  C7       1.0000 0.07980  0.06870  0.11830  Biso   1.000  C
  C8       1.0000 0.92020  0.93130  0.88170  Biso   1.000  C
  C9       1.0000 0.17130  0.05700  0.16700  Biso   1.000  C
  C10      1.0000 0.82870  0.94300  0.83300  Biso   1.000  C
  F7       1.0000 0.20810  0.96870  0.18990  Biso   1.000  F
  F8       1.0000 0.79190  0.03130  0.81010  Biso   1.000  F
  F9       1.0000 0.12970  0.09100  0.23810  Biso   1.000  F
  F10      1.0000 0.87030  0.90900  0.76190  Biso   1.000  F
  F11      1.0000 0.26190  0.11420  0.11160  Biso   1.000  F
  F12      1.0000 0.73810  0.88580  0.88840  Biso   1.000  F
  O3       1.0000 0.09160  0.00293  0.07628  Biso   1.000  O
  O4       1.0000 0.90840  0.99707  0.92372  Biso   1.000  O
  Cu2      1.0000 0.50000  0.50000  0.50000  Biso   1.000  Cu
  O5       1.0000 0.36428  0.56221  0.46880  Biso   1.000  O
  O6       1.0000 0.63572  0.43779  0.53120  Biso   1.000  O
  C11      1.0000 0.19440  0.57940  0.43050  Biso   1.000  C
  C12      1.0000 0.80560  0.42060  0.56950  Biso   1.000  C
  F13      1.0000 0.21390  0.67790  0.38270  Biso   1.000  F
  F14      1.0000 0.78610  0.32210  0.61730  Biso   1.000  F
  F15      1.0000 0.12600  0.57810  0.51354  Biso   1.000  F
  F16      1.0000 0.87400  0.42190  0.48646  Biso   1.000  F
  F17      1.0000 0.13340  0.54000  0.39510  Biso   1.000  F
  F18      1.0000 0.86660  0.46000  0.60490  Biso   1.000  F
  C13      1.0000 0.30940  0.52450  0.43190  Biso   1.000  C
  C14      1.0000 0.69060  0.47550  0.56810  Biso   1.000  C
  C15      1.0000 0.34200  0.44500  0.39390  Biso   1.000  C
  C16      1.0000 0.65800  0.55500  0.60610  Biso   1.000  C
  H3       1.0000 0.29330  0.42560  0.36790  Biso   1.000  H
  H4       1.0000 0.70670  0.57440  0.63210  Biso   1.000  H
  C17      1.0000 0.44640  0.39260  0.39330  Biso   1.000  C
  C18      1.0000 0.55360  0.60740  0.60670  Biso   1.000  C
  C19      1.0000 0.48070  0.30700  0.34840  Biso   1.000  C
  C20      1.0000 0.51930  0.69300  0.65160  Biso   1.000  C
  F19      1.0000 0.40320  0.28950  0.31320  Biso   1.000  F
  F20      1.0000 0.59680  0.71050  0.68680  Biso   1.000  F
  F21      1.0000 0.58190  0.32810  0.28030  Biso   1.000  F
  F22      1.0000 0.41810  0.67190  0.71970  Biso   1.000  F
  F23      1.0000 0.49370  0.21910  0.40790  Biso   1.000  F
  F24      1.0000 0.50630  0.78090  0.59210  Biso   1.000  F
  O7       1.0000 0.52038  0.40752  0.42651  Biso   1.000  O
  O8       1.0000 0.47962  0.59248  0.57349  Biso   1.000  O
  Cu3      1.0000 0.10277  0.35053  0.26252  Biso   1.000  Cu
  Cu4      1.0000 0.89723  0.64947  0.73748  Biso   1.000  Cu
  O9       1.0000 0.12150  0.31350  0.38237  Biso   1.000  O
  O10      1.0000 0.87850  0.68650  0.61763  Biso   1.000  O
  C21      1.0000 0.10180  0.22890  0.53570  Biso   1.000  C
  C22      1.0000 0.89820  0.77110  0.46430  Biso   1.000  C
  F25      1.0000 0.04110  0.15840  0.60911  Biso   1.000  F
  F26      1.0000 0.95890  0.84160  0.39089  Biso   1.000  F
  F27      1.0000 0.21390  0.20310  0.51755  Biso   1.000  F
  F28      1.0000 0.78610  0.79690  0.48245  Biso   1.000  F
  F29      1.0000 0.09180  0.31660  0.55836  Biso   1.000  F
  F30      1.0000 0.90820  0.68340  0.44164  Biso   1.000  F
  C23      1.0000 0.06370  0.24450  0.45190  Biso   1.000  C
  C24      1.0000 0.93630  0.75550  0.54810  Biso   1.000  C
  C25      1.0000 0.97320  0.18540  0.46040  Biso   1.000  C
  C26      1.0000 0.02680  0.81460  0.53960  Biso   1.000  C
  H5       1.0000 0.93770  0.13710  0.51630  Biso   1.000  H
  H6       1.0000 0.06230  0.86290  0.48370  Biso   1.000  H
  C27      1.0000 0.93310  0.19540  0.38820  Biso   1.000  C
  C28      1.0000 0.06690  0.80460  0.61180  Biso   1.000  C
  C29      1.0000 0.82740  0.12780  0.40390  Biso   1.000  C
  C30      1.0000 0.17260  0.87220  0.59610  Biso   1.000  C
  F31      1.0000 0.78710  0.06630  0.48440  Biso   1.000  F
  F32      1.0000 0.21290  0.93370  0.51560  Biso   1.000  F
  F33      1.0000 0.86860  0.06450  0.35370  Biso   1.000  F
  F34      1.0000 0.13140  0.93550  0.64630  Biso   1.000  F
  F35      1.0000 0.74910  0.18000  0.37900  Biso   1.000  F
  F36      1.0000 0.25090  0.82000  0.62100  Biso   1.000  F
  O11      1.0000 0.97250  0.25280  0.30851  Biso   1.000  O
  O12      1.0000 0.02750  0.74720  0.69149  Biso   1.000  O
  O13      1.0000 0.24590  0.43100  0.21885  Biso   1.000  O
  O14      1.0000 0.75410  0.56900  0.78115  Biso   1.000  O
  C31      1.0000 0.38920  0.55390  0.12430  Biso   1.000  C
  C32      1.0000 0.61080  0.44610  0.87570  Biso   1.000  C
  F37      1.0000 0.47590  0.50350  0.15110  Biso   1.000  F
  F38      1.0000 0.52410  0.49650  0.84890  Biso   1.000  F
  F39      1.0000 0.35550  0.60770  0.18530  Biso   1.000  F
  F40      1.0000 0.64450  0.39230  0.81470  Biso   1.000  F
  F41      1.0000 0.43200  0.61800  0.04340  Biso   1.000  F
  F42      1.0000 0.56800  0.38200  0.95660  Biso   1.000  F
  C33      1.0000 0.29440  0.48170  0.13730  Biso   1.000  C
  C34      1.0000 0.70560  0.51830  0.86270  Biso   1.000  C
  C35      1.0000 0.27260  0.47620  0.05990  Biso   1.000  C
  C36      1.0000 0.72740  0.52380  0.94010  Biso   1.000  C
  H7       1.0000 0.31500  0.51860  0.00240  Biso   1.000  H
  H8       1.0000 0.68500  0.48140  0.99760  Biso   1.000  H
  C37      1.0000 0.18950  0.40920  0.06660  Biso   1.000  C
  C38      1.0000 0.81050  0.59080  0.93340  Biso   1.000  C
  C39      1.0000 0.18070  0.39680  0.97870  Biso   1.000  C
  C40      1.0000 0.81930  0.60320  0.02130  Biso   1.000  C
  F43      1.0000 0.26650  0.45800  0.89970  Biso   1.000  F
  F44      1.0000 0.73350  0.54200  0.10030  Biso   1.000  F
  F45      1.0000 0.19900  0.30840  0.97140  Biso   1.000  F
  F46      1.0000 0.80100  0.69160  0.02860  Biso   1.000  F
  F47      1.0000 0.08180  0.42530  0.96450  Biso   1.000  F
  F48      1.0000 0.91820  0.57470  0.03550  Biso   1.000  F
  O15      1.0000 0.11920  0.35140  0.13823  Biso   1.000  O
  O16      1.0000 0.88080  0.64860  0.86177  Biso   1.000  O
  O17      1.0000 0.88330  0.84166  0.11011  Biso   1.000  O
  O18      1.0000 0.11670  0.15834  0.88989  Biso   1.000  O
  N1       1.0000 0.79710  0.80400  0.18399  Biso   1.000  N
  N2       1.0000 0.20290  0.19600  0.81601  Biso   1.000  N
  C41      1.0000 0.68880  0.86430  0.21470  Biso   1.000  C
  C42      1.0000 0.31120  0.13570  0.78530  Biso   1.000  C
  C43      1.0000 0.65260  0.92620  0.13300  Biso   1.000  C
  C44      1.0000 0.34740  0.07380  0.86700  Biso   1.000  C
  H9       1.0000 0.70980  0.97950  0.09450  Biso   1.000  H
  H10      1.0000 0.29020  0.02050  0.90550  Biso   1.000  H
  H11      1.0000 0.57730  0.95640  0.15430  Biso   1.000  H
  H12      1.0000 0.42270  0.04360  0.84570  Biso   1.000  H
  H13      1.0000 0.64760  0.88190  0.09840  Biso   1.000  H
  H14      1.0000 0.35240  0.11810  0.90160  Biso   1.000  H
  C45      1.0000 0.72080  0.93440  0.26040  Biso   1.000  C
  C46      1.0000 0.27920  0.06560  0.73960  Biso   1.000  C
  H15      1.0000 0.77420  0.98710  0.21450  Biso   1.000  H
  H16      1.0000 0.22580  0.01290  0.78550  Biso   1.000  H
  H17      1.0000 0.75760  0.89490  0.30370  Biso   1.000  H
  H18      1.0000 0.24240  0.10510  0.69630  Biso   1.000  H
  H19      1.0000 0.65090  0.96520  0.29170  Biso   1.000  H
  H20      1.0000 0.34910  0.03480  0.70830  Biso   1.000  H
  C47      1.0000 0.60210  0.77470  0.28390  Biso   1.000  C
  C48      1.0000 0.39790  0.22530  0.71610  Biso   1.000  C
  C49      1.0000 0.51670  0.80150  0.36730  Biso   1.000  C
  C50      1.0000 0.48330  0.19850  0.63270  Biso   1.000  C
  H21      1.0000 0.46620  0.74350  0.40610  Biso   1.000  H
  H22      1.0000 0.53380  0.25650  0.59390  Biso   1.000  H
  H23      1.0000 0.47020  0.85880  0.34770  Biso   1.000  H
  H24      1.0000 0.52980  0.14120  0.65230  Biso   1.000  H
  H25      1.0000 0.55970  0.81900  0.40080  Biso   1.000  H
  H26      1.0000 0.44030  0.18100  0.59920  Biso   1.000  H
  C51      1.0000 0.53780  0.72770  0.23920  Biso   1.000  C
  C52      1.0000 0.46220  0.27230  0.76080  Biso   1.000  C
  H27      1.0000 0.48640  0.67360  0.28510  Biso   1.000  H
  H28      1.0000 0.51360  0.32640  0.71490  Biso   1.000  H
  H29      1.0000 0.59390  0.70040  0.19370  Biso   1.000  H
  H30      1.0000 0.40610  0.29960  0.80630  Biso   1.000  H
  H31      1.0000 0.49250  0.77960  0.21050  Biso   1.000  H
  H32      1.0000 0.50750  0.22040  0.78950  Biso   1.000  H
  N3       1.0000 0.68740  0.69650  0.31127  Biso   1.000  N
  N4       1.0000 0.31260  0.30350  0.68873  Biso   1.000  N
  O19      1.0000 0.65890  0.62069  0.38398  Biso   1.000  O
  O20      1.0000 0.34110  0.37931  0.61602  Biso   1.000  O
  C53      1.0000 0.79550  0.71170  0.24580  Biso   1.000  C
  C54      1.0000 0.20450  0.28830  0.75420  Biso   1.000  C
  C55      1.0000 0.89310  0.64260  0.24510  Biso   1.000  C
  C56      1.0000 0.10690  0.35740  0.75490  Biso   1.000  C
  C57      1.0000 0.89140  0.53370  0.26400  Biso   1.000  C
  C58      1.0000 0.10860  0.46630  0.73600  Biso   1.000  C
  C59      1.0000 0.79140  0.46200  0.29100  Biso   1.000  C
  C60      1.0000 0.20860  0.53800  0.70900  Biso   1.000  C
  H33      1.0000 0.81980  0.39300  0.29860  Biso   1.000  H
  H34      1.0000 0.18020  0.60700  0.70140  Biso   1.000  H
  H35      1.0000 0.75570  0.47990  0.24400  Biso   1.000  H
  H36      1.0000 0.24430  0.52010  0.75600  Biso   1.000  H
  H37      1.0000 0.73440  0.46690  0.34770  Biso   1.000  H
  H38      1.0000 0.26560  0.53310  0.65230  Biso   1.000  H
  N5       1.0000 0.99820  0.49780  0.25313  Biso   1.000  N
  N6       1.0000 0.00180  0.50220  0.74687  Biso   1.000  N
  O21      1.0000 0.07220  0.58281  0.22690  Biso   1.000  O
  O22      1.0000 0.92780  0.41719  0.77310  Biso   1.000  O
  C61      1.0000 0.00700  0.66790  0.22290  Biso   1.000  C
  C62      1.0000 0.99300  0.33210  0.77710  Biso   1.000  C
  C63      1.0000 0.07190  0.76530  0.19770  Biso   1.000  C
  C64      1.0000 0.92810  0.23470  0.80230  Biso   1.000  C
  H39      1.0000 0.15400  0.75130  0.18680  Biso   1.000  H
  H40      1.0000 0.84600  0.24870  0.81320  Biso   1.000  H
  H41      1.0000 0.04230  0.79600  0.24690  Biso   1.000  H
  H42      1.0000 0.95770  0.20400  0.75310  Biso   1.000  H
  H43      1.0000 0.06140  0.81150  0.14300  Biso   1.000  H
  H44      1.0000 0.93860  0.18850  0.85700  Biso   1.000  H
  F49      1.0000 0.72210  0.95300  0.88710  Biso   1.000  F
  F50      1.0000 0.27790  0.04700  0.11290  Biso   1.000  F
  F51      1.0000 0.84800  0.02800  0.76460  Biso   1.000  F
  F52      1.0000 0.15200  0.97200  0.23540  Biso   1.000  F
  F53      1.0000 0.82100  0.87180  0.80040  Biso   1.000  F
  F54      1.0000 0.17900  0.12820  0.19960  Biso   1.000  F
  F55      1.0000 0.16100  0.95730  0.54700  Biso   1.000  F
  F56      1.0000 0.83900  0.04270  0.45300  Biso   1.000  F
  F57      1.0000 0.19500  0.86900  0.66300  Biso   1.000  F
  F58      1.0000 0.80500  0.13100  0.33700  Biso   1.000  F
  F59      1.0000 0.26730  0.83800  0.54100  Biso   1.000  F
  F60      1.0000 0.73270  0.16200  0.45900  Biso   1.000  F
  F61      1.0000 0.55200  0.39900  0.96680  Biso   1.000  F
  F62      1.0000 0.44800  0.60100  0.03320  Biso   1.000  F
  F63      1.0000 0.65300  0.37210  0.84340  Biso   1.000  F
  F64      1.0000 0.34700  0.62790  0.15660  Biso   1.000  F
  F65      1.0000 0.76600  0.68900  0.03400  Biso   1.000  F
  F66      1.0000 0.23400  0.31100  0.96600  Biso   1.000  F
  F67      1.0000 0.92700  0.61630  0.01190  Biso   1.000  F
  F68      1.0000 0.07300  0.38370  0.98810  Biso   1.000  F
  F69      1.0000 0.77930  0.52880  0.08880  Biso   1.000  F
  F70      1.0000 0.22070  0.47120  0.91120  Biso   1.000  F
