data_image0
_cell_length_a       9.1524
_cell_length_b       11.3386
_cell_length_c       13.8884
_cell_angle_alpha    82.044
_cell_angle_beta     87.842
_cell_angle_gamma    80.18

_symmetry_space_group_name_H-M    "P 1"
_symmetry_int_tables_number       1

loop_
  _symmetry_equiv_pos_as_xyz
  'x, y, z'

loop_
  _atom_site_label
  _atom_site_occupancy
  _atom_site_fract_x
  _atom_site_fract_y
  _atom_site_fract_z
  _atom_site_thermal_displace_type
  _atom_site_B_iso_or_equiv
  _atom_site_type_symbol
  Cu1      1.0000 0.50000  0.50000  0.00000  Biso   1.000  Cu
  O1       1.0000 0.58840  0.61279  0.06523  Biso   1.000  O
  O2       1.0000 0.41160  0.38721  0.93477  Biso   1.000  O
  C1       1.0000 0.68270  0.68691  0.19373  Biso   1.000  C
  C2       1.0000 0.31730  0.31309  0.80627  Biso   1.000  C
  F1       1.0000 0.82000  0.65130  0.15820  Biso   1.000  F
  F2       1.0000 0.18000  0.34870  0.84180  Biso   1.000  F
  F3       1.0000 0.65079  0.80401  0.15911  Biso   1.000  F
  F4       1.0000 0.34921  0.19599  0.84089  Biso   1.000  F
  F5       1.0000 0.69200  0.67200  0.28570  Biso   1.000  F
  F6       1.0000 0.30800  0.32800  0.71430  Biso   1.000  F
  C3       1.0000 0.57360  0.61702  0.15514  Biso   1.000  C
  C4       1.0000 0.42640  0.38298  0.84486  Biso   1.000  C
  C5       1.0000 0.47080  0.56988  0.21953  Biso   1.000  C
  C6       1.0000 0.52920  0.43012  0.78047  Biso   1.000  C
  H1       1.0000 0.47190  0.57940  0.28640  Biso   1.000  H
  H2       1.0000 0.52810  0.42060  0.71360  Biso   1.000  H
  C7       1.0000 0.36630  0.50889  0.18670  Biso   1.000  C
  C8       1.0000 0.63370  0.49111  0.81330  Biso   1.000  C
  C9       1.0000 0.24520  0.47070  0.25694  Biso   1.000  C
  C10      1.0000 0.75480  0.52930  0.74306  Biso   1.000  C
  F7       1.0000 0.26600  0.35100  0.28020  Biso   1.000  F
  F8       1.0000 0.73400  0.64900  0.71980  Biso   1.000  F
  F9       1.0000 0.11600  0.50140  0.21960  Biso   1.000  F
  F10      1.0000 0.88400  0.49860  0.78040  Biso   1.000  F
  F11      1.0000 0.24000  0.50870  0.34340  Biso   1.000  F
  F12      1.0000 0.76000  0.49130  0.65660  Biso   1.000  F
  O3       1.0000 0.35469  0.48114  0.10352  Biso   1.000  O
  O4       1.0000 0.64531  0.51886  0.89648  Biso   1.000  O
  O5       1.0000 0.99249  0.94068  0.67441  Biso   1.000  O
  O6       1.0000 0.00751  0.05932  0.32559  Biso   1.000  O
  N1       1.0000 0.94006  0.94978  0.76039  Biso   1.000  N
  N2       1.0000 0.05994  0.05022  0.23961  Biso   1.000  N
  C11      1.0000 0.80844  0.04251  0.78177  Biso   1.000  C
  C12      1.0000 0.19156  0.95749  0.21823  Biso   1.000  C
  C13      1.0000 0.86950  0.16096  0.77976  Biso   1.000  C
  C14      1.0000 0.13050  0.83904  0.22024  Biso   1.000  C
  H3       1.0000 0.89420  0.19120  0.71260  Biso   1.000  H
  H4       1.0000 0.10580  0.80880  0.28740  Biso   1.000  H
  H5       1.0000 0.95880  0.14620  0.81930  Biso   1.000  H
  H6       1.0000 0.04120  0.85380  0.18070  Biso   1.000  H
  H7       1.0000 0.79440  0.22110  0.80610  Biso   1.000  H
  H8       1.0000 0.20560  0.77890  0.19390  Biso   1.000  H
  C15      1.0000 0.69119  0.05543  0.70527  Biso   1.000  C
  C16      1.0000 0.30881  0.94457  0.29473  Biso   1.000  C
  H9       1.0000 0.65260  0.97950  0.70850  Biso   1.000  H
  H10      1.0000 0.34740  0.02050  0.29150  Biso   1.000  H
  H11      1.0000 0.73500  0.07460  0.64070  Biso   1.000  H
  H12      1.0000 0.26500  0.92540  0.35930  Biso   1.000  H
  H13      1.0000 0.61010  0.12060  0.71710  Biso   1.000  H
  H14      1.0000 0.38990  0.87940  0.28290  Biso   1.000  H
  C17      1.0000 0.76544  0.98662  0.88496  Biso   1.000  C
  C18      1.0000 0.23456  0.01338  0.11504  Biso   1.000  C
  C19      1.0000 0.66200  0.89331  0.88561  Biso   1.000  C
  C20      1.0000 0.33800  0.10669  0.11439  Biso   1.000  C
  H15      1.0000 0.63930  0.86220  0.95290  Biso   1.000  H
  H16      1.0000 0.36070  0.13780  0.04710  Biso   1.000  H
  H17      1.0000 0.71070  0.82650  0.85180  Biso   1.000  H
  H18      1.0000 0.28930  0.17350  0.14820  Biso   1.000  H
  H19      1.0000 0.56980  0.93160  0.85250  Biso   1.000  H
  H20      1.0000 0.43020  0.06840  0.14750  Biso   1.000  H
  C21      1.0000 0.70790  0.07667  0.95476  Biso   1.000  C
  C22      1.0000 0.29210  0.92333  0.04524  Biso   1.000  C
  H21      1.0000 0.68450  0.03300  0.01790  Biso   1.000  H
  H22      1.0000 0.31550  0.96700  0.98210  Biso   1.000  H
  H23      1.0000 0.61810  0.12940  0.92840  Biso   1.000  H
  H24      1.0000 0.38190  0.87060  0.07160  Biso   1.000  H
  H25      1.0000 0.78380  0.12560  0.96300  Biso   1.000  H
  H26      1.0000 0.21620  0.87440  0.03700  Biso   1.000  H
  N3       1.0000 0.91289  0.91529  0.91916  Biso   1.000  N
  N4       1.0000 0.08711  0.08471  0.08084  Biso   1.000  N
  O7       1.0000 0.93928  0.87622  0.00837  Biso   1.000  O
  O8       1.0000 0.06072  0.12378  0.99163  Biso   1.000  O
  C23      1.0000 0.00193  0.88908  0.84252  Biso   1.000  C
  C24      1.0000 0.99807  0.11092  0.15748  Biso   1.000  C
  C25      1.0000 0.14450  0.80975  0.84879  Biso   1.000  C
  C26      1.0000 0.85550  0.19025  0.15121  Biso   1.000  C
  C27      1.0000 0.18226  0.69558  0.90702  Biso   1.000  C
  C28      1.0000 0.81774  0.30442  0.09298  Biso   1.000  C
  C29      1.0000 0.08250  0.62227  0.96663  Biso   1.000  C
  C30      1.0000 0.91750  0.37773  0.03337  Biso   1.000  C
  H27      1.0000 0.14150  0.54810  0.99900  Biso   1.000  H
  H28      1.0000 0.85850  0.45190  0.00100  Biso   1.000  H
  H29      1.0000 0.01000  0.60150  0.92440  Biso   1.000  H
  H30      1.0000 0.99000  0.39850  0.07560  Biso   1.000  H
  H31      1.0000 0.03050  0.66900  0.01560  Biso   1.000  H
  H32      1.0000 0.96950  0.33100  0.98440  Biso   1.000  H
  N5       1.0000 0.32438  0.65449  0.89901  Biso   1.000  N
  N6       1.0000 0.67562  0.34551  0.10099  Biso   1.000  N
  O9       1.0000 0.38370  0.74161  0.83334  Biso   1.000  O
  O10      1.0000 0.61630  0.25839  0.16666  Biso   1.000  O
  C31      1.0000 0.27292  0.83265  0.80379  Biso   1.000  C
  C32      1.0000 0.72708  0.16735  0.19621  Biso   1.000  C
  C33      1.0000 0.31178  0.93237  0.73250  Biso   1.000  C
  C34      1.0000 0.68822  0.06763  0.26750  Biso   1.000  C
  H33      1.0000 0.41800  0.91630  0.71690  Biso   1.000  H
  H34      1.0000 0.58200  0.08370  0.28310  Biso   1.000  H
  H35      1.0000 0.28830  0.00840  0.76020  Biso   1.000  H
  H36      1.0000 0.71170  0.99160  0.23980  Biso   1.000  H
  H37      1.0000 0.25480  0.93850  0.67320  Biso   1.000  H
  H38      1.0000 0.74520  0.06150  0.32680  Biso   1.000  H
  Cu2      1.0000 0.00000  0.00000  0.50000  Biso   1.000  Cu
  O11      1.0000 0.17961  0.06538  0.51078  Biso   1.000  O
  O12      1.0000 0.82039  0.93462  0.48922  Biso   1.000  O
  C35      1.0000 0.34760  0.19972  0.49839  Biso   1.000  C
  C36      1.0000 0.65240  0.80028  0.50161  Biso   1.000  C
  F13      1.0000 0.42228  0.16703  0.41999  Biso   1.000  F
  F14      1.0000 0.57772  0.83297  0.58001  Biso   1.000  F
  F15      1.0000 0.35613  0.31486  0.50138  Biso   1.000  F
  F16      1.0000 0.64387  0.68514  0.49862  Biso   1.000  F
  F17      1.0000 0.41723  0.13575  0.57567  Biso   1.000  F
  F18      1.0000 0.58277  0.86425  0.42433  Biso   1.000  F
  C37      1.0000 0.18767  0.17600  0.49584  Biso   1.000  C
  C38      1.0000 0.81233  0.82400  0.50416  Biso   1.000  C
  C39      1.0000 0.07290  0.27357  0.47557  Biso   1.000  C
  C40      1.0000 0.92710  0.72643  0.52443  Biso   1.000  C
  H39      1.0000 0.09490  0.35330  0.46440  Biso   1.000  H
  H40      1.0000 0.90510  0.64670  0.53560  Biso   1.000  H
  C41      1.0000 0.92677  0.25560  0.47151  Biso   1.000  C
  C42      1.0000 0.07323  0.74440  0.52849  Biso   1.000  C
  C43      1.0000 0.80650  0.36495  0.44101  Biso   1.000  C
  C44      1.0000 0.19350  0.63505  0.55899  Biso   1.000  C
  F19      1.0000 0.68950  0.36565  0.50071  Biso   1.000  F
  F20      1.0000 0.31050  0.63435  0.49929  Biso   1.000  F
  F21      1.0000 0.85311  0.46960  0.44066  Biso   1.000  F
  F22      1.0000 0.14689  0.53040  0.55934  Biso   1.000  F
  F23      1.0000 0.76000  0.36065  0.35266  Biso   1.000  F
  F24      1.0000 0.24000  0.63935  0.64734  Biso   1.000  F
  O13      1.0000 0.87668  0.15814  0.48790  Biso   1.000  O
  O14      1.0000 0.12332  0.84186  0.51210  Biso   1.000  O
  F25      1.0000 0.10900  0.53320  0.22450  Biso   1.000  F
  F26      1.0000 0.89100  0.46680  0.77550  Biso   1.000  F
  F27      1.0000 0.26000  0.49910  0.34450  Biso   1.000  F
  F28      1.0000 0.74000  0.50090  0.65550  Biso   1.000  F
  F29      1.0000 0.24000  0.35400  0.25800  Biso   1.000  F
  F30      1.0000 0.76000  0.64600  0.74200  Biso   1.000  F
  F31      1.0000 0.33200  0.31200  0.70600  Biso   1.000  F
  F32      1.0000 0.66800  0.68800  0.29400  Biso   1.000  F
  F33      1.0000 0.17990  0.35660  0.82460  Biso   1.000  F
  F34      1.0000 0.82010  0.64340  0.17540  Biso   1.000  F
