data_image0
_cell_length_a       11.8915
_cell_length_b       13.5008
_cell_length_c       16.0654
_cell_angle_alpha    70.971
_cell_angle_beta     70.133
_cell_angle_gamma    83.055

_symmetry_space_group_name_H-M    "P 1"
_symmetry_int_tables_number       1

loop_
  _symmetry_equiv_pos_as_xyz
  'x, y, z'

loop_
  _atom_site_label
  _atom_site_occupancy
  _atom_site_fract_x
  _atom_site_fract_y
  _atom_site_fract_z
  _atom_site_thermal_displace_type
  _atom_site_B_iso_or_equiv
  _atom_site_type_symbol
  Cu1      1.0000 0.00000  0.00000  0.00000  Biso   1.000  Cu
  O1       1.0000 0.89130  0.10580  0.03910  Biso   1.000  O
  O2       1.0000 0.10870  0.89420  0.96090  Biso   1.000  O
  C1       1.0000 0.80960  0.24200  0.10080  Biso   1.000  C
  C2       1.0000 0.19040  0.75800  0.89920  Biso   1.000  C
  F1       1.0000 0.81220  0.30850  0.01820  Biso   1.000  F
  F2       1.0000 0.18780  0.69150  0.98180  Biso   1.000  F
  F3       1.0000 0.82360  0.29760  0.15140  Biso   1.000  F
  F4       1.0000 0.17640  0.70240  0.84860  Biso   1.000  F
  F5       1.0000 0.69970  0.20030  0.14190  Biso   1.000  F
  F6       1.0000 0.30030  0.79970  0.85810  Biso   1.000  F
  C3       1.0000 0.90370  0.15550  0.09020  Biso   1.000  C
  C4       1.0000 0.09630  0.84450  0.90980  Biso   1.000  C
  C5       1.0000 0.98760  0.13860  0.13600  Biso   1.000  C
  C6       1.0000 0.01240  0.86140  0.86400  Biso   1.000  C
  H1       1.0000 0.98490  0.18010  0.17440  Biso   1.000  H
  H2       1.0000 0.01510  0.81990  0.82560  Biso   1.000  H
  C7       1.0000 0.07580  0.06140  0.12620  Biso   1.000  C
  C8       1.0000 0.92420  0.93860  0.87380  Biso   1.000  C
  C9       1.0000 0.16880  0.04800  0.17590  Biso   1.000  C
  C10      1.0000 0.83120  0.95200  0.82410  Biso   1.000  C
  F7       1.0000 0.19710  0.94910  0.20920  Biso   1.000  F
  F8       1.0000 0.80290  0.05090  0.79080  Biso   1.000  F
  F9       1.0000 0.12600  0.08200  0.24920  Biso   1.000  F
  F10      1.0000 0.87400  0.91800  0.75080  Biso   1.000  F
  F11      1.0000 0.26100  0.10500  0.11850  Biso   1.000  F
  F12      1.0000 0.73900  0.89500  0.88150  Biso   1.000  F
  O3       1.0000 0.09100  0.99810  0.08040  Biso   1.000  O
  O4       1.0000 0.90900  0.00190  0.91960  Biso   1.000  O
  Cu2      1.0000 0.50000  0.50000  0.50000  Biso   1.000  Cu
  O5       1.0000 0.36020  0.56270  0.46634  Biso   1.000  O
  O6       1.0000 0.63980  0.43730  0.53366  Biso   1.000  O
  C11      1.0000 0.18480  0.57740  0.43110  Biso   1.000  C
  C12      1.0000 0.81520  0.42260  0.56890  Biso   1.000  C
  F13      1.0000 0.20310  0.67650  0.37570  Biso   1.000  F
  F14      1.0000 0.79690  0.32350  0.62430  Biso   1.000  F
  F15      1.0000 0.11770  0.58100  0.51610  Biso   1.000  F
  F16      1.0000 0.88230  0.41900  0.48390  Biso   1.000  F
  F17      1.0000 0.11930  0.53190  0.40080  Biso   1.000  F
  F18      1.0000 0.88070  0.46810  0.59920  Biso   1.000  F
  C13      1.0000 0.30320  0.52130  0.43320  Biso   1.000  C
  C14      1.0000 0.69680  0.47870  0.56680  Biso   1.000  C
  C15      1.0000 0.33520  0.43490  0.40000  Biso   1.000  C
  C16      1.0000 0.66480  0.56510  0.60000  Biso   1.000  C
  H3       1.0000 0.28300  0.41170  0.37690  Biso   1.000  H
  H4       1.0000 0.71700  0.58830  0.62310  Biso   1.000  H
  C17      1.0000 0.44330  0.38270  0.40080  Biso   1.000  C
  C18      1.0000 0.55670  0.61730  0.59920  Biso   1.000  C
  C19      1.0000 0.47820  0.28950  0.36190  Biso   1.000  C
  C20      1.0000 0.52180  0.71050  0.63810  Biso   1.000  C
  F19      1.0000 0.40070  0.27410  0.32398  Biso   1.000  F
  F20      1.0000 0.59930  0.72590  0.67602  Biso   1.000  F
  F21      1.0000 0.58480  0.30510  0.29668  Biso   1.000  F
  F22      1.0000 0.41520  0.69490  0.70332  Biso   1.000  F
  F23      1.0000 0.48430  0.20160  0.42880  Biso   1.000  F
  F24      1.0000 0.51570  0.79840  0.57120  Biso   1.000  F
  O7       1.0000 0.52050  0.40020  0.43200  Biso   1.000  O
  O8       1.0000 0.47950  0.59980  0.56800  Biso   1.000  O
  Cu3      1.0000 0.10064  0.33382  0.27146  Biso   1.000  Cu
  Cu4      1.0000 0.89936  0.66618  0.72854  Biso   1.000  Cu
  O9       1.0000 0.11960  0.29680  0.39330  Biso   1.000  O
  O10      1.0000 0.88040  0.70320  0.60670  Biso   1.000  O
  C21      1.0000 0.10240  0.21470  0.54920  Biso   1.000  C
  C22      1.0000 0.89760  0.78530  0.45080  Biso   1.000  C
  F25      1.0000 0.04480  0.13810  0.62390  Biso   1.000  F
  F26      1.0000 0.95520  0.86190  0.37610  Biso   1.000  F
  F27      1.0000 0.21870  0.19240  0.52967  Biso   1.000  F
  F28      1.0000 0.78130  0.80760  0.47033  Biso   1.000  F
  F29      1.0000 0.08390  0.30290  0.57270  Biso   1.000  F
  F30      1.0000 0.91610  0.69710  0.42730  Biso   1.000  F
  C23      1.0000 0.06120  0.22880  0.46520  Biso   1.000  C
  C24      1.0000 0.93880  0.77120  0.53480  Biso   1.000  C
  C25      1.0000 0.96720  0.16890  0.47560  Biso   1.000  C
  C26      1.0000 0.03280  0.83110  0.52440  Biso   1.000  C
  H5       1.0000 0.93110  0.11890  0.53400  Biso   1.000  H
  H6       1.0000 0.06890  0.88110  0.46600  Biso   1.000  H
  C27      1.0000 0.92590  0.18080  0.40300  Biso   1.000  C
  C28      1.0000 0.07410  0.81920  0.59700  Biso   1.000  C
  C29      1.0000 0.81560  0.11860  0.42100  Biso   1.000  C
  C30      1.0000 0.18440  0.88140  0.57900  Biso   1.000  C
  F31      1.0000 0.80120  0.03290  0.49270  Biso   1.000  F
  F32      1.0000 0.19880  0.96710  0.50730  Biso   1.000  F
  F33      1.0000 0.81350  0.09550  0.35160  Biso   1.000  F
  F34      1.0000 0.18650  0.90450  0.64840  Biso   1.000  F
  F35      1.0000 0.71770  0.17590  0.44700  Biso   1.000  F
  F36      1.0000 0.28230  0.82410  0.55300  Biso   1.000  F
  O11      1.0000 0.96510  0.23980  0.31960  Biso   1.000  O
  O12      1.0000 0.03490  0.76020  0.68040  Biso   1.000  O
  O13      1.0000 0.24810  0.41130  0.22530  Biso   1.000  O
  O14      1.0000 0.75190  0.58870  0.77470  Biso   1.000  O
  C31      1.0000 0.39430  0.53490  0.12780  Biso   1.000  C
  C32      1.0000 0.60570  0.46510  0.87220  Biso   1.000  C
  F37      1.0000 0.48400  0.47950  0.15490  Biso   1.000  F
  F38      1.0000 0.51600  0.52050  0.84510  Biso   1.000  F
  F39      1.0000 0.35270  0.60050  0.17840  Biso   1.000  F
  F40      1.0000 0.64730  0.39950  0.82160  Biso   1.000  F
  F41      1.0000 0.44130  0.59350  0.03916  Biso   1.000  F
  F42      1.0000 0.55870  0.40650  0.96084  Biso   1.000  F
  C33      1.0000 0.29520  0.46240  0.14180  Biso   1.000  C
  C34      1.0000 0.70480  0.53760  0.85820  Biso   1.000  C
  C35      1.0000 0.26910  0.46130  0.06480  Biso   1.000  C
  C36      1.0000 0.73090  0.53870  0.93520  Biso   1.000  C
  H7       1.0000 0.31030  0.50660  0.00520  Biso   1.000  H
  H8       1.0000 0.68970  0.49340  0.99480  Biso   1.000  H
  C37      1.0000 0.18200  0.39380  0.07400  Biso   1.000  C
  C38      1.0000 0.81800  0.60620  0.92600  Biso   1.000  C
  C39      1.0000 0.16610  0.38670  0.98480  Biso   1.000  C
  C40      1.0000 0.83390  0.61330  0.01520  Biso   1.000  C
  F43      1.0000 0.23800  0.46100  0.90800  Biso   1.000  F
  F44      1.0000 0.76200  0.53900  0.09200  Biso   1.000  F
  F45      1.0000 0.21230  0.29610  0.97100  Biso   1.000  F
  F46      1.0000 0.78770  0.70390  0.02900  Biso   1.000  F
  F47      1.0000 0.06300  0.39500  0.98800  Biso   1.000  F
  F48      1.0000 0.93700  0.60500  0.01200  Biso   1.000  F
  O15      1.0000 0.11370  0.33410  0.14680  Biso   1.000  O
  O16      1.0000 0.88630  0.66590  0.85320  Biso   1.000  O
  O17      1.0000 0.88310  0.84210  0.10610  Biso   1.000  O
  O18      1.0000 0.11690  0.15790  0.89390  Biso   1.000  O
  N1       1.0000 0.79390  0.80460  0.17860  Biso   1.000  N
  N2       1.0000 0.20610  0.19540  0.82140  Biso   1.000  N
  C41      1.0000 0.68130  0.86750  0.20670  Biso   1.000  C
  C42      1.0000 0.31870  0.13250  0.79330  Biso   1.000  C
  C43      1.0000 0.64720  0.93210  0.12170  Biso   1.000  C
  C44      1.0000 0.35280  0.06790  0.87830  Biso   1.000  C
  H9       1.0000 0.70700  0.98650  0.08280  Biso   1.000  H
  H10      1.0000 0.29300  0.01350  0.91720  Biso   1.000  H
  H11      1.0000 0.56870  0.96500  0.14140  Biso   1.000  H
  H12      1.0000 0.43130  0.03500  0.85860  Biso   1.000  H
  H13      1.0000 0.64400  0.88650  0.08600  Biso   1.000  H
  H14      1.0000 0.35600  0.11350  0.91400  Biso   1.000  H
  C45      1.0000 0.71080  0.93710  0.25470  Biso   1.000  C
  C46      1.0000 0.28920  0.06290  0.74530  Biso   1.000  C
  H15      1.0000 0.76590  0.99210  0.20830  Biso   1.000  H
  H16      1.0000 0.23410  0.00790  0.79170  Biso   1.000  H
  H17      1.0000 0.74840  0.89450  0.30070  Biso   1.000  H
  H18      1.0000 0.25160  0.10550  0.69930  Biso   1.000  H
  H19      1.0000 0.63710  0.96920  0.28600  Biso   1.000  H
  H20      1.0000 0.36290  0.03080  0.71400  Biso   1.000  H
  C47      1.0000 0.59380  0.77680  0.27590  Biso   1.000  C
  C48      1.0000 0.40620  0.22320  0.72410  Biso   1.000  C
  C49      1.0000 0.50300  0.80340  0.35890  Biso   1.000  C
  C50      1.0000 0.49700  0.19660  0.64110  Biso   1.000  C
  H21      1.0000 0.45170  0.74290  0.39810  Biso   1.000  H
  H22      1.0000 0.54830  0.25710  0.60190  Biso   1.000  H
  H23      1.0000 0.45390  0.86330  0.33690  Biso   1.000  H
  H24      1.0000 0.54610  0.13670  0.66310  Biso   1.000  H
  H25      1.0000 0.54500  0.82110  0.39500  Biso   1.000  H
  H26      1.0000 0.45500  0.17890  0.60500  Biso   1.000  H
  C51      1.0000 0.53230  0.72770  0.22930  Biso   1.000  C
  C52      1.0000 0.46770  0.27230  0.77070  Biso   1.000  C
  H27      1.0000 0.47920  0.67180  0.27660  Biso   1.000  H
  H28      1.0000 0.52080  0.32820  0.72340  Biso   1.000  H
  H29      1.0000 0.59300  0.69840  0.18440  Biso   1.000  H
  H30      1.0000 0.40700  0.30160  0.81560  Biso   1.000  H
  H31      1.0000 0.48540  0.78150  0.19700  Biso   1.000  H
  H32      1.0000 0.51460  0.21850  0.80300  Biso   1.000  H
  N3       1.0000 0.68270  0.69580  0.30630  Biso   1.000  N
  N4       1.0000 0.31730  0.30420  0.69370  Biso   1.000  N
  O19      1.0000 0.65320  0.61740  0.38100  Biso   1.000  O
  O20      1.0000 0.34680  0.38260  0.61900  Biso   1.000  O
  C53      1.0000 0.79180  0.71050  0.24290  Biso   1.000  C
  C54      1.0000 0.20820  0.28950  0.75710  Biso   1.000  C
  C55      1.0000 0.89180  0.63720  0.24340  Biso   1.000  C
  C56      1.0000 0.10820  0.36280  0.75660  Biso   1.000  C
  C57      1.0000 0.88970  0.52530  0.26510  Biso   1.000  C
  C58      1.0000 0.11030  0.47470  0.73490  Biso   1.000  C
  C59      1.0000 0.78750  0.45530  0.29370  Biso   1.000  C
  C60      1.0000 0.21250  0.54470  0.70630  Biso   1.000  C
  H33      1.0000 0.81640  0.38270  0.30190  Biso   1.000  H
  H34      1.0000 0.18360  0.61730  0.69810  Biso   1.000  H
  H35      1.0000 0.74840  0.47590  0.24570  Biso   1.000  H
  H36      1.0000 0.25160  0.52410  0.75430  Biso   1.000  H
  H37      1.0000 0.73000  0.46100  0.35250  Biso   1.000  H
  H38      1.0000 0.27000  0.53900  0.64750  Biso   1.000  H
  N5       1.0000 0.99830  0.48710  0.25510  Biso   1.000  N
  N6       1.0000 0.00170  0.51290  0.74490  Biso   1.000  N
  O21      1.0000 0.07380  0.57250  0.22730  Biso   1.000  O
  O22      1.0000 0.92620  0.42750  0.77270  Biso   1.000  O
  C61      1.0000 0.00810  0.66040  0.22060  Biso   1.000  C
  C62      1.0000 0.99190  0.33960  0.77940  Biso   1.000  C
  C63      1.0000 0.07450  0.75830  0.19420  Biso   1.000  C
  C64      1.0000 0.92550  0.24170  0.80580  Biso   1.000  C
  H39      1.0000 0.15990  0.74190  0.18320  Biso   1.000  H
  H40      1.0000 0.84010  0.25810  0.81680  Biso   1.000  H
  H41      1.0000 0.04450  0.79010  0.24460  Biso   1.000  H
  H42      1.0000 0.95550  0.20990  0.75540  Biso   1.000  H
  H43      1.0000 0.06280  0.80750  0.13750  Biso   1.000  H
  H44      1.0000 0.93720  0.19250  0.86250  Biso   1.000  H
  F49      1.0000 0.72400  0.91200  0.88320  Biso   1.000  F
  F50      1.0000 0.27600  0.08800  0.11680  Biso   1.000  F
  F51      1.0000 0.86200  0.90940  0.75520  Biso   1.000  F
  F52      1.0000 0.13800  0.09060  0.24480  Biso   1.000  F
  F53      1.0000 0.96100  0.61600  0.00600  Biso   1.000  F
  F54      1.0000 0.03900  0.38400  0.99400  Biso   1.000  F
  F55      1.0000 0.79300  0.53600  0.08900  Biso   1.000  F
  F56      1.0000 0.20700  0.46400  0.91100  Biso   1.000  F
