data_image0
_cell_length_a       6.5427
_cell_length_b       7.3163
_cell_length_c       9.487
_cell_angle_alpha    106.252
_cell_angle_beta     89.97
_cell_angle_gamma    94.327

_symmetry_space_group_name_H-M    "P 1"
_symmetry_int_tables_number       1

loop_
  _symmetry_equiv_pos_as_xyz
  'x, y, z'

loop_
  _atom_site_label
  _atom_site_occupancy
  _atom_site_fract_x
  _atom_site_fract_y
  _atom_site_fract_z
  _atom_site_thermal_displace_type
  _atom_site_B_iso_or_equiv
  _atom_site_type_symbol
  Cu1      1.0000 0.00000  0.50000  0.00000  Biso   1.000  Cu
  Cl1      1.0000 0.72094  0.42438  0.83716  Biso   1.000  Cl
  Cl2      1.0000 0.27906  0.57562  0.16284  Biso   1.000  Cl
  N1       1.0000 0.28110  0.03220  0.75327  Biso   1.000  N
  N2       1.0000 0.71890  0.96780  0.24673  Biso   1.000  N
  N3       1.0000 0.25660  0.12640  0.65149  Biso   1.000  N
  N4       1.0000 0.74340  0.87360  0.34851  Biso   1.000  N
  N5       1.0000 0.17400  0.28190  0.71620  Biso   1.000  N
  N6       1.0000 0.82600  0.71810  0.28380  Biso   1.000  N
  N7       1.0000 0.14540  0.29220  0.85967  Biso   1.000  N
  N8       1.0000 0.85460  0.70780  0.14033  Biso   1.000  N
  C1       1.0000 0.21260  0.13620  0.88095  Biso   1.000  C
  C2       1.0000 0.78740  0.86380  0.11905  Biso   1.000  C
  H1       1.0000 0.21220  0.10430  0.96920  Biso   1.000  H
  H2       1.0000 0.78780  0.89570  0.03080  Biso   1.000  H
  C3       1.0000 0.37030  0.84400  0.71290  Biso   1.000  C
  C4       1.0000 0.62970  0.15600  0.28710  Biso   1.000  C
  C5       1.0000 0.32500  0.74500  0.83290  Biso   1.000  C
  C6       1.0000 0.67500  0.25500  0.16710  Biso   1.000  C
  H3       1.0000 0.37390  0.61820  0.80210  Biso   1.000  H
  H4       1.0000 0.62610  0.38180  0.19790  Biso   1.000  H
  H5       1.0000 0.40120  0.81600  0.92150  Biso   1.000  H
  H6       1.0000 0.59880  0.18400  0.07850  Biso   1.000  H
  O1       1.0000 0.11300  0.72820  0.86684  Biso   1.000  O
  O2       1.0000 0.88700  0.27180  0.13316  Biso   1.000  O
  H7       1.0000 0.06280  0.68290  0.77860  Biso   1.000  H
  H8       1.0000 0.93720  0.31710  0.22140  Biso   1.000  H
  C7       1.0000 0.60410  0.87490  0.69930  Biso   1.000  C
  C8       1.0000 0.39590  0.12510  0.30070  Biso   1.000  C
  H9       1.0000 0.66170  0.75180  0.67160  Biso   1.000  H
  H10      1.0000 0.33830  0.24820  0.32840  Biso   1.000  H
  H11      1.0000 0.63260  0.93540  0.62180  Biso   1.000  H
  H12      1.0000 0.36740  0.06460  0.37820  Biso   1.000  H
  O3       1.0000 0.70060  0.98880  0.83073  Biso   1.000  O
  O4       1.0000 0.29940  0.01120  0.16927  Biso   1.000  O
  H13      1.0000 0.71190  0.10070  0.82930  Biso   1.000  H
  H14      1.0000 0.28810  0.89930  0.17070  Biso   1.000  H
  C9       1.0000 0.28120  0.72700  0.56330  Biso   1.000  C
  C10      1.0000 0.71880  0.27300  0.43670  Biso   1.000  C
  H15      1.0000 0.31690  0.79280  0.49000  Biso   1.000  H
  H16      1.0000 0.68310  0.20720  0.51000  Biso   1.000  H
  H17      1.0000 0.33870  0.60380  0.53460  Biso   1.000  H
  H18      1.0000 0.66130  0.39620  0.46540  Biso   1.000  H
  O5       1.0000 0.06530  0.70060  0.57070  Biso   1.000  O
  O6       1.0000 0.93470  0.29940  0.42930  Biso   1.000  O
  H19      1.0000 0.01490  0.67060  0.48750  Biso   1.000  H
  H20      1.0000 0.98510  0.32940  0.51250  Biso   1.000  H
