data_image0
_cell_length_a       8.527
_cell_length_b       10.296
_cell_length_c       9.697
_cell_angle_alpha    90
_cell_angle_beta     103.77
_cell_angle_gamma    90

_symmetry_space_group_name_H-M    "P 1"
_symmetry_int_tables_number       1

loop_
  _symmetry_equiv_pos_as_xyz
  'x, y, z'

loop_
  _atom_site_label
  _atom_site_occupancy
  _atom_site_fract_x
  _atom_site_fract_y
  _atom_site_fract_z
  _atom_site_thermal_displace_type
  _atom_site_B_iso_or_equiv
  _atom_site_type_symbol
  Cu1      1.0000 0.83620  0.40819  0.90170  Biso   1.000  Cu
  Cu2      1.0000 0.16380  0.90819  0.09830  Biso   1.000  Cu
  N1       1.0000 0.73060  0.24070  0.86840  Biso   1.000  N
  N2       1.0000 0.26940  0.74070  0.13160  Biso   1.000  N
  N3       1.0000 0.96610  0.34330  0.75480  Biso   1.000  N
  N4       1.0000 0.03390  0.84330  0.24520  Biso   1.000  N
  N5       1.0000 0.89970  0.58730  0.89010  Biso   1.000  N
  N6       1.0000 0.10030  0.08730  0.10990  Biso   1.000  N
  N7       1.0000 0.45030  0.11810  0.37310  Biso   1.000  N
  N8       1.0000 0.54970  0.61810  0.62690  Biso   1.000  N
  O1       1.0000 0.43740  0.00230  0.33770  Biso   1.000  O
  O2       1.0000 0.56260  0.50230  0.66230  Biso   1.000  O
  O3       1.0000 0.41660  0.16100  0.48030  Biso   1.000  O
  O4       1.0000 0.58340  0.66100  0.51970  Biso   1.000  O
  O5       1.0000 0.70610  0.45660  0.03470  Biso   1.000  O
  O6       1.0000 0.29390  0.95660  0.96530  Biso   1.000  O
  S1       1.0000 0.92630  0.85260  0.85080  Biso   1.000  S
  S2       1.0000 0.07370  0.35260  0.14920  Biso   1.000  S
  C1       1.0000 0.61950  0.23950  0.07480  Biso   1.000  C
  C2       1.0000 0.38050  0.73950  0.92520  Biso   1.000  C
  C3       1.0000 0.64860  0.37420  0.11230  Biso   1.000  C
  C4       1.0000 0.35140  0.87420  0.88770  Biso   1.000  C
  C5       1.0000 0.60460  0.41810  0.23690  Biso   1.000  C
  C6       1.0000 0.39540  0.91810  0.76310  Biso   1.000  C
  H1       1.0000 0.61940  0.50510  0.26240  Biso   1.000  H
  H2       1.0000 0.38060  0.00510  0.73760  Biso   1.000  H
  C7       1.0000 0.54090  0.33540  0.32090  Biso   1.000  C
  C8       1.0000 0.45910  0.83540  0.67910  Biso   1.000  C
  H3       1.0000 0.51630  0.36580  0.40360  Biso   1.000  H
  H4       1.0000 0.48370  0.86580  0.59640  Biso   1.000  H
  C9       1.0000 0.51370  0.20770  0.28160  Biso   1.000  C
  C10      1.0000 0.48630  0.70770  0.71840  Biso   1.000  C
  C11      1.0000 0.55090  0.15860  0.16180  Biso   1.000  C
  C12      1.0000 0.44910  0.65860  0.83820  Biso   1.000  C
  H5       1.0000 0.53070  0.07170  0.13800  Biso   1.000  H
  H6       1.0000 0.46930  0.57170  0.86200  Biso   1.000  H
  C13      1.0000 0.65680  0.18430  0.95340  Biso   1.000  C
  C14      1.0000 0.34320  0.68430  0.04660  Biso   1.000  C
  H7       1.0000 0.62490  0.09880  0.93270  Biso   1.000  H
  H8       1.0000 0.37510  0.59880  0.06730  Biso   1.000  H
  C15      1.0000 0.76030  0.17440  0.74410  Biso   1.000  C
  C16      1.0000 0.23970  0.67440  0.25590  Biso   1.000  C
  H9       1.0000 0.68780  0.20710  0.65840  Biso   1.000  H
  H10      1.0000 0.31220  0.70710  0.34160  Biso   1.000  H
  H11      1.0000 0.74220  0.08180  0.75040  Biso   1.000  H
  H12      1.0000 0.25780  0.58180  0.24960  Biso   1.000  H
  C17      1.0000 0.93240  0.20000  0.74020  Biso   1.000  C
  C18      1.0000 0.06760  0.70000  0.25980  Biso   1.000  C
  H13      1.0000 0.95160  0.16890  0.65120  Biso   1.000  H
  H14      1.0000 0.04840  0.66890  0.34880  Biso   1.000  H
  H15      1.0000 0.00430  0.15380  0.81710  Biso   1.000  H
  H16      1.0000 0.99570  0.65380  0.18290  Biso   1.000  H
  C19      1.0000 0.14220  0.36710  0.80230  Biso   1.000  C
  C20      1.0000 0.85780  0.86710  0.19770  Biso   1.000  C
  H17      1.0000 0.18440  0.31630  0.88730  Biso   1.000  H
  H18      1.0000 0.81560  0.81630  0.11270  Biso   1.000  H
  H19      1.0000 0.15930  0.45800  0.82780  Biso   1.000  H
  H20      1.0000 0.84070  0.95800  0.17220  Biso   1.000  H
  C21      1.0000 0.23760  0.33440  0.69400  Biso   1.000  C
  C22      1.0000 0.76240  0.83440  0.30600  Biso   1.000  C
  H21      1.0000 0.35010  0.35700  0.73160  Biso   1.000  H
  H22      1.0000 0.64990  0.85700  0.26840  Biso   1.000  H
  H23      1.0000 0.23160  0.24170  0.67570  Biso   1.000  H
  H24      1.0000 0.76840  0.74170  0.32430  Biso   1.000  H
  C23      1.0000 0.17410  0.40570  0.55920  Biso   1.000  C
  C24      1.0000 0.82590  0.90570  0.44080  Biso   1.000  C
  H25      1.0000 0.22970  0.37660  0.48850  Biso   1.000  H
  H26      1.0000 0.77030  0.87660  0.51150  Biso   1.000  H
  H27      1.0000 0.19500  0.49780  0.57470  Biso   1.000  H
  H28      1.0000 0.80500  0.99780  0.42530  Biso   1.000  H
  C25      1.0000 0.99700  0.38420  0.50570  Biso   1.000  C
  C26      1.0000 0.00300  0.88420  0.49430  Biso   1.000  C
  H29      1.0000 0.97870  0.29520  0.47300  Biso   1.000  H
  H30      1.0000 0.02130  0.79520  0.52700  Biso   1.000  H
  H31      1.0000 0.95690  0.44070  0.42500  Biso   1.000  H
  H32      1.0000 0.04310  0.94070  0.57500  Biso   1.000  H
  C27      1.0000 0.90390  0.40940  0.61530  Biso   1.000  C
  C28      1.0000 0.09610  0.90940  0.38470  Biso   1.000  C
  H33      1.0000 0.90290  0.50230  0.63180  Biso   1.000  H
  H34      1.0000 0.09710  0.00230  0.36820  Biso   1.000  H
  H35      1.0000 0.79300  0.38230  0.57750  Biso   1.000  H
  H36      1.0000 0.20700  0.88230  0.42250  Biso   1.000  H
  C29      1.0000 0.90910  0.69520  0.87210  Biso   1.000  C
  C30      1.0000 0.09090  0.19520  0.12790  Biso   1.000  C
