data_image0
_cell_length_a       10.2388
_cell_length_b       11.249
_cell_length_c       11.971
_cell_angle_alpha    82.013
_cell_angle_beta     65.032
_cell_angle_gamma    84.32

_symmetry_space_group_name_H-M    "P 1"
_symmetry_int_tables_number       1

loop_
  _symmetry_equiv_pos_as_xyz
  'x, y, z'

loop_
  _atom_site_label
  _atom_site_occupancy
  _atom_site_fract_x
  _atom_site_fract_y
  _atom_site_fract_z
  _atom_site_thermal_displace_type
  _atom_site_B_iso_or_equiv
  _atom_site_type_symbol
  Cu1      1.0000 0.00000  0.00000  0.50000  Biso   1.000  Cu
  Cu2      1.0000 0.68750  0.81804  0.72254  Biso   1.000  Cu
  Cu3      1.0000 0.31250  0.18196  0.27746  Biso   1.000  Cu
  C1       1.0000 0.20280  0.51060  0.55410  Biso   1.000  C
  C2       1.0000 0.79720  0.48940  0.44590  Biso   1.000  C
  C3       1.0000 0.06920  0.56370  0.62460  Biso   1.000  C
  C4       1.0000 0.93080  0.43630  0.37540  Biso   1.000  C
  H1       1.0000 0.06400  0.64280  0.64100  Biso   1.000  H
  H2       1.0000 0.93600  0.35720  0.35900  Biso   1.000  H
  C5       1.0000 0.94370  0.50060  0.67080  Biso   1.000  C
  C6       1.0000 0.05630  0.49940  0.32920  Biso   1.000  C
  C7       1.0000 0.95010  0.38270  0.64610  Biso   1.000  C
  C8       1.0000 0.04990  0.61730  0.35390  Biso   1.000  C
  H3       1.0000 0.86640  0.34000  0.67710  Biso   1.000  H
  H4       1.0000 0.13360  0.66000  0.32290  Biso   1.000  H
  C9       1.0000 0.08280  0.32856  0.57440  Biso   1.000  C
  C10      1.0000 0.91720  0.67144  0.42560  Biso   1.000  C
  C11      1.0000 0.20800  0.39210  0.53060  Biso   1.000  C
  C12      1.0000 0.79200  0.60790  0.46940  Biso   1.000  C
  H5       1.0000 0.29640  0.35480  0.48490  Biso   1.000  H
  H6       1.0000 0.70360  0.64520  0.51510  Biso   1.000  H
  C13      1.0000 0.79940  0.56510  0.73470  Biso   1.000  C
  C14      1.0000 0.20060  0.43490  0.26530  Biso   1.000  C
  C15      1.0000 0.08760  0.20770  0.53350  Biso   1.000  C
  C16      1.0000 0.91240  0.79230  0.46650  Biso   1.000  C
  C17      1.0000 0.33520  0.58440  0.49720  Biso   1.000  C
  C18      1.0000 0.66480  0.41560  0.50280  Biso   1.000  C
  H7       1.0000 0.41770  0.53480  0.45210  Biso   1.000  H
  H8       1.0000 0.58230  0.46520  0.54790  Biso   1.000  H
  H9       1.0000 0.35000  0.61540  0.56150  Biso   1.000  H
  H10      1.0000 0.65000  0.38460  0.43850  Biso   1.000  H
  H11      1.0000 0.32210  0.64990  0.44180  Biso   1.000  H
  H12      1.0000 0.67790  0.35010  0.55820  Biso   1.000  H
  C19      1.0000 0.99080  0.68740  0.00090  Biso   1.000  C
  C20      1.0000 0.00920  0.31260  0.99910  Biso   1.000  C
  C21      1.0000 0.94590  0.76640  0.92250  Biso   1.000  C
  C22      1.0000 0.05410  0.23360  0.07750  Biso   1.000  C
  H13      1.0000 0.84840  0.78860  0.94890  Biso   1.000  H
  H14      1.0000 0.15160  0.21140  0.05110  Biso   1.000  H
  C23      1.0000 0.04180  0.81330  0.80620  Biso   1.000  C
  C24      1.0000 0.95820  0.18670  0.19380  Biso   1.000  C
  C25      1.0000 0.18740  0.78080  0.76640  Biso   1.000  C
  C26      1.0000 0.81260  0.21920  0.23360  Biso   1.000  C
  H15      1.0000 0.25290  0.81260  0.68910  Biso   1.000  H
  H16      1.0000 0.74710  0.18740  0.31090  Biso   1.000  H
  C27      1.0000 0.23550  0.70080  0.84190  Biso   1.000  C
  C28      1.0000 0.76450  0.29920  0.15810  Biso   1.000  C
  C29      1.0000 0.13760  0.65500  0.95910  Biso   1.000  C
  C30      1.0000 0.86240  0.34500  0.04090  Biso   1.000  C
  H17      1.0000 0.17050  0.60230  0.00970  Biso   1.000  H
  H18      1.0000 0.82950  0.39770  0.99030  Biso   1.000  H
  C31      1.0000 0.98610  0.89000  0.72100  Biso   1.000  C
  C32      1.0000 0.01390  0.11000  0.27900  Biso   1.000  C
  C33      1.0000 0.39200  0.66300  0.79290  Biso   1.000  C
  C34      1.0000 0.60800  0.33700  0.20710  Biso   1.000  C
  C35      1.0000 0.88470  0.63480  0.12490  Biso   1.000  C
  C36      1.0000 0.11530  0.36520  0.87510  Biso   1.000  C
  H19      1.0000 0.78940  0.66680  0.13840  Biso   1.000  H
  H20      1.0000 0.21060  0.33320  0.86160  Biso   1.000  H
  H21      1.0000 0.90920  0.65500  0.18880  Biso   1.000  H
  H22      1.0000 0.09080  0.34500  0.81120  Biso   1.000  H
  H23      1.0000 0.88770  0.54900  0.12670  Biso   1.000  H
  H24      1.0000 0.11230  0.45100  0.87330  Biso   1.000  H
  C37      1.0000 0.58150  0.03440  0.60320  Biso   1.000  C
  C38      1.0000 0.41850  0.96560  0.39680  Biso   1.000  C
  H25      1.0000 0.66780  0.02750  0.53350  Biso   1.000  H
  H26      1.0000 0.33220  0.97250  0.46650  Biso   1.000  H
  C39      1.0000 0.47590  0.11730  0.59520  Biso   1.000  C
  C40      1.0000 0.52410  0.88270  0.40480  Biso   1.000  C
  H27      1.0000 0.49140  0.16670  0.52210  Biso   1.000  H
  H28      1.0000 0.50860  0.83330  0.47790  Biso   1.000  H
  C41      1.0000 0.34740  0.12490  0.69780  Biso   1.000  C
  C42      1.0000 0.65260  0.87510  0.30220  Biso   1.000  C
  H29      1.0000 0.27300  0.17730  0.69370  Biso   1.000  H
  H30      1.0000 0.72700  0.82270  0.30630  Biso   1.000  H
  C43      1.0000 0.32940  0.05450  0.80680  Biso   1.000  C
  C44      1.0000 0.67060  0.94550  0.19320  Biso   1.000  C
  H31      1.0000 0.24350  0.05980  0.87710  Biso   1.000  H
  H32      1.0000 0.75650  0.94020  0.12290  Biso   1.000  H
  C45      1.0000 0.44070  0.97590  0.80990  Biso   1.000  C
  C46      1.0000 0.55930  0.02410  0.19010  Biso   1.000  C
  C47      1.0000 0.43630  0.89750  0.92130  Biso   1.000  C
  C48      1.0000 0.56370  0.10250  0.07870  Biso   1.000  C
  C49      1.0000 0.33320  0.91010  0.04020  Biso   1.000  C
  C50      1.0000 0.66680  0.08990  0.95980  Biso   1.000  C
  H33      1.0000 0.25920  0.96900  0.05380  Biso   1.000  H
  H34      1.0000 0.74080  0.03100  0.94620  Biso   1.000  H
  C51      1.0000 0.34170  0.83460  0.13810  Biso   1.000  C
  C52      1.0000 0.65830  0.16540  0.86190  Biso   1.000  C
  H35      1.0000 0.27480  0.84310  0.21880  Biso   1.000  H
  H36      1.0000 0.72520  0.15690  0.78120  Biso   1.000  H
  C53      1.0000 0.45030  0.74630  0.11510  Biso   1.000  C
  C54      1.0000 0.54970  0.25370  0.88490  Biso   1.000  C
  H37      1.0000 0.45640  0.69330  0.17990  Biso   1.000  H
  H38      1.0000 0.54360  0.30670  0.82010  Biso   1.000  H
  C55      1.0000 0.55030  0.73770  0.99470  Biso   1.000  C
  C56      1.0000 0.44970  0.26230  0.00530  Biso   1.000  C
  H39      1.0000 0.62340  0.67780  0.97910  Biso   1.000  H
  H40      1.0000 0.37660  0.32220  0.02090  Biso   1.000  H
  N1       1.0000 0.54460  0.81295  0.89994  Biso   1.000  N
  N2       1.0000 0.45540  0.18705  0.10006  Biso   1.000  N
  N3       1.0000 0.56370  0.96384  0.70790  Biso   1.000  N
  N4       1.0000 0.43630  0.03616  0.29210  Biso   1.000  N
  O1       1.0000 0.80360  0.67617  0.73889  Biso   1.000  O
  O2       1.0000 0.19640  0.32383  0.26111  Biso   1.000  O
  O3       1.0000 0.68904  0.50628  0.77590  Biso   1.000  O
  O4       1.0000 0.31096  0.49372  0.22410  Biso   1.000  O
  O5       1.0000 0.20688  0.16442  0.45838  Biso   1.000  O
  O6       1.0000 0.79312  0.83558  0.54162  Biso   1.000  O
  O7       1.0000 0.97295  0.15254  0.57483  Biso   1.000  O
  O8       1.0000 0.02705  0.84746  0.42517  Biso   1.000  O
  O9       1.0000 0.07957  0.91768  0.61133  Biso   1.000  O
  O10      1.0000 0.92043  0.08232  0.38867  Biso   1.000  O
  O11      1.0000 0.85514  0.91928  0.75845  Biso   1.000  O
  O12      1.0000 0.14486  0.08072  0.24155  Biso   1.000  O
  O13      1.0000 0.48121  0.71353  0.69837  Biso   1.000  O
  O14      1.0000 0.51879  0.28647  0.30163  Biso   1.000  O
  O15      1.0000 0.42430  0.57272  0.86003  Biso   1.000  O
  O16      1.0000 0.57570  0.42728  0.13997  Biso   1.000  O
