data_image0
_cell_length_a       9.465
_cell_length_b       9.703
_cell_length_c       12.06
_cell_angle_alpha    77.26
_cell_angle_beta     70.37
_cell_angle_gamma    67.14

_symmetry_space_group_name_H-M    "P 1"
_symmetry_int_tables_number       1

loop_
  _symmetry_equiv_pos_as_xyz
  'x, y, z'

loop_
  _atom_site_label
  _atom_site_occupancy
  _atom_site_fract_x
  _atom_site_fract_y
  _atom_site_fract_z
  _atom_site_thermal_displace_type
  _atom_site_B_iso_or_equiv
  _atom_site_type_symbol
  Cu1      1.0000 0.50000  0.00000  0.50000  Biso   1.000  Cu
  N1       1.0000 0.50049  0.82445  0.84302  Biso   1.000  N
  N2       1.0000 0.49951  0.17555  0.15698  Biso   1.000  N
  N3       1.0000 0.47223  0.95764  0.67481  Biso   1.000  N
  N4       1.0000 0.52777  0.04236  0.32519  Biso   1.000  N
  N5       1.0000 0.97480  0.72688  0.42885  Biso   1.000  N
  N6       1.0000 0.02520  0.27312  0.57115  Biso   1.000  N
  N7       1.0000 0.73567  0.89593  0.47629  Biso   1.000  N
  N8       1.0000 0.26433  0.10407  0.52371  Biso   1.000  N
  C1       1.0000 0.21730  0.63471  0.26043  Biso   1.000  C
  C2       1.0000 0.78270  0.36529  0.73957  Biso   1.000  C
  C3       1.0000 0.51430  0.82126  0.72965  Biso   1.000  C
  C4       1.0000 0.48570  0.17874  0.27035  Biso   1.000  C
  H1       1.0000 0.54930  0.73360  0.69400  Biso   1.000  H
  H2       1.0000 0.45070  0.26640  0.30600  Biso   1.000  H
  C5       1.0000 0.27760  0.69405  0.04832  Biso   1.000  C
  C6       1.0000 0.72240  0.30595  0.95168  Biso   1.000  C
  H3       1.0000 0.24650  0.71660  0.97920  Biso   1.000  H
  H4       1.0000 0.75350  0.28340  0.02080  Biso   1.000  H
  C7       1.0000 0.17190  0.66971  0.15584  Biso   1.000  C
  C8       1.0000 0.82810  0.33029  0.84416  Biso   1.000  C
  H5       1.0000 0.07000  0.67670  0.15850  Biso   1.000  H
  H6       1.0000 0.93000  0.32330  0.84150  Biso   1.000  H
  C9       1.0000 0.43000  0.68504  0.04278  Biso   1.000  C
  C10      1.0000 0.57000  0.31496  0.95722  Biso   1.000  C
  C11      1.0000 0.36710  0.62910  0.25509  Biso   1.000  C
  C12      1.0000 0.63290  0.37090  0.74491  Biso   1.000  C
  H7       1.0000 0.39760  0.60830  0.32440  Biso   1.000  H
  H8       1.0000 0.60240  0.39170  0.67560  Biso   1.000  H
  C13      1.0000 0.44550  0.97250  0.86195  Biso   1.000  C
  C14      1.0000 0.55450  0.02750  0.13805  Biso   1.000  C
  H9       1.0000 0.42420  0.00980  0.93270  Biso   1.000  H
  H10      1.0000 0.57580  0.99020  0.06730  Biso   1.000  H
  C15      1.0000 0.82790  0.78010  0.41483  Biso   1.000  C
  C16      1.0000 0.17210  0.21990  0.58517  Biso   1.000  C
  H11      1.0000 0.79500  0.74070  0.36810  Biso   1.000  H
  H12      1.0000 0.20500  0.25930  0.63190  Biso   1.000  H
  C17      1.0000 0.10720  0.59570  0.37660  Biso   1.000  C
  C18      1.0000 0.89280  0.40430  0.62340  Biso   1.000  C
  H13      1.0000 0.06310  0.52720  0.36420  Biso   1.000  H
  H14      1.0000 0.93690  0.47280  0.63580  Biso   1.000  H
  H15      1.0000 0.16930  0.54350  0.43250  Biso   1.000  H
  H16      1.0000 0.83070  0.45650  0.56750  Biso   1.000  H
  C19      1.0000 0.47320  0.65430  0.14705  Biso   1.000  C
  C20      1.0000 0.52680  0.34570  0.85295  Biso   1.000  C
  H17      1.0000 0.57380  0.65040  0.14480  Biso   1.000  H
  H18      1.0000 0.42620  0.34960  0.85520  Biso   1.000  H
  C21      1.0000 0.55350  0.69350  0.92600  Biso   1.000  C
  C22      1.0000 0.44650  0.30650  0.07400  Biso   1.000  C
  H19      1.0000 0.64720  0.69510  0.94110  Biso   1.000  H
  H20      1.0000 0.35280  0.30490  0.05890  Biso   1.000  H
  H21      1.0000 0.58490  0.60310  0.88880  Biso   1.000  H
  H22      1.0000 0.41510  0.39690  0.11120  Biso   1.000  H
  C23      1.0000 0.97750  0.81310  0.50317  Biso   1.000  C
  C24      1.0000 0.02250  0.18690  0.49683  Biso   1.000  C
  H23      1.0000 0.06390  0.80260  0.52880  Biso   1.000  H
  H24      1.0000 0.93610  0.19740  0.47120  Biso   1.000  H
  C25      1.0000 0.42800  0.05390  0.75814  Biso   1.000  C
  C26      1.0000 0.57200  0.94610  0.24186  Biso   1.000  C
  H25      1.0000 0.39190  0.15830  0.74510  Biso   1.000  H
  H26      1.0000 0.60810  0.84170  0.25490  Biso   1.000  H
  C27      1.0000 0.82950  0.91680  0.53199  Biso   1.000  C
  C28      1.0000 0.17050  0.08320  0.46801  Biso   1.000  C
  H27      1.0000 0.79640  0.99080  0.58190  Biso   1.000  H
  H28      1.0000 0.20360  0.00920  0.41810  Biso   1.000  H
  O1       1.0000 0.71143  0.43813  0.40161  Biso   1.000  O
  O2       1.0000 0.28857  0.56187  0.59839  Biso   1.000  O
  C29      1.0000 0.79160  0.46360  0.29833  Biso   1.000  C
  C30      1.0000 0.20840  0.53640  0.70167  Biso   1.000  C
  C31      1.0000 0.88540  0.33290  0.22381  Biso   1.000  C
  C32      1.0000 0.11460  0.66710  0.77619  Biso   1.000  C
  O3       1.0000 0.80130  0.58895  0.25190  Biso   1.000  O
  O4       1.0000 0.19870  0.41105  0.74810  Biso   1.000  O
  C33      1.0000 0.99660  0.35010  0.11797  Biso   1.000  C
  C34      1.0000 0.00340  0.64990  0.88203  Biso   1.000  C
  H29      1.0000 0.01340  0.44170  0.09370  Biso   1.000  H
  H30      1.0000 0.98660  0.55830  0.90630  Biso   1.000  H
  C35      1.0000 0.86270  0.19480  0.25850  Biso   1.000  C
  C36      1.0000 0.13730  0.80520  0.74150  Biso   1.000  C
  H31      1.0000 0.78850  0.18080  0.32950  Biso   1.000  H
  H32      1.0000 0.21150  0.81920  0.67050  Biso   1.000  H
  C37      1.0000 0.08350  0.23340  0.04716  Biso   1.000  C
  C38      1.0000 0.91650  0.76660  0.95284  Biso   1.000  C
  H33      1.0000 0.15740  0.24700  0.97580  Biso   1.000  H
  H34      1.0000 0.84260  0.75300  0.02420  Biso   1.000  H
  C39      1.0000 0.05990  0.09730  0.08310  Biso   1.000  C
  C40      1.0000 0.94010  0.90270  0.91690  Biso   1.000  C
  H35      1.0000 0.11850  0.01820  0.03620  Biso   1.000  H
  H36      1.0000 0.88150  0.98180  0.96380  Biso   1.000  H
  C41      1.0000 0.94970  0.07830  0.18820  Biso   1.000  C
  C42      1.0000 0.05030  0.92170  0.81180  Biso   1.000  C
  H37      1.0000 0.93360  0.98640  0.21210  Biso   1.000  H
  H38      1.0000 0.06640  0.01360  0.78790  Biso   1.000  H
  O5       1.0000 0.49900  0.72120  0.49659  Biso   1.000  O
  O6       1.0000 0.50100  0.27880  0.50341  Biso   1.000  O
  H39      1.0000 0.56100  0.65400  0.46600  Biso   1.000  H
  H40      1.0000 0.43900  0.34600  0.53400  Biso   1.000  H
  H41      1.0000 0.43200  0.68500  0.53000  Biso   1.000  H
  H42      1.0000 0.56800  0.31500  0.47000  Biso   1.000  H
