data_image0
_cell_length_a       9.963
_cell_length_b       11.4996
_cell_length_c       14.542
_cell_angle_alpha    72.007
_cell_angle_beta     73.271
_cell_angle_gamma    88.712

_symmetry_space_group_name_H-M    "P 1"
_symmetry_int_tables_number       1

loop_
  _symmetry_equiv_pos_as_xyz
  'x, y, z'

loop_
  _atom_site_label
  _atom_site_occupancy
  _atom_site_fract_x
  _atom_site_fract_y
  _atom_site_fract_z
  _atom_site_thermal_displace_type
  _atom_site_B_iso_or_equiv
  _atom_site_type_symbol
  Cu1      1.0000 0.00000  0.00000  0.00000  Biso   1.000  Cu
  O1       1.0000 0.95350  0.54920  0.37190  Biso   1.000  O
  O2       1.0000 0.04650  0.45080  0.62810  Biso   1.000  O
  C1       1.0000 0.84810  0.54080  0.25100  Biso   1.000  C
  C2       1.0000 0.15190  0.45920  0.74900  Biso   1.000  C
  F1       1.0000 0.85540  0.66230  0.20940  Biso   1.000  F
  F2       1.0000 0.14460  0.33770  0.79060  Biso   1.000  F
  F3       1.0000 0.73240  0.49870  0.23850  Biso   1.000  F
  F4       1.0000 0.26760  0.50130  0.76150  Biso   1.000  F
  F5       1.0000 0.95800  0.50050  0.19620  Biso   1.000  F
  F6       1.0000 0.04200  0.49950  0.80380  Biso   1.000  F
  C3       1.0000 0.84480  0.50660  0.36100  Biso   1.000  C
  C4       1.0000 0.15520  0.49340  0.63900  Biso   1.000  C
  C5       1.0000 0.72880  0.44010  0.43560  Biso   1.000  C
  C6       1.0000 0.27120  0.55990  0.56440  Biso   1.000  C
  H1       1.0000 0.65590  0.41030  0.41680  Biso   1.000  H
  H2       1.0000 0.34410  0.58970  0.58320  Biso   1.000  H
  C7       1.0000 0.71620  0.41590  0.53730  Biso   1.000  C
  C8       1.0000 0.28380  0.58410  0.46270  Biso   1.000  C
  C9       1.0000 0.58170  0.34880  0.61520  Biso   1.000  C
  C10      1.0000 0.41830  0.65120  0.38480  Biso   1.000  C
  F7       1.0000 0.53010  0.41010  0.68110  Biso   1.000  F
  F8       1.0000 0.46990  0.58990  0.31890  Biso   1.000  F
  F9       1.0000 0.60570  0.23820  0.66720  Biso   1.000  F
  F10      1.0000 0.39430  0.76180  0.33280  Biso   1.000  F
  F11      1.0000 0.47980  0.33780  0.57540  Biso   1.000  F
  F12      1.0000 0.52020  0.66220  0.42460  Biso   1.000  F
  O3       1.0000 0.80820  0.43930  0.57590  Biso   1.000  O
  O4       1.0000 0.19180  0.56070  0.42410  Biso   1.000  O
  Cu2      1.0000 0.00000  0.50000  0.50000  Biso   1.000  Cu
  O5       1.0000 0.12120  0.87610  0.95850  Biso   1.000  O
  O6       1.0000 0.87880  0.12390  0.04150  Biso   1.000  O
  C11      1.0000 0.19910  0.71610  0.89210  Biso   1.000  C
  C12      1.0000 0.80090  0.28390  0.10790  Biso   1.000  C
  F13      1.0000 0.32100  0.74890  0.89580  Biso   1.000  F
  F14      1.0000 0.67900  0.25110  0.10420  Biso   1.000  F
  F15      1.0000 0.17030  0.59520  0.94200  Biso   1.000  F
  F16      1.0000 0.82970  0.40480  0.05800  Biso   1.000  F
  F17      1.0000 0.20540  0.73250  0.79690  Biso   1.000  F
  F18      1.0000 0.79460  0.26750  0.20310  Biso   1.000  F
  C13      1.0000 0.07790  0.78940  0.93840  Biso   1.000  C
  C14      1.0000 0.92210  0.21060  0.06160  Biso   1.000  C
  C15      1.0000 0.94020  0.75080  0.95050  Biso   1.000  C
  C16      1.0000 0.05980  0.24920  0.04950  Biso   1.000  C
  H3       1.0000 0.92410  0.68150  0.93160  Biso   1.000  H
  H4       1.0000 0.07590  0.31850  0.06840  Biso   1.000  H
  C17      1.0000 0.82810  0.81000  0.98870  Biso   1.000  C
  C18      1.0000 0.17190  0.19000  0.01130  Biso   1.000  C
  C19      1.0000 0.68130  0.76430  0.00080  Biso   1.000  C
  C20      1.0000 0.31870  0.23570  0.99920  Biso   1.000  C
  F19      1.0000 0.62780  0.83740  0.93620  Biso   1.000  F
  F20      1.0000 0.37220  0.16260  0.06380  Biso   1.000  F
  F21      1.0000 0.67490  0.65680  0.98840  Biso   1.000  F
  F22      1.0000 0.32510  0.34320  0.01160  Biso   1.000  F
  F23      1.0000 0.59730  0.75210  0.09160  Biso   1.000  F
  F24      1.0000 0.40270  0.24790  0.90840  Biso   1.000  F
  O7       1.0000 0.83110  0.90530  0.01580  Biso   1.000  O
  O8       1.0000 0.16890  0.09470  0.98420  Biso   1.000  O
  O9       1.0000 0.01910  0.30950  0.47310  Biso   1.000  O
  O10      1.0000 0.98090  0.69050  0.52690  Biso   1.000  O
  N1       1.0000 0.12210  0.23780  0.46660  Biso   1.000  N
  N2       1.0000 0.87790  0.76220  0.53340  Biso   1.000  N
  C21      1.0000 0.20290  0.21960  0.36900  Biso   1.000  C
  C22      1.0000 0.79710  0.78040  0.63100  Biso   1.000  C
  C23      1.0000 0.24530  0.34580  0.28700  Biso   1.000  C
  C24      1.0000 0.75470  0.65420  0.71300  Biso   1.000  C
  H5       1.0000 0.16120  0.38250  0.27190  Biso   1.000  H
  H6       1.0000 0.83880  0.61750  0.72810  Biso   1.000  H
  H7       1.0000 0.29150  0.39940  0.31140  Biso   1.000  H
  H8       1.0000 0.70850  0.60060  0.68860  Biso   1.000  H
  H9       1.0000 0.31020  0.33570  0.22540  Biso   1.000  H
  H10      1.0000 0.68980  0.66430  0.77460  Biso   1.000  H
  C25      1.0000 0.09900  0.14710  0.34320  Biso   1.000  C
  C26      1.0000 0.90100  0.85290  0.65680  Biso   1.000  C
  H11      1.0000 0.02820  0.20090  0.32220  Biso   1.000  H
  H12      1.0000 0.97180  0.79910  0.67780  Biso   1.000  H
  H13      1.0000 0.14990  0.11640  0.28800  Biso   1.000  H
  H14      1.0000 0.85010  0.88360  0.71200  Biso   1.000  H
  H15      1.0000 0.05260  0.07790  0.40300  Biso   1.000  H
  H16      1.0000 0.94740  0.92210  0.59700  Biso   1.000  H
  C27      1.0000 0.32220  0.14670  0.40170  Biso   1.000  C
  C28      1.0000 0.67780  0.85330  0.59830  Biso   1.000  C
  C29      1.0000 0.37100  0.04880  0.35110  Biso   1.000  C
  C30      1.0000 0.62900  0.95120  0.64890  Biso   1.000  C
  H17      1.0000 0.28910  0.99890  0.35620  Biso   1.000  H
  H18      1.0000 0.71090  0.00110  0.64380  Biso   1.000  H
  H19      1.0000 0.42240  0.08820  0.27970  Biso   1.000  H
  H20      1.0000 0.57760  0.91180  0.72030  Biso   1.000  H
  H21      1.0000 0.43270  0.99630  0.38510  Biso   1.000  H
  H22      1.0000 0.56730  0.00370  0.61490  Biso   1.000  H
  C31      1.0000 0.44920  0.22830  0.38960  Biso   1.000  C
  C32      1.0000 0.55080  0.77170  0.61040  Biso   1.000  C
  H23      1.0000 0.52080  0.17690  0.41220  Biso   1.000  H
  H24      1.0000 0.47920  0.82310  0.58780  Biso   1.000  H
  H25      1.0000 0.48840  0.27720  0.31830  Biso   1.000  H
  H26      1.0000 0.51160  0.72280  0.68170  Biso   1.000  H
  H27      1.0000 0.41990  0.28300  0.43060  Biso   1.000  H
  H28      1.0000 0.58010  0.71700  0.56940  Biso   1.000  H
  N3       1.0000 0.25290  0.08930  0.51160  Biso   1.000  N
  N4       1.0000 0.74710  0.91070  0.48840  Biso   1.000  N
  O11      1.0000 0.29740  0.99500  0.56320  Biso   1.000  O
  O12      1.0000 0.70260  0.00500  0.43680  Biso   1.000  O
  C33      1.0000 0.14710  0.15440  0.54800  Biso   1.000  C
  C34      1.0000 0.85290  0.84560  0.45200  Biso   1.000  C
  C35      1.0000 0.07090  0.13580  0.65100  Biso   1.000  C
  C36      1.0000 0.92910  0.86420  0.34900  Biso   1.000  C
  C37      1.0000 0.11710  0.09650  0.73990  Biso   1.000  C
  C38      1.0000 0.88290  0.90350  0.26010  Biso   1.000  C
  C39      1.0000 0.26050  0.06980  0.74630  Biso   1.000  C
  C40      1.0000 0.73950  0.93020  0.25370  Biso   1.000  C
  H29      1.0000 0.26030  0.04710  0.81710  Biso   1.000  H
  H30      1.0000 0.73970  0.95290  0.18290  Biso   1.000  H
  H31      1.0000 0.29150  0.00180  0.71980  Biso   1.000  H
  H32      1.0000 0.70850  0.99820  0.28020  Biso   1.000  H
  H33      1.0000 0.32480  0.14270  0.70620  Biso   1.000  H
  H34      1.0000 0.67520  0.85730  0.29380  Biso   1.000  H
  N5       1.0000 0.01140  0.09420  0.82110  Biso   1.000  N
  N6       1.0000 0.98860  0.90580  0.17890  Biso   1.000  N
  N7       1.0000 0.89720  0.12980  0.78510  Biso   1.000  N
  N8       1.0000 0.10280  0.87020  0.21490  Biso   1.000  N
  C41      1.0000 0.76580  0.15450  0.85200  Biso   1.000  C
  C42      1.0000 0.23420  0.84550  0.14800  Biso   1.000  C
  H35      1.0000 0.68550  0.13250  0.83190  Biso   1.000  H
  H36      1.0000 0.31450  0.86750  0.16810  Biso   1.000  H
  H37      1.0000 0.75490  0.10230  0.92240  Biso   1.000  H
  H38      1.0000 0.24510  0.89770  0.07760  Biso   1.000  H
  C43      1.0000 0.76320  0.28790  0.84770  Biso   1.000  C
  C44      1.0000 0.23680  0.71210  0.15230  Biso   1.000  C
  H39      1.0000 0.67640  0.29970  0.89570  Biso   1.000  H
  H40      1.0000 0.32360  0.70030  0.10430  Biso   1.000  H
  H41      1.0000 0.84430  0.31080  0.86550  Biso   1.000  H
  H42      1.0000 0.15570  0.68920  0.13450  Biso   1.000  H
  H43      1.0000 0.76740  0.33950  0.77910  Biso   1.000  H
  H44      1.0000 0.23260  0.66050  0.22090  Biso   1.000  H
  C45      1.0000 0.92890  0.15890  0.68610  Biso   1.000  C
  C46      1.0000 0.07110  0.84110  0.31390  Biso   1.000  C
  H45      1.0000 0.86780  0.18950  0.64600  Biso   1.000  H
  H46      1.0000 0.13220  0.81050  0.35400  Biso   1.000  H
