data_image0
_cell_length_a       11.154
_cell_length_b       27.447
_cell_length_c       11.822
_cell_angle_alpha    90
_cell_angle_beta     118.042
_cell_angle_gamma    90

_symmetry_space_group_name_H-M    "P 1"
_symmetry_int_tables_number       1

loop_
  _symmetry_equiv_pos_as_xyz
  'x, y, z'

loop_
  _atom_site_label
  _atom_site_occupancy
  _atom_site_fract_x
  _atom_site_fract_y
  _atom_site_fract_z
  _atom_site_thermal_displace_type
  _atom_site_B_iso_or_equiv
  _atom_site_type_symbol
  Br1      1.0000 0.30377  0.18998  0.07553  Biso   1.000  Br
  Br2      1.0000 0.69623  0.18998  0.42447  Biso   1.000  Br
  Br3      1.0000 0.80377  0.68998  0.07553  Biso   1.000  Br
  Br4      1.0000 0.19623  0.68998  0.42447  Biso   1.000  Br
  Br5      1.0000 0.69623  0.81002  0.92447  Biso   1.000  Br
  Br6      1.0000 0.30377  0.81002  0.57553  Biso   1.000  Br
  Br7      1.0000 0.19623  0.31002  0.92447  Biso   1.000  Br
  Br8      1.0000 0.80377  0.31002  0.57553  Biso   1.000  Br
  Cu1      1.0000 0.50000  0.14818  0.75000  Biso   1.000  Cu
  Cu2      1.0000 0.00000  0.64818  0.75000  Biso   1.000  Cu
  Cu3      1.0000 0.50000  0.85182  0.25000  Biso   1.000  Cu
  Cu4      1.0000 0.00000  0.35182  0.25000  Biso   1.000  Cu
  O1       1.0000 0.35320  0.01149  0.39120  Biso   1.000  O
  O2       1.0000 0.64680  0.01149  0.10880  Biso   1.000  O
  O3       1.0000 0.85320  0.51149  0.39120  Biso   1.000  O
  O4       1.0000 0.14680  0.51149  0.10880  Biso   1.000  O
  O5       1.0000 0.64680  0.98851  0.60880  Biso   1.000  O
  O6       1.0000 0.35320  0.98851  0.89120  Biso   1.000  O
  O7       1.0000 0.14680  0.48851  0.60880  Biso   1.000  O
  O8       1.0000 0.85320  0.48851  0.89120  Biso   1.000  O
  H1       1.0000 0.36490  0.01870  0.46190  Biso   1.000  H
  H2       1.0000 0.63510  0.01870  0.03810  Biso   1.000  H
  H3       1.0000 0.86490  0.51870  0.46190  Biso   1.000  H
  H4       1.0000 0.13510  0.51870  0.03810  Biso   1.000  H
  H5       1.0000 0.63510  0.98130  0.53810  Biso   1.000  H
  H6       1.0000 0.36490  0.98130  0.96190  Biso   1.000  H
  H7       1.0000 0.13510  0.48130  0.53810  Biso   1.000  H
  H8       1.0000 0.86490  0.48130  0.96190  Biso   1.000  H
  O9       1.0000 0.42160  0.14799  0.56250  Biso   1.000  O
  O10      1.0000 0.57840  0.14799  0.93750  Biso   1.000  O
  O11      1.0000 0.92160  0.64799  0.56250  Biso   1.000  O
  O12      1.0000 0.07840  0.64799  0.93750  Biso   1.000  O
  O13      1.0000 0.57840  0.85201  0.43750  Biso   1.000  O
  O14      1.0000 0.42160  0.85201  0.06250  Biso   1.000  O
  O15      1.0000 0.07840  0.35201  0.43750  Biso   1.000  O
  O16      1.0000 0.92160  0.35201  0.06250  Biso   1.000  O
  O17      1.0000 0.40310  0.06802  0.58090  Biso   1.000  O
  O18      1.0000 0.59690  0.06802  0.91910  Biso   1.000  O
  O19      1.0000 0.90310  0.56802  0.58090  Biso   1.000  O
  O20      1.0000 0.09690  0.56802  0.91910  Biso   1.000  O
  O21      1.0000 0.59690  0.93198  0.41910  Biso   1.000  O
  O22      1.0000 0.40310  0.93198  0.08090  Biso   1.000  O
  O23      1.0000 0.09690  0.43198  0.41910  Biso   1.000  O
  O24      1.0000 0.90310  0.43198  0.08090  Biso   1.000  O
  N1       1.0000 0.31030  0.14305  0.73560  Biso   1.000  N
  N2       1.0000 0.68970  0.14305  0.76440  Biso   1.000  N
  N3       1.0000 0.81030  0.64305  0.73560  Biso   1.000  N
  N4       1.0000 0.18970  0.64305  0.76440  Biso   1.000  N
  N5       1.0000 0.68970  0.85695  0.26440  Biso   1.000  N
  N6       1.0000 0.31030  0.85695  0.23560  Biso   1.000  N
  N7       1.0000 0.18970  0.35695  0.26440  Biso   1.000  N
  N8       1.0000 0.81030  0.35695  0.23560  Biso   1.000  N
  N9       1.0000 0.50000  0.23262  0.75000  Biso   1.000  N
  N10      1.0000 0.00000  0.73262  0.75000  Biso   1.000  N
  N11      1.0000 0.50000  0.76738  0.25000  Biso   1.000  N
  N12      1.0000 0.00000  0.26738  0.25000  Biso   1.000  N
  N13      1.0000 0.50000  0.49110  0.75000  Biso   1.000  N
  N14      1.0000 0.00000  0.99110  0.75000  Biso   1.000  N
  N15      1.0000 0.50000  0.50890  0.25000  Biso   1.000  N
  N16      1.0000 0.00000  0.00890  0.25000  Biso   1.000  N
  C1       1.0000 0.39560  0.10489  0.51530  Biso   1.000  C
  C2       1.0000 0.60440  0.10489  0.98470  Biso   1.000  C
  C3       1.0000 0.89560  0.60489  0.51530  Biso   1.000  C
  C4       1.0000 0.10440  0.60489  0.98470  Biso   1.000  C
  C5       1.0000 0.60440  0.89511  0.48470  Biso   1.000  C
  C6       1.0000 0.39560  0.89511  0.01530  Biso   1.000  C
  C7       1.0000 0.10440  0.39511  0.48470  Biso   1.000  C
  C8       1.0000 0.89560  0.39511  0.01530  Biso   1.000  C
  C9       1.0000 0.35970  0.09926  0.37760  Biso   1.000  C
  C10      1.0000 0.64030  0.09926  0.12240  Biso   1.000  C
  C11      1.0000 0.85970  0.59926  0.37760  Biso   1.000  C
  C12      1.0000 0.14030  0.59926  0.12240  Biso   1.000  C
  C13      1.0000 0.64030  0.90074  0.62240  Biso   1.000  C
  C14      1.0000 0.35970  0.90074  0.87760  Biso   1.000  C
  C15      1.0000 0.14030  0.40074  0.62240  Biso   1.000  C
  C16      1.0000 0.85970  0.40074  0.87760  Biso   1.000  C
  C17      1.0000 0.34440  0.05255  0.32340  Biso   1.000  C
  C18      1.0000 0.65560  0.05255  0.17660  Biso   1.000  C
  C19      1.0000 0.84440  0.55255  0.32340  Biso   1.000  C
  C20      1.0000 0.15560  0.55255  0.17660  Biso   1.000  C
  C21      1.0000 0.65560  0.94745  0.67660  Biso   1.000  C
  C22      1.0000 0.34440  0.94745  0.82340  Biso   1.000  C
  C23      1.0000 0.15560  0.44745  0.67660  Biso   1.000  C
  C24      1.0000 0.84440  0.44745  0.82340  Biso   1.000  C
  C25      1.0000 0.31920  0.04730  0.19690  Biso   1.000  C
  C26      1.0000 0.68080  0.04730  0.30310  Biso   1.000  C
  C27      1.0000 0.81920  0.54730  0.19690  Biso   1.000  C
  C28      1.0000 0.18080  0.54730  0.30310  Biso   1.000  C
  C29      1.0000 0.68080  0.95270  0.80310  Biso   1.000  C
  C30      1.0000 0.31920  0.95270  0.69690  Biso   1.000  C
  C31      1.0000 0.18080  0.45270  0.80310  Biso   1.000  C
  C32      1.0000 0.81920  0.45270  0.69690  Biso   1.000  C
  H9       1.0000 0.31050  0.01640  0.16160  Biso   1.000  H
  H10      1.0000 0.68950  0.01640  0.33840  Biso   1.000  H
  H11      1.0000 0.81050  0.51640  0.16160  Biso   1.000  H
  H12      1.0000 0.18950  0.51640  0.33840  Biso   1.000  H
  H13      1.0000 0.68950  0.98360  0.83840  Biso   1.000  H
  H14      1.0000 0.31050  0.98360  0.66160  Biso   1.000  H
  H15      1.0000 0.18950  0.48360  0.83840  Biso   1.000  H
  H16      1.0000 0.81050  0.48360  0.66160  Biso   1.000  H
  C33      1.0000 0.30720  0.08810  0.12410  Biso   1.000  C
  C34      1.0000 0.69280  0.08810  0.37590  Biso   1.000  C
  C35      1.0000 0.80720  0.58810  0.12410  Biso   1.000  C
  C36      1.0000 0.19280  0.58810  0.37590  Biso   1.000  C
  C37      1.0000 0.69280  0.91190  0.87590  Biso   1.000  C
  C38      1.0000 0.30720  0.91190  0.62410  Biso   1.000  C
  C39      1.0000 0.19280  0.41190  0.87590  Biso   1.000  C
  C40      1.0000 0.80720  0.41190  0.62410  Biso   1.000  C
  H17      1.0000 0.29070  0.08480  0.03970  Biso   1.000  H
  H18      1.0000 0.70930  0.08480  0.46030  Biso   1.000  H
  H19      1.0000 0.79070  0.58480  0.03970  Biso   1.000  H
  H20      1.0000 0.20930  0.58480  0.46030  Biso   1.000  H
  H21      1.0000 0.70930  0.91520  0.96030  Biso   1.000  H
  H22      1.0000 0.29070  0.91520  0.53970  Biso   1.000  H
  H23      1.0000 0.20930  0.41520  0.96030  Biso   1.000  H
  H24      1.0000 0.79070  0.41520  0.53970  Biso   1.000  H
  C41      1.0000 0.31960  0.13350  0.17680  Biso   1.000  C
  C42      1.0000 0.68040  0.13350  0.32320  Biso   1.000  C
  C43      1.0000 0.81960  0.63350  0.17680  Biso   1.000  C
  C44      1.0000 0.18040  0.63350  0.32320  Biso   1.000  C
  C45      1.0000 0.68040  0.86650  0.82320  Biso   1.000  C
  C46      1.0000 0.31960  0.86650  0.67680  Biso   1.000  C
  C47      1.0000 0.18040  0.36650  0.82320  Biso   1.000  C
  C48      1.0000 0.81960  0.36650  0.67680  Biso   1.000  C
  C49      1.0000 0.34660  0.13997  0.30220  Biso   1.000  C
  C50      1.0000 0.65340  0.13997  0.19780  Biso   1.000  C
  C51      1.0000 0.84660  0.63997  0.30220  Biso   1.000  C
  C52      1.0000 0.15340  0.63997  0.19780  Biso   1.000  C
  C53      1.0000 0.65340  0.86003  0.69780  Biso   1.000  C
  C54      1.0000 0.34660  0.86003  0.80220  Biso   1.000  C
  C55      1.0000 0.15340  0.36003  0.69780  Biso   1.000  C
  C56      1.0000 0.84660  0.36003  0.80220  Biso   1.000  C
  H25      1.0000 0.35600  0.17120  0.33600  Biso   1.000  H
  H26      1.0000 0.64400  0.17120  0.16400  Biso   1.000  H
  H27      1.0000 0.85600  0.67120  0.33600  Biso   1.000  H
  H28      1.0000 0.14400  0.67120  0.16400  Biso   1.000  H
  H29      1.0000 0.64400  0.82880  0.66400  Biso   1.000  H
  H30      1.0000 0.35600  0.82880  0.83600  Biso   1.000  H
  H31      1.0000 0.14400  0.32880  0.66400  Biso   1.000  H
  H32      1.0000 0.85600  0.32880  0.83600  Biso   1.000  H
  C57      1.0000 0.22700  0.18152  0.70430  Biso   1.000  C
  C58      1.0000 0.77300  0.18152  0.79570  Biso   1.000  C
  C59      1.0000 0.72700  0.68152  0.70430  Biso   1.000  C
  C60      1.0000 0.27300  0.68152  0.79570  Biso   1.000  C
  C61      1.0000 0.77300  0.81848  0.29570  Biso   1.000  C
  C62      1.0000 0.22700  0.81848  0.20430  Biso   1.000  C
  C63      1.0000 0.27300  0.31848  0.29570  Biso   1.000  C
  C64      1.0000 0.72700  0.31848  0.20430  Biso   1.000  C
  H33      1.0000 0.25280  0.21000  0.67890  Biso   1.000  H
  H34      1.0000 0.74720  0.21000  0.82110  Biso   1.000  H
  H35      1.0000 0.75280  0.71000  0.67890  Biso   1.000  H
  H36      1.0000 0.24720  0.71000  0.82110  Biso   1.000  H
  H37      1.0000 0.74720  0.79000  0.32110  Biso   1.000  H
  H38      1.0000 0.25280  0.79000  0.17890  Biso   1.000  H
  H39      1.0000 0.24720  0.29000  0.32110  Biso   1.000  H
  H40      1.0000 0.75280  0.29000  0.17890  Biso   1.000  H
  C65      1.0000 0.26740  0.10177  0.76580  Biso   1.000  C
  C66      1.0000 0.73260  0.10177  0.73420  Biso   1.000  C
  C67      1.0000 0.76740  0.60177  0.76580  Biso   1.000  C
  C68      1.0000 0.23260  0.60177  0.73420  Biso   1.000  C
  C69      1.0000 0.73260  0.89823  0.23420  Biso   1.000  C
  C70      1.0000 0.26740  0.89823  0.26580  Biso   1.000  C
  C71      1.0000 0.23260  0.39823  0.23420  Biso   1.000  C
  C72      1.0000 0.76740  0.39823  0.26580  Biso   1.000  C
  H41      1.0000 0.32220  0.07430  0.78530  Biso   1.000  H
  H42      1.0000 0.67780  0.07430  0.71470  Biso   1.000  H
  H43      1.0000 0.82220  0.57430  0.78530  Biso   1.000  H
  H44      1.0000 0.17780  0.57430  0.71470  Biso   1.000  H
  H45      1.0000 0.67780  0.92570  0.21470  Biso   1.000  H
  H46      1.0000 0.32220  0.92570  0.28530  Biso   1.000  H
  H47      1.0000 0.17780  0.42570  0.21470  Biso   1.000  H
  H48      1.0000 0.82220  0.42570  0.28530  Biso   1.000  H
  C73      1.0000 0.06380  0.13939  0.74460  Biso   1.000  C
  C74      1.0000 0.93620  0.13939  0.75540  Biso   1.000  C
  C75      1.0000 0.56380  0.63939  0.74460  Biso   1.000  C
  C76      1.0000 0.43620  0.63939  0.75540  Biso   1.000  C
  C77      1.0000 0.93620  0.86061  0.25540  Biso   1.000  C
  C78      1.0000 0.06380  0.86061  0.24460  Biso   1.000  C
  C79      1.0000 0.43620  0.36061  0.25540  Biso   1.000  C
  C80      1.0000 0.56380  0.36061  0.24460  Biso   1.000  C
  C81      1.0000 0.14560  0.09820  0.76920  Biso   1.000  C
  C82      1.0000 0.85440  0.09820  0.73080  Biso   1.000  C
  C83      1.0000 0.64560  0.59820  0.76920  Biso   1.000  C
  C84      1.0000 0.35440  0.59820  0.73080  Biso   1.000  C
  C85      1.0000 0.85440  0.90180  0.23080  Biso   1.000  C
  C86      1.0000 0.14560  0.90180  0.26920  Biso   1.000  C
  C87      1.0000 0.35440  0.40180  0.23080  Biso   1.000  C
  C88      1.0000 0.64560  0.40180  0.26920  Biso   1.000  C
  H49      1.0000 0.11840  0.06860  0.78790  Biso   1.000  H
  H50      1.0000 0.88160  0.06860  0.71210  Biso   1.000  H
  H51      1.0000 0.61840  0.56860  0.78790  Biso   1.000  H
  H52      1.0000 0.38160  0.56860  0.71210  Biso   1.000  H
  H53      1.0000 0.88160  0.93140  0.21210  Biso   1.000  H
  H54      1.0000 0.11840  0.93140  0.28790  Biso   1.000  H
  H55      1.0000 0.38160  0.43140  0.21210  Biso   1.000  H
  H56      1.0000 0.61840  0.43140  0.28790  Biso   1.000  H
  C89      1.0000 0.10670  0.18138  0.70760  Biso   1.000  C
  C90      1.0000 0.89330  0.18138  0.79240  Biso   1.000  C
  C91      1.0000 0.60670  0.68138  0.70760  Biso   1.000  C
  C92      1.0000 0.39330  0.68138  0.79240  Biso   1.000  C
  C93      1.0000 0.89330  0.81862  0.29240  Biso   1.000  C
  C94      1.0000 0.10670  0.81862  0.20760  Biso   1.000  C
  C95      1.0000 0.39330  0.31862  0.29240  Biso   1.000  C
  C96      1.0000 0.60670  0.31862  0.20760  Biso   1.000  C
  H57      1.0000 0.05310  0.20930  0.68520  Biso   1.000  H
  H58      1.0000 0.94690  0.20930  0.81480  Biso   1.000  H
  H59      1.0000 0.55310  0.70930  0.68520  Biso   1.000  H
  H60      1.0000 0.44690  0.70930  0.81480  Biso   1.000  H
  H61      1.0000 0.94690  0.79070  0.31480  Biso   1.000  H
  H62      1.0000 0.05310  0.79070  0.18520  Biso   1.000  H
  H63      1.0000 0.44690  0.29070  0.31480  Biso   1.000  H
  H64      1.0000 0.55310  0.29070  0.18520  Biso   1.000  H
  C97      1.0000 0.50000  0.33400  0.75000  Biso   1.000  C
  C98      1.0000 0.00000  0.83400  0.75000  Biso   1.000  C
  C99      1.0000 0.50000  0.66600  0.25000  Biso   1.000  C
  C100     1.0000 0.00000  0.16600  0.25000  Biso   1.000  C
  C101     1.0000 0.49570  0.30770  0.65130  Biso   1.000  C
  C102     1.0000 0.50430  0.30770  0.84870  Biso   1.000  C
  C103     1.0000 0.99570  0.80770  0.65130  Biso   1.000  C
  C104     1.0000 0.00430  0.80770  0.84870  Biso   1.000  C
  C105     1.0000 0.50430  0.69230  0.34870  Biso   1.000  C
  C106     1.0000 0.49570  0.69230  0.15130  Biso   1.000  C
  C107     1.0000 0.00430  0.19230  0.34870  Biso   1.000  C
  C108     1.0000 0.99570  0.19230  0.15130  Biso   1.000  C
  H65      1.0000 0.49450  0.32370  0.58140  Biso   1.000  H
  H66      1.0000 0.50550  0.32370  0.91860  Biso   1.000  H
  H67      1.0000 0.99450  0.82370  0.58140  Biso   1.000  H
  H68      1.0000 0.00550  0.82370  0.91860  Biso   1.000  H
  H69      1.0000 0.50550  0.67630  0.41860  Biso   1.000  H
  H70      1.0000 0.49450  0.67630  0.08140  Biso   1.000  H
  H71      1.0000 0.00550  0.17630  0.41860  Biso   1.000  H
  H72      1.0000 0.99450  0.17630  0.08140  Biso   1.000  H
  C109     1.0000 0.49300  0.25790  0.65320  Biso   1.000  C
  C110     1.0000 0.50700  0.25790  0.84680  Biso   1.000  C
  C111     1.0000 0.99300  0.75790  0.65320  Biso   1.000  C
  C112     1.0000 0.00700  0.75790  0.84680  Biso   1.000  C
  C113     1.0000 0.50700  0.74210  0.34680  Biso   1.000  C
  C114     1.0000 0.49300  0.74210  0.15320  Biso   1.000  C
  C115     1.0000 0.00700  0.24210  0.34680  Biso   1.000  C
  C116     1.0000 0.99300  0.24210  0.15320  Biso   1.000  C
  H73      1.0000 0.48590  0.24110  0.58200  Biso   1.000  H
  H74      1.0000 0.51410  0.24110  0.91800  Biso   1.000  H
  H75      1.0000 0.98590  0.74110  0.58200  Biso   1.000  H
  H76      1.0000 0.01410  0.74110  0.91800  Biso   1.000  H
  H77      1.0000 0.51410  0.75890  0.41800  Biso   1.000  H
  H78      1.0000 0.48590  0.75890  0.08200  Biso   1.000  H
  H79      1.0000 0.01410  0.25890  0.41800  Biso   1.000  H
  H80      1.0000 0.98590  0.25890  0.08200  Biso   1.000  H
  C117     1.0000 0.50000  0.38890  0.75000  Biso   1.000  C
  C118     1.0000 0.00000  0.88890  0.75000  Biso   1.000  C
  C119     1.0000 0.50000  0.61110  0.25000  Biso   1.000  C
  C120     1.0000 0.00000  0.11110  0.25000  Biso   1.000  C
  C121     1.0000 0.54160  0.41480  0.86330  Biso   1.000  C
  C122     1.0000 0.45840  0.41480  0.63670  Biso   1.000  C
  C123     1.0000 0.04160  0.91480  0.86330  Biso   1.000  C
  C124     1.0000 0.95840  0.91480  0.63670  Biso   1.000  C
  C125     1.0000 0.45840  0.58520  0.13670  Biso   1.000  C
  C126     1.0000 0.54160  0.58520  0.36330  Biso   1.000  C
  C127     1.0000 0.95840  0.08520  0.13670  Biso   1.000  C
  C128     1.0000 0.04160  0.08520  0.36330  Biso   1.000  C
  H81      1.0000 0.56950  0.39860  0.94080  Biso   1.000  H
  H82      1.0000 0.43050  0.39860  0.55920  Biso   1.000  H
  H83      1.0000 0.06950  0.89860  0.94080  Biso   1.000  H
  H84      1.0000 0.93050  0.89860  0.55920  Biso   1.000  H
  H85      1.0000 0.43050  0.60140  0.05920  Biso   1.000  H
  H86      1.0000 0.56950  0.60140  0.44080  Biso   1.000  H
  H87      1.0000 0.93050  0.10140  0.05920  Biso   1.000  H
  H88      1.0000 0.06950  0.10140  0.44080  Biso   1.000  H
  C129     1.0000 0.54050  0.46520  0.85860  Biso   1.000  C
  C130     1.0000 0.45950  0.46520  0.64140  Biso   1.000  C
  C131     1.0000 0.04050  0.96520  0.85860  Biso   1.000  C
  C132     1.0000 0.95950  0.96520  0.64140  Biso   1.000  C
  C133     1.0000 0.45950  0.53480  0.14140  Biso   1.000  C
  C134     1.0000 0.54050  0.53480  0.35860  Biso   1.000  C
  C135     1.0000 0.95950  0.03480  0.14140  Biso   1.000  C
  C136     1.0000 0.04050  0.03480  0.35860  Biso   1.000  C
  H89      1.0000 0.56960  0.48220  0.93510  Biso   1.000  H
  H90      1.0000 0.43040  0.48220  0.56490  Biso   1.000  H
  H91      1.0000 0.06960  0.98220  0.93510  Biso   1.000  H
  H92      1.0000 0.93040  0.98220  0.56490  Biso   1.000  H
  H93      1.0000 0.43040  0.51780  0.06490  Biso   1.000  H
  H94      1.0000 0.56960  0.51780  0.43510  Biso   1.000  H
  H95      1.0000 0.93040  0.01780  0.06490  Biso   1.000  H
  H96      1.0000 0.06960  0.01780  0.43510  Biso   1.000  H
