data_image0
_cell_length_a       10.5146
_cell_length_b       25.643
_cell_length_c       13.6739
_cell_angle_alpha    90
_cell_angle_beta     107.448
_cell_angle_gamma    90

_symmetry_space_group_name_H-M    "P 1"
_symmetry_int_tables_number       1

loop_
  _symmetry_equiv_pos_as_xyz
  'x, y, z'

loop_
  _atom_site_label
  _atom_site_occupancy
  _atom_site_fract_x
  _atom_site_fract_y
  _atom_site_fract_z
  _atom_site_thermal_displace_type
  _atom_site_B_iso_or_equiv
  _atom_site_type_symbol
  Cu1      1.0000 0.63053  0.87960  0.67809  Biso   1.000  Cu
  Cu2      1.0000 0.36947  0.37960  0.82191  Biso   1.000  Cu
  Cu3      1.0000 0.36947  0.12040  0.32191  Biso   1.000  Cu
  Cu4      1.0000 0.63053  0.62040  0.17809  Biso   1.000  Cu
  Cu5      1.0000 0.99522  0.80750  0.21426  Biso   1.000  Cu
  Cu6      1.0000 0.00478  0.30750  0.28574  Biso   1.000  Cu
  Cu7      1.0000 0.00478  0.19250  0.78574  Biso   1.000  Cu
  Cu8      1.0000 0.99522  0.69250  0.71426  Biso   1.000  Cu
  O1       1.0000 0.58300  0.91305  0.53520  Biso   1.000  O
  O2       1.0000 0.41700  0.41305  0.96480  Biso   1.000  O
  O3       1.0000 0.41700  0.08695  0.46480  Biso   1.000  O
  O4       1.0000 0.58300  0.58695  0.03520  Biso   1.000  O
  O5       1.0000 0.79840  0.92213  0.59910  Biso   1.000  O
  O6       1.0000 0.20160  0.42213  0.90090  Biso   1.000  O
  O7       1.0000 0.20160  0.07787  0.40090  Biso   1.000  O
  O8       1.0000 0.79840  0.57787  0.09910  Biso   1.000  O
  O9       1.0000 0.69380  0.95576  0.45130  Biso   1.000  O
  O10      1.0000 0.30620  0.45576  0.04870  Biso   1.000  O
  O11      1.0000 0.30620  0.04424  0.54870  Biso   1.000  O
  O12      1.0000 0.69380  0.54424  0.95130  Biso   1.000  O
  O13      1.0000 0.94580  0.87163  0.12500  Biso   1.000  O
  O14      1.0000 0.05420  0.37163  0.37500  Biso   1.000  O
  O15      1.0000 0.05420  0.12837  0.87500  Biso   1.000  O
  O16      1.0000 0.94580  0.62837  0.62500  Biso   1.000  O
  O17      1.0000 0.15780  0.86057  0.14370  Biso   1.000  O
  O18      1.0000 0.84220  0.36057  0.35630  Biso   1.000  O
  O19      1.0000 0.84220  0.13943  0.85630  Biso   1.000  O
  O20      1.0000 0.15780  0.63943  0.64370  Biso   1.000  O
  O21      1.0000 0.05180  0.92545  0.05400  Biso   1.000  O
  O22      1.0000 0.94820  0.42545  0.44600  Biso   1.000  O
  O23      1.0000 0.94820  0.07455  0.94600  Biso   1.000  O
  O24      1.0000 0.05180  0.57455  0.55400  Biso   1.000  O
  O25      1.0000 0.55970  0.79750  0.10650  Biso   1.000  O
  O26      1.0000 0.44030  0.29750  0.39350  Biso   1.000  O
  O27      1.0000 0.44030  0.20250  0.89350  Biso   1.000  O
  O28      1.0000 0.55970  0.70250  0.60650  Biso   1.000  O
  O29      1.0000 0.59830  0.87610  0.07440  Biso   1.000  O
  O30      1.0000 0.40170  0.37610  0.42560  Biso   1.000  O
  O31      1.0000 0.40170  0.12390  0.92560  Biso   1.000  O
  O32      1.0000 0.59830  0.62390  0.57440  Biso   1.000  O
  O33      1.0000 0.49390  0.82420  0.94960  Biso   1.000  O
  O34      1.0000 0.50610  0.32420  0.55040  Biso   1.000  O
  O35      1.0000 0.50610  0.17580  0.05040  Biso   1.000  O
  O36      1.0000 0.49390  0.67580  0.44960  Biso   1.000  O
  O37      1.0000 0.65310  0.81471  0.61370  Biso   1.000  O
  O38      1.0000 0.34690  0.31471  0.88630  Biso   1.000  O
  O39      1.0000 0.34690  0.18529  0.38630  Biso   1.000  O
  O40      1.0000 0.65310  0.68529  0.11370  Biso   1.000  O
  H1       1.0000 0.67470  0.79060  0.65700  Biso   1.000  H
  H2       1.0000 0.32530  0.29060  0.84300  Biso   1.000  H
  H3       1.0000 0.32530  0.20940  0.34300  Biso   1.000  H
  H4       1.0000 0.67470  0.70940  0.15700  Biso   1.000  H
  H5       1.0000 0.59540  0.80520  0.55930  Biso   1.000  H
  H6       1.0000 0.40460  0.30520  0.94070  Biso   1.000  H
  H7       1.0000 0.40460  0.19480  0.44070  Biso   1.000  H
  H8       1.0000 0.59540  0.69480  0.05930  Biso   1.000  H
  O41      1.0000 0.41400  0.86480  0.66090  Biso   1.000  O
  O42      1.0000 0.58600  0.36480  0.83910  Biso   1.000  O
  O43      1.0000 0.58600  0.13520  0.33910  Biso   1.000  O
  O44      1.0000 0.41400  0.63520  0.16090  Biso   1.000  O
  H9       1.0000 0.40030  0.88460  0.70790  Biso   1.000  H
  H10      1.0000 0.59970  0.38460  0.79210  Biso   1.000  H
  H11      1.0000 0.59970  0.11540  0.29210  Biso   1.000  H
  H12      1.0000 0.40030  0.61540  0.20790  Biso   1.000  H
  N1       1.0000 0.83190  0.80644  0.96150  Biso   1.000  N
  N2       1.0000 0.16810  0.30644  0.53850  Biso   1.000  N
  N3       1.0000 0.16810  0.19356  0.03850  Biso   1.000  N
  N4       1.0000 0.83190  0.69356  0.46150  Biso   1.000  N
  H13      1.0000 0.84090  0.83310  0.00110  Biso   1.000  H
  H14      1.0000 0.15910  0.33310  0.49890  Biso   1.000  H
  H15      1.0000 0.15910  0.16690  0.99890  Biso   1.000  H
  H16      1.0000 0.84090  0.66690  0.50110  Biso   1.000  H
  N5       1.0000 0.86620  0.71705  0.94130  Biso   1.000  N
  N6       1.0000 0.13380  0.21705  0.55870  Biso   1.000  N
  N7       1.0000 0.13380  0.28295  0.05870  Biso   1.000  N
  N8       1.0000 0.86620  0.78295  0.44130  Biso   1.000  N
  N9       1.0000 0.75680  0.77097  0.79700  Biso   1.000  N
  N10      1.0000 0.24320  0.27097  0.70300  Biso   1.000  N
  N11      1.0000 0.24320  0.22903  0.20300  Biso   1.000  N
  N12      1.0000 0.75680  0.72903  0.29700  Biso   1.000  N
  N13      1.0000 0.72740  0.85884  0.82070  Biso   1.000  N
  N14      1.0000 0.27260  0.35884  0.67930  Biso   1.000  N
  N15      1.0000 0.27260  0.14116  0.17930  Biso   1.000  N
  N16      1.0000 0.72740  0.64116  0.32070  Biso   1.000  N
  N17      1.0000 0.93750  0.75512  0.10230  Biso   1.000  N
  N18      1.0000 0.06250  0.25512  0.39770  Biso   1.000  N
  N19      1.0000 0.06250  0.24488  0.89770  Biso   1.000  N
  N20      1.0000 0.93750  0.74488  0.60230  Biso   1.000  N
  N21      1.0000 0.79940  0.68459  0.77630  Biso   1.000  N
  N22      1.0000 0.20060  0.18459  0.72370  Biso   1.000  N
  N23      1.0000 0.20060  0.31541  0.22370  Biso   1.000  N
  N24      1.0000 0.79940  0.81541  0.27630  Biso   1.000  N
  H17      1.0000 0.72330  0.68640  0.72580  Biso   1.000  H
  H18      1.0000 0.27670  0.18640  0.77420  Biso   1.000  H
  H19      1.0000 0.27670  0.31360  0.27420  Biso   1.000  H
  H20      1.0000 0.72330  0.81360  0.22580  Biso   1.000  H
  N25      1.0000 0.62300  0.94848  0.74090  Biso   1.000  N
  N26      1.0000 0.37700  0.44848  0.75910  Biso   1.000  N
  N27      1.0000 0.37700  0.05152  0.25910  Biso   1.000  N
  N28      1.0000 0.62300  0.55152  0.24090  Biso   1.000  N
  N29      1.0000 0.07580  0.74597  0.29880  Biso   1.000  N
  N30      1.0000 0.92420  0.24597  0.20120  Biso   1.000  N
  N31      1.0000 0.92420  0.25403  0.70120  Biso   1.000  N
  N32      1.0000 0.07580  0.75403  0.79880  Biso   1.000  N
  N33      1.0000 0.05590  0.64093  0.83110  Biso   1.000  N
  N34      1.0000 0.94410  0.14093  0.66890  Biso   1.000  N
  N35      1.0000 0.94410  0.35907  0.16890  Biso   1.000  N
  N36      1.0000 0.05590  0.85907  0.33110  Biso   1.000  N
  N37      1.0000 0.69420  0.93094  0.52830  Biso   1.000  N
  N38      1.0000 0.30580  0.43094  0.97170  Biso   1.000  N
  N39      1.0000 0.30580  0.06906  0.47170  Biso   1.000  N
  N40      1.0000 0.69420  0.56906  0.02830  Biso   1.000  N
  N41      1.0000 0.05710  0.88660  0.10720  Biso   1.000  N
  N42      1.0000 0.94290  0.38660  0.39280  Biso   1.000  N
  N43      1.0000 0.94290  0.11340  0.89280  Biso   1.000  N
  N44      1.0000 0.05710  0.61340  0.60720  Biso   1.000  N
  N45      1.0000 0.55180  0.83350  0.04510  Biso   1.000  N
  N46      1.0000 0.44820  0.33350  0.45490  Biso   1.000  N
  N47      1.0000 0.44820  0.16650  0.95490  Biso   1.000  N
  N48      1.0000 0.55180  0.66650  0.54510  Biso   1.000  N
  C1       1.0000 0.77030  0.81250  0.85770  Biso   1.000  C
  C2       1.0000 0.22970  0.31250  0.64230  Biso   1.000  C
  C3       1.0000 0.22970  0.18750  0.14230  Biso   1.000  C
  C4       1.0000 0.77030  0.68750  0.35770  Biso   1.000  C
  C5       1.0000 0.87930  0.75860  0.00320  Biso   1.000  C
  C6       1.0000 0.12070  0.25860  0.49680  Biso   1.000  C
  C7       1.0000 0.12070  0.24140  0.99680  Biso   1.000  C
  C8       1.0000 0.87930  0.74140  0.50320  Biso   1.000  C
  C9       1.0000 0.80770  0.72610  0.84190  Biso   1.000  C
  C10      1.0000 0.19230  0.22610  0.65810  Biso   1.000  C
  C11      1.0000 0.19230  0.27390  0.15810  Biso   1.000  C
  C12      1.0000 0.80770  0.77390  0.34190  Biso   1.000  C
  C13      1.0000 0.74850  0.90170  0.89300  Biso   1.000  C
  C14      1.0000 0.25150  0.40170  0.60700  Biso   1.000  C
  C15      1.0000 0.25150  0.09830  0.10700  Biso   1.000  C
  C16      1.0000 0.74850  0.59830  0.39300  Biso   1.000  C
  H21      1.0000 0.84340  0.90660  0.92490  Biso   1.000  H
  H22      1.0000 0.15660  0.40660  0.57510  Biso   1.000  H
  H23      1.0000 0.15660  0.09340  0.07510  Biso   1.000  H
  H24      1.0000 0.84340  0.59340  0.42490  Biso   1.000  H
  H25      1.0000 0.70860  0.89330  0.94640  Biso   1.000  H
  H26      1.0000 0.29140  0.39330  0.55360  Biso   1.000  H
  H27      1.0000 0.29140  0.10670  0.05360  Biso   1.000  H
  H28      1.0000 0.70860  0.60670  0.44640  Biso   1.000  H
  C17      1.0000 0.68860  0.95150  0.84110  Biso   1.000  C
  C18      1.0000 0.31140  0.45150  0.65890  Biso   1.000  C
  C19      1.0000 0.31140  0.04850  0.15890  Biso   1.000  C
  C20      1.0000 0.68860  0.54850  0.34110  Biso   1.000  C
  C21      1.0000 0.69810  0.99750  0.89450  Biso   1.000  C
  C22      1.0000 0.30190  0.49750  0.60550  Biso   1.000  C
  C23      1.0000 0.30190  0.00250  0.10550  Biso   1.000  C
  C24      1.0000 0.69810  0.50250  0.39450  Biso   1.000  C
  H29      1.0000 0.74640  0.99880  0.96370  Biso   1.000  H
  H30      1.0000 0.25360  0.49880  0.53630  Biso   1.000  H
  H31      1.0000 0.25360  0.00120  0.03630  Biso   1.000  H
  H32      1.0000 0.74640  0.50120  0.46370  Biso   1.000  H
  C25      1.0000 0.63680  0.04150  0.84620  Biso   1.000  C
  C26      1.0000 0.36320  0.54150  0.65380  Biso   1.000  C
  C27      1.0000 0.36320  0.95850  0.15380  Biso   1.000  C
  C28      1.0000 0.63680  0.45850  0.34620  Biso   1.000  C
  H33      1.0000 0.64080  0.07260  0.88180  Biso   1.000  H
  H34      1.0000 0.35920  0.57260  0.61820  Biso   1.000  H
  H35      1.0000 0.35920  0.92740  0.11820  Biso   1.000  H
  H36      1.0000 0.64080  0.42740  0.38180  Biso   1.000  H
  C29      1.0000 0.56790  0.03830  0.74170  Biso   1.000  C
  C30      1.0000 0.43210  0.53830  0.75830  Biso   1.000  C
  C31      1.0000 0.43210  0.96170  0.25830  Biso   1.000  C
  C32      1.0000 0.56790  0.46170  0.24170  Biso   1.000  C
  H37      1.0000 0.52690  0.06760  0.70600  Biso   1.000  H
  H38      1.0000 0.47310  0.56760  0.79400  Biso   1.000  H
  H39      1.0000 0.47310  0.93240  0.29400  Biso   1.000  H
  H40      1.0000 0.52690  0.43240  0.20600  Biso   1.000  H
  C33      1.0000 0.56170  0.99220  0.69320  Biso   1.000  C
  C34      1.0000 0.43830  0.49220  0.80680  Biso   1.000  C
  C35      1.0000 0.43830  0.00780  0.30680  Biso   1.000  C
  C36      1.0000 0.56170  0.50780  0.19320  Biso   1.000  C
  H41      1.0000 0.51330  0.99020  0.62410  Biso   1.000  H
  H42      1.0000 0.48670  0.49020  0.87590  Biso   1.000  H
  H43      1.0000 0.48670  0.00980  0.37590  Biso   1.000  H
  H44      1.0000 0.51330  0.50980  0.12410  Biso   1.000  H
  C37      1.0000 0.97600  0.70170  0.13760  Biso   1.000  C
  C38      1.0000 0.02400  0.20170  0.36240  Biso   1.000  C
  C39      1.0000 0.02400  0.29830  0.86240  Biso   1.000  C
  C40      1.0000 0.97600  0.79830  0.63760  Biso   1.000  C
  H45      1.0000 0.03370  0.68760  0.10050  Biso   1.000  H
  H46      1.0000 0.96630  0.18760  0.39950  Biso   1.000  H
  H47      1.0000 0.96630  0.31240  0.89950  Biso   1.000  H
  H48      1.0000 0.03370  0.81240  0.60050  Biso   1.000  H
  H49      1.0000 0.89680  0.68010  0.12270  Biso   1.000  H
  H50      1.0000 0.10320  0.18010  0.37730  Biso   1.000  H
  H51      1.0000 0.10320  0.31990  0.87730  Biso   1.000  H
  H52      1.0000 0.89680  0.81990  0.62270  Biso   1.000  H
  C41      1.0000 0.04660  0.70000  0.24990  Biso   1.000  C
  C42      1.0000 0.95340  0.20000  0.25010  Biso   1.000  C
  C43      1.0000 0.95340  0.30000  0.75010  Biso   1.000  C
  C44      1.0000 0.04660  0.80000  0.74990  Biso   1.000  C
  C45      1.0000 0.08470  0.65360  0.30110  Biso   1.000  C
  C46      1.0000 0.91530  0.15360  0.19890  Biso   1.000  C
  C47      1.0000 0.91530  0.34640  0.69890  Biso   1.000  C
  C48      1.0000 0.08470  0.84640  0.80110  Biso   1.000  C
  H53      1.0000 0.06400  0.62210  0.26630  Biso   1.000  H
  H54      1.0000 0.93600  0.12210  0.23370  Biso   1.000  H
  H55      1.0000 0.93600  0.37790  0.73370  Biso   1.000  H
  H56      1.0000 0.06400  0.87790  0.76630  Biso   1.000  H
  C49      1.0000 0.15280  0.65410  0.40330  Biso   1.000  C
  C50      1.0000 0.84720  0.15410  0.09670  Biso   1.000  C
  C51      1.0000 0.84720  0.34590  0.59670  Biso   1.000  C
  C52      1.0000 0.15280  0.84590  0.90330  Biso   1.000  C
  H57      1.0000 0.17730  0.62290  0.43880  Biso   1.000  H
  H58      1.0000 0.82270  0.12290  0.06120  Biso   1.000  H
  H59      1.0000 0.82270  0.37710  0.56120  Biso   1.000  H
  H60      1.0000 0.17730  0.87710  0.93880  Biso   1.000  H
  C53      1.0000 0.18480  0.70090  0.45330  Biso   1.000  C
  C54      1.0000 0.81520  0.20090  0.04670  Biso   1.000  C
  C55      1.0000 0.81520  0.29910  0.54670  Biso   1.000  C
  C56      1.0000 0.18480  0.79910  0.95330  Biso   1.000  C
  H61      1.0000 0.23320  0.70200  0.52250  Biso   1.000  H
  H62      1.0000 0.76680  0.20200  0.97750  Biso   1.000  H
  H63      1.0000 0.76680  0.29800  0.47750  Biso   1.000  H
  H64      1.0000 0.23320  0.79800  0.02250  Biso   1.000  H
  C57      1.0000 0.14460  0.74580  0.39990  Biso   1.000  C
  C58      1.0000 0.85540  0.24580  0.10010  Biso   1.000  C
  C59      1.0000 0.85540  0.25420  0.60010  Biso   1.000  C
  C60      1.0000 0.14460  0.75420  0.89990  Biso   1.000  C
  H65      1.0000 0.16500  0.77750  0.43400  Biso   1.000  H
  H66      1.0000 0.83500  0.27750  0.06600  Biso   1.000  H
  H67      1.0000 0.83500  0.22250  0.56600  Biso   1.000  H
  H68      1.0000 0.16500  0.72250  0.93400  Biso   1.000  H
  C61      1.0000 0.82170  0.63160  0.82020  Biso   1.000  C
  C62      1.0000 0.17830  0.13160  0.67980  Biso   1.000  C
  C63      1.0000 0.17830  0.36840  0.17980  Biso   1.000  C
  C64      1.0000 0.82170  0.86840  0.32020  Biso   1.000  C
  H69      1.0000 0.78220  0.60660  0.76640  Biso   1.000  H
  H70      1.0000 0.21780  0.10660  0.73360  Biso   1.000  H
  H71      1.0000 0.21780  0.39340  0.23360  Biso   1.000  H
  H72      1.0000 0.78220  0.89340  0.26640  Biso   1.000  H
  H73      1.0000 0.77580  0.62840  0.87170  Biso   1.000  H
  H74      1.0000 0.22420  0.12840  0.62830  Biso   1.000  H
  H75      1.0000 0.22420  0.37160  0.12830  Biso   1.000  H
  H76      1.0000 0.77580  0.87160  0.37170  Biso   1.000  H
  C65      1.0000 0.96410  0.61780  0.86740  Biso   1.000  C
  C66      1.0000 0.03590  0.11780  0.63260  Biso   1.000  C
  C67      1.0000 0.03590  0.38220  0.13260  Biso   1.000  C
  C68      1.0000 0.96410  0.88220  0.36740  Biso   1.000  C
  C69      1.0000 0.00320  0.58040  0.94390  Biso   1.000  C
  C70      1.0000 0.99680  0.08040  0.55610  Biso   1.000  C
  C71      1.0000 0.99680  0.41960  0.05610  Biso   1.000  C
  C72      1.0000 0.00320  0.91960  0.44390  Biso   1.000  C
  H77      1.0000 0.94000  0.56480  0.96960  Biso   1.000  H
  H78      1.0000 0.06000  0.06480  0.53040  Biso   1.000  H
  H79      1.0000 0.06000  0.43520  0.03040  Biso   1.000  H
  H80      1.0000 0.94000  0.93520  0.46960  Biso   1.000  H
  C73      1.0000 0.13420  0.56650  0.98130  Biso   1.000  C
  C74      1.0000 0.86580  0.06650  0.51870  Biso   1.000  C
  C75      1.0000 0.86580  0.43350  0.01870  Biso   1.000  C
  C76      1.0000 0.13420  0.93350  0.48130  Biso   1.000  C
  H81      1.0000 0.16060  0.54130  0.03240  Biso   1.000  H
  H82      1.0000 0.83940  0.04130  0.46760  Biso   1.000  H
  H83      1.0000 0.83940  0.45870  0.96760  Biso   1.000  H
  H84      1.0000 0.16060  0.95870  0.53240  Biso   1.000  H
  C77      1.0000 0.22700  0.59010  0.94280  Biso   1.000  C
  C78      1.0000 0.77300  0.09010  0.55720  Biso   1.000  C
  C79      1.0000 0.77300  0.40990  0.05720  Biso   1.000  C
  C80      1.0000 0.22700  0.90990  0.44280  Biso   1.000  C
  H85      1.0000 0.31660  0.58100  0.96670  Biso   1.000  H
  H86      1.0000 0.68340  0.08100  0.53330  Biso   1.000  H
  H87      1.0000 0.68340  0.41900  0.03330  Biso   1.000  H
  H88      1.0000 0.31660  0.91900  0.46670  Biso   1.000  H
  C81      1.0000 0.18380  0.62700  0.86910  Biso   1.000  C
  C82      1.0000 0.81620  0.12700  0.63090  Biso   1.000  C
  C83      1.0000 0.81620  0.37300  0.13090  Biso   1.000  C
  C84      1.0000 0.18380  0.87300  0.36910  Biso   1.000  C
  H89      1.0000 0.24630  0.64340  0.84380  Biso   1.000  H
  H90      1.0000 0.75370  0.14340  0.65620  Biso   1.000  H
  H91      1.0000 0.75370  0.35660  0.15620  Biso   1.000  H
  H92      1.0000 0.24630  0.85660  0.34380  Biso   1.000  H
  C85      1.0000 0.36730  0.81400  0.67660  Biso   1.000  C
  C86      1.0000 0.63270  0.31400  0.82340  Biso   1.000  C
  C87      1.0000 0.63270  0.18600  0.32340  Biso   1.000  C
  C88      1.0000 0.36730  0.68600  0.17660  Biso   1.000  C
  H93      1.0000 0.41260  0.78820  0.64840  Biso   1.000  H
  H94      1.0000 0.58740  0.28820  0.85160  Biso   1.000  H
  H95      1.0000 0.58740  0.21180  0.35160  Biso   1.000  H
  H96      1.0000 0.41260  0.71180  0.14840  Biso   1.000  H
  H97      1.0000 0.27310  0.81180  0.64310  Biso   1.000  H
  H98      1.0000 0.72690  0.31180  0.85690  Biso   1.000  H
  H99      1.0000 0.72690  0.18820  0.35690  Biso   1.000  H
  H100     1.0000 0.27310  0.68820  0.14310  Biso   1.000  H
  H101     1.0000 0.38500  0.80780  0.74870  Biso   1.000  H
  H102     1.0000 0.61500  0.30780  0.75130  Biso   1.000  H
  H103     1.0000 0.61500  0.19220  0.25130  Biso   1.000  H
  H104     1.0000 0.38500  0.69220  0.24870  Biso   1.000  H
  C89      1.0000 0.48090  0.80210  0.34720  Biso   1.000  C
  C90      1.0000 0.51910  0.30210  0.15280  Biso   1.000  C
  C91      1.0000 0.51910  0.19790  0.65280  Biso   1.000  C
  C92      1.0000 0.48090  0.69790  0.84720  Biso   1.000  C
  H105     1.0000 0.50580  0.83820  0.35270  Biso   1.000  H
  H106     1.0000 0.49420  0.33820  0.14730  Biso   1.000  H
  H107     1.0000 0.49420  0.16180  0.64730  Biso   1.000  H
  H108     1.0000 0.50580  0.66180  0.85270  Biso   1.000  H
  H109     1.0000 0.39940  0.79760  0.29260  Biso   1.000  H
  H110     1.0000 0.60060  0.29760  0.20740  Biso   1.000  H
  H111     1.0000 0.60060  0.20240  0.70740  Biso   1.000  H
  H112     1.0000 0.39940  0.70240  0.79260  Biso   1.000  H
  H113     1.0000 0.55010  0.78180  0.33320  Biso   1.000  H
  H114     1.0000 0.44990  0.28180  0.16680  Biso   1.000  H
  H115     1.0000 0.44990  0.21820  0.66680  Biso   1.000  H
  H116     1.0000 0.55010  0.71820  0.83320  Biso   1.000  H
  O45      1.0000 0.46210  0.78510  0.44130  Biso   1.000  O
  O46      1.0000 0.53790  0.28510  0.05870  Biso   1.000  O
  O47      1.0000 0.53790  0.21490  0.55870  Biso   1.000  O
  O48      1.0000 0.46210  0.71490  0.94130  Biso   1.000  O
  H117     1.0000 0.45790  0.75160  0.44390  Biso   1.000  H
  H118     1.0000 0.54210  0.25160  0.05610  Biso   1.000  H
  H119     1.0000 0.54210  0.24840  0.55610  Biso   1.000  H
  H120     1.0000 0.45790  0.74840  0.94390  Biso   1.000  H
  C93      1.0000 0.00240  0.00010  0.77690  Biso   1.000  C
  C94      1.0000 0.99760  0.50010  0.72310  Biso   1.000  C
  C95      1.0000 0.99760  0.99990  0.22310  Biso   1.000  C
  C96      1.0000 0.00240  0.49990  0.27690  Biso   1.000  C
  H121     1.0000 0.07500  0.02250  0.81200  Biso   1.000  H
  H122     1.0000 0.92500  0.52250  0.68800  Biso   1.000  H
  H123     1.0000 0.92500  0.97750  0.18800  Biso   1.000  H
  H124     1.0000 0.07500  0.47750  0.31200  Biso   1.000  H
  H125     1.0000 0.98620  0.97530  0.82440  Biso   1.000  H
  H126     1.0000 0.01380  0.47530  0.67560  Biso   1.000  H
  H127     1.0000 0.01380  0.02470  0.17560  Biso   1.000  H
  H128     1.0000 0.98620  0.52470  0.32440  Biso   1.000  H
  H129     1.0000 0.92380  0.02070  0.74840  Biso   1.000  H
  H130     1.0000 0.07620  0.52070  0.75160  Biso   1.000  H
  H131     1.0000 0.07620  0.97930  0.25160  Biso   1.000  H
  H132     1.0000 0.92380  0.47930  0.24840  Biso   1.000  H
  O49      1.0000 0.03590  0.97290  0.69600  Biso   1.000  O
  O50      1.0000 0.96410  0.47290  0.80400  Biso   1.000  O
  O51      1.0000 0.96410  0.02710  0.30400  Biso   1.000  O
  O52      1.0000 0.03590  0.52710  0.19600  Biso   1.000  O
  H133     1.0000 0.95970  0.96250  0.64990  Biso   1.000  H
  H134     1.0000 0.04030  0.46250  0.85010  Biso   1.000  H
  H135     1.0000 0.04030  0.03750  0.35010  Biso   1.000  H
  H136     1.0000 0.95970  0.53750  0.14990  Biso   1.000  H
  C97      1.0000 0.35120  0.95160  0.84900  Biso   1.000  C
  C98      1.0000 0.64880  0.45160  0.65100  Biso   1.000  C
  C99      1.0000 0.64880  0.04840  0.15100  Biso   1.000  C
  C100     1.0000 0.35120  0.54840  0.34900  Biso   1.000  C
  H137     1.0000 0.39430  0.98490  0.85380  Biso   1.000  H
  H138     1.0000 0.60570  0.48490  0.64620  Biso   1.000  H
  H139     1.0000 0.60570  0.01510  0.14620  Biso   1.000  H
  H140     1.0000 0.39430  0.51510  0.35380  Biso   1.000  H
  H141     1.0000 0.41520  0.92570  0.88280  Biso   1.000  H
  H142     1.0000 0.58480  0.42570  0.61720  Biso   1.000  H
  H143     1.0000 0.58480  0.07430  0.11720  Biso   1.000  H
  H144     1.0000 0.41520  0.57430  0.38280  Biso   1.000  H
  H145     1.0000 0.28180  0.95340  0.88130  Biso   1.000  H
  H146     1.0000 0.71820  0.45340  0.61870  Biso   1.000  H
  H147     1.0000 0.71820  0.04660  0.11870  Biso   1.000  H
  H148     1.0000 0.28180  0.54660  0.38130  Biso   1.000  H
  O53      1.0000 0.29360  0.93760  0.74150  Biso   1.000  O
  O54      1.0000 0.70640  0.43760  0.75850  Biso   1.000  O
  O55      1.0000 0.70640  0.06240  0.25850  Biso   1.000  O
  O56      1.0000 0.29360  0.56240  0.24150  Biso   1.000  O
  H149     1.0000 0.23880  0.96490  0.72890  Biso   1.000  H
  H150     1.0000 0.76120  0.46490  0.77110  Biso   1.000  H
  H151     1.0000 0.76120  0.03510  0.27110  Biso   1.000  H
  H152     1.0000 0.23880  0.53510  0.22890  Biso   1.000  H
