data_image0
_cell_length_a       7.5069
_cell_length_b       12.5901
_cell_length_c       16.6286
_cell_angle_alpha    88.738
_cell_angle_beta     84.968
_cell_angle_gamma    85.381

_symmetry_space_group_name_H-M    "P 1"
_symmetry_int_tables_number       1

loop_
  _symmetry_equiv_pos_as_xyz
  'x, y, z'

loop_
  _atom_site_label
  _atom_site_occupancy
  _atom_site_fract_x
  _atom_site_fract_y
  _atom_site_fract_z
  _atom_site_thermal_displace_type
  _atom_site_B_iso_or_equiv
  _atom_site_type_symbol
  Cu1      1.0000 0.06172  0.37193  0.04841  Biso   1.000  Cu
  Cu2      1.0000 0.93828  0.62807  0.95159  Biso   1.000  Cu
  Cu3      1.0000 0.45428  0.12833  0.35629  Biso   1.000  Cu
  Cu4      1.0000 0.54572  0.87167  0.64371  Biso   1.000  Cu
  Cu5      1.0000 0.29845  0.09936  0.92661  Biso   1.000  Cu
  Cu6      1.0000 0.70155  0.90064  0.07339  Biso   1.000  Cu
  Cl1      1.0000 0.03350  0.26579  0.94176  Biso   1.000  Cl
  Cl2      1.0000 0.96650  0.73421  0.05824  Biso   1.000  Cl
  Cl3      1.0000 0.22380  0.48426  0.96889  Biso   1.000  Cl
  Cl4      1.0000 0.77620  0.51574  0.03111  Biso   1.000  Cl
  Cl5      1.0000 0.36050  0.21970  0.46693  Biso   1.000  Cl
  Cl6      1.0000 0.63950  0.78030  0.53307  Biso   1.000  Cl
  Cl7      1.0000 0.74930  0.14120  0.35754  Biso   1.000  Cl
  Cl8      1.0000 0.25070  0.85880  0.64246  Biso   1.000  Cl
  Cl9      1.0000 0.10480  0.99253  0.87751  Biso   1.000  Cl
  Cl10     1.0000 0.89520  0.00747  0.12249  Biso   1.000  Cl
  O1       1.0000 0.25890  0.02550  0.02850  Biso   1.000  O
  O2       1.0000 0.74110  0.97450  0.97150  Biso   1.000  O
  H1       1.0000 0.31270  0.06010  0.05940  Biso   1.000  H
  H2       1.0000 0.68730  0.93990  0.94060  Biso   1.000  H
  H3       1.0000 0.15250  0.02090  0.04370  Biso   1.000  H
  H4       1.0000 0.84750  0.97910  0.95630  Biso   1.000  H
  N1       1.0000 0.64940  0.21460  0.18620  Biso   1.000  N
  N2       1.0000 0.35060  0.78540  0.81380  Biso   1.000  N
  H5       1.0000 0.67630  0.22440  0.23460  Biso   1.000  H
  H6       1.0000 0.32370  0.77560  0.76540  Biso   1.000  H
  N3       1.0000 0.45000  0.14880  0.10200  Biso   1.000  N
  N4       1.0000 0.55000  0.85120  0.89800  Biso   1.000  N
  N5       1.0000 0.68020  0.25170  0.04960  Biso   1.000  N
  N6       1.0000 0.31980  0.74830  0.95040  Biso   1.000  N
  H7       1.0000 0.73000  0.28520  0.00910  Biso   1.000  H
  H8       1.0000 0.27000  0.71480  0.99090  Biso   1.000  H
  N7       1.0000 0.89890  0.29970  0.13000  Biso   1.000  N
  N8       1.0000 0.10110  0.70030  0.87000  Biso   1.000  N
  N9       1.0000 0.42920  0.11160  0.23950  Biso   1.000  N
  N10      1.0000 0.57080  0.88840  0.76050  Biso   1.000  N
  N11      1.0000 0.48010  0.19010  0.96600  Biso   1.000  N
  N12      1.0000 0.51990  0.80990  0.03400  Biso   1.000  N
  N13      1.0000 0.19680  0.39310  0.14510  Biso   1.000  N
  N14      1.0000 0.80320  0.60690  0.85490  Biso   1.000  N
  N15      1.0000 0.27520  0.02300  0.36930  Biso   1.000  N
  N16      1.0000 0.72480  0.97700  0.63070  Biso   1.000  N
  N17      1.0000 0.39130  0.15110  0.81930  Biso   1.000  N
  N18      1.0000 0.60870  0.84890  0.18070  Biso   1.000  N
  C1       1.0000 0.75080  0.25650  0.12340  Biso   1.000  C
  C2       1.0000 0.24920  0.74350  0.87660  Biso   1.000  C
  C3       1.0000 0.50580  0.15730  0.17520  Biso   1.000  C
  C4       1.0000 0.49420  0.84270  0.82480  Biso   1.000  C
  C5       1.0000 0.53540  0.19630  0.03750  Biso   1.000  C
  C6       1.0000 0.46460  0.80370  0.96250  Biso   1.000  C
  C7       1.0000 0.95200  0.30350  0.21350  Biso   1.000  C
  C8       1.0000 0.04800  0.69650  0.78650  Biso   1.000  C
  H9       1.0000 0.96510  0.23180  0.23580  Biso   1.000  H
  H10      1.0000 0.03490  0.76820  0.76420  Biso   1.000  H
  H11      1.0000 0.85890  0.34390  0.24690  Biso   1.000  H
  H12      1.0000 0.14110  0.65610  0.75310  Biso   1.000  H
  C9       1.0000 0.12500  0.35430  0.21460  Biso   1.000  C
  C10      1.0000 0.87500  0.64570  0.78540  Biso   1.000  C
  C11      1.0000 0.20530  0.35810  0.28690  Biso   1.000  C
  C12      1.0000 0.79470  0.64190  0.71310  Biso   1.000  C
  H13      1.0000 0.15120  0.33010  0.33430  Biso   1.000  H
  H14      1.0000 0.84880  0.66990  0.66570  Biso   1.000  H
  C13      1.0000 0.36540  0.40370  0.28710  Biso   1.000  C
  C14      1.0000 0.63460  0.59630  0.71290  Biso   1.000  C
  H15      1.0000 0.42180  0.40740  0.33440  Biso   1.000  H
  H16      1.0000 0.57820  0.59260  0.66560  Biso   1.000  H
  C15      1.0000 0.44160  0.44470  0.21390  Biso   1.000  C
  C16      1.0000 0.55840  0.55530  0.78610  Biso   1.000  C
  H17      1.0000 0.54950  0.47660  0.21200  Biso   1.000  H
  H18      1.0000 0.45050  0.52340  0.78800  Biso   1.000  H
  C17      1.0000 0.35520  0.43710  0.14570  Biso   1.000  C
  C18      1.0000 0.64480  0.56290  0.85430  Biso   1.000  C
  H19      1.0000 0.40770  0.46340  0.09740  Biso   1.000  H
  H20      1.0000 0.59230  0.53660  0.90260  Biso   1.000  H
  C19      1.0000 0.28260  0.04700  0.22480  Biso   1.000  C
  C20      1.0000 0.71740  0.95300  0.77520  Biso   1.000  C
  H21      1.0000 0.32330  0.99520  0.18350  Biso   1.000  H
  H22      1.0000 0.67670  0.00480  0.81650  Biso   1.000  H
  H23      1.0000 0.18410  0.09240  0.20550  Biso   1.000  H
  H24      1.0000 0.81590  0.90760  0.79450  Biso   1.000  H
  C21      1.0000 0.21930  0.99070  0.30040  Biso   1.000  C
  C22      1.0000 0.78070  0.00930  0.69960  Biso   1.000  C
  C23      1.0000 0.10250  0.90960  0.30130  Biso   1.000  C
  C24      1.0000 0.89750  0.09040  0.69870  Biso   1.000  C
  H25      1.0000 0.05880  0.88970  0.25370  Biso   1.000  H
  H26      1.0000 0.94120  0.11030  0.74630  Biso   1.000  H
  C25      1.0000 0.05300  0.85940  0.37270  Biso   1.000  C
  C26      1.0000 0.94700  0.14060  0.62730  Biso   1.000  C
  H27      1.0000 0.97890  0.80360  0.37340  Biso   1.000  H
  H28      1.0000 0.02110  0.19640  0.62660  Biso   1.000  H
  C27      1.0000 0.11230  0.89140  0.44320  Biso   1.000  C
  C28      1.0000 0.88770  0.10860  0.55680  Biso   1.000  C
  H29      1.0000 0.07700  0.85910  0.49220  Biso   1.000  H
  H30      1.0000 0.92300  0.14090  0.50780  Biso   1.000  H
  C29      1.0000 0.22400  0.97140  0.43970  Biso   1.000  C
  C30      1.0000 0.77600  0.02860  0.56030  Biso   1.000  C
  H31      1.0000 0.26740  0.99190  0.48720  Biso   1.000  H
  H32      1.0000 0.73260  0.00810  0.51280  Biso   1.000  H
  C31      1.0000 0.56900  0.24920  0.90000  Biso   1.000  C
  C32      1.0000 0.43100  0.75080  0.10000  Biso   1.000  C
  H33      1.0000 0.69710  0.22990  0.89760  Biso   1.000  H
  H34      1.0000 0.30290  0.77010  0.10240  Biso   1.000  H
  H35      1.0000 0.54980  0.32480  0.91100  Biso   1.000  H
  H36      1.0000 0.45020  0.67520  0.08900  Biso   1.000  H
  C33      1.0000 0.50360  0.22890  0.82040  Biso   1.000  C
  C34      1.0000 0.49640  0.77110  0.17960  Biso   1.000  C
  C35      1.0000 0.56190  0.28090  0.75070  Biso   1.000  C
  C36      1.0000 0.43810  0.71910  0.24930  Biso   1.000  C
  H37      1.0000 0.63910  0.33470  0.75270  Biso   1.000  H
  H38      1.0000 0.36090  0.66530  0.24730  Biso   1.000  H
  C37      1.0000 0.50640  0.25350  0.67860  Biso   1.000  C
  C38      1.0000 0.49360  0.74650  0.32140  Biso   1.000  C
  H39      1.0000 0.54280  0.28970  0.63140  Biso   1.000  H
  H40      1.0000 0.45720  0.71030  0.36860  Biso   1.000  H
  C39      1.0000 0.39590  0.17170  0.67640  Biso   1.000  C
  C40      1.0000 0.60410  0.82830  0.32360  Biso   1.000  C
  H41      1.0000 0.35930  0.14960  0.62790  Biso   1.000  H
  H42      1.0000 0.64070  0.85040  0.37210  Biso   1.000  H
  C41      1.0000 0.34170  0.12400  0.74820  Biso   1.000  C
  C42      1.0000 0.65830  0.87600  0.25180  Biso   1.000  C
  H43      1.0000 0.26570  0.06940  0.74720  Biso   1.000  H
  H44      1.0000 0.73430  0.93060  0.25280  Biso   1.000  H
  C43      1.0000 0.04170  0.37850  0.74930  Biso   1.000  C
  C44      1.0000 0.95830  0.62150  0.25070  Biso   1.000  C
  H45      1.0000 0.06830  0.30410  0.76040  Biso   1.000  H
  H46      1.0000 0.93170  0.69590  0.23960  Biso   1.000  H
  H47      1.0000 0.05270  0.39110  0.69200  Biso   1.000  H
  H48      1.0000 0.94730  0.60890  0.30800  Biso   1.000  H
  H49      1.0000 0.92140  0.39970  0.77060  Biso   1.000  H
  H50      1.0000 0.07860  0.60030  0.22940  Biso   1.000  H
  O3       1.0000 0.16320  0.43840  0.78580  Biso   1.000  O
  O4       1.0000 0.83680  0.56160  0.21420  Biso   1.000  O
  H51      1.0000 0.08620  0.44190  0.82670  Biso   1.000  H
  H52      1.0000 0.91380  0.55810  0.17330  Biso   1.000  H
  C45      1.0000 0.19900  0.63280  0.53130  Biso   1.000  C
  C46      1.0000 0.80100  0.36720  0.46870  Biso   1.000  C
  H53      1.0000 0.08610  0.67250  0.54770  Biso   1.000  H
  H54      1.0000 0.91390  0.32750  0.45230  Biso   1.000  H
  H55      1.0000 0.29210  0.68230  0.52610  Biso   1.000  H
  H56      1.0000 0.70790  0.31770  0.47390  Biso   1.000  H
  Cl11     1.0000 0.18580  0.57710  0.44350  Biso   1.000  Cl
  Cl12     1.0000 0.81420  0.42290  0.55650  Biso   1.000  Cl
  Cl13     1.0000 0.25110  0.53070  0.60970  Biso   1.000  Cl
  Cl14     1.0000 0.74890  0.46930  0.39030  Biso   1.000  Cl
  C47      1.0000 0.34700  0.59200  0.52040  Biso   1.000  C
  C48      1.0000 0.65300  0.40800  0.47960  Biso   1.000  C
  H57      1.0000 0.46350  0.55710  0.50340  Biso   1.000  H
  H58      1.0000 0.53650  0.44290  0.49660  Biso   1.000  H
  H59      1.0000 0.36070  0.66690  0.52920  Biso   1.000  H
  H60      1.0000 0.63930  0.33310  0.47080  Biso   1.000  H
