data_image0
_cell_length_a       14.1481
_cell_length_b       14.8246
_cell_length_c       9.8662
_cell_angle_alpha    90
_cell_angle_beta     108.243
_cell_angle_gamma    90

_symmetry_space_group_name_H-M    "P 1"
_symmetry_int_tables_number       1

loop_
  _symmetry_equiv_pos_as_xyz
  'x, y, z'

loop_
  _atom_site_label
  _atom_site_occupancy
  _atom_site_fract_x
  _atom_site_fract_y
  _atom_site_fract_z
  _atom_site_thermal_displace_type
  _atom_site_B_iso_or_equiv
  _atom_site_type_symbol
  C1       1.0000 0.05740  0.12760  0.43850  Biso   1.000  C
  C2       1.0000 0.94260  0.62760  0.06150  Biso   1.000  C
  C3       1.0000 0.94260  0.87240  0.56150  Biso   1.000  C
  C4       1.0000 0.05740  0.37240  0.93850  Biso   1.000  C
  C5       1.0000 0.01550  0.18120  0.52140  Biso   1.000  C
  C6       1.0000 0.98450  0.68120  0.97860  Biso   1.000  C
  C7       1.0000 0.98450  0.81880  0.47860  Biso   1.000  C
  C8       1.0000 0.01550  0.31880  0.02140  Biso   1.000  C
  H1       1.0000 0.05590  0.21910  0.59070  Biso   1.000  H
  H2       1.0000 0.94410  0.71910  0.90930  Biso   1.000  H
  H3       1.0000 0.94410  0.78090  0.40930  Biso   1.000  H
  H4       1.0000 0.05590  0.28090  0.09070  Biso   1.000  H
  C9       1.0000 0.91430  0.17810  0.50070  Biso   1.000  C
  C10      1.0000 0.08570  0.67810  0.99930  Biso   1.000  C
  C11      1.0000 0.08570  0.82190  0.49930  Biso   1.000  C
  C12      1.0000 0.91430  0.32190  0.00070  Biso   1.000  C
  H5       1.0000 0.88680  0.21530  0.55440  Biso   1.000  H
  H6       1.0000 0.11320  0.71530  0.94560  Biso   1.000  H
  H7       1.0000 0.11320  0.78470  0.44560  Biso   1.000  H
  H8       1.0000 0.88680  0.28470  0.05440  Biso   1.000  H
  C13      1.0000 0.85310  0.12010  0.40080  Biso   1.000  C
  C14      1.0000 0.14690  0.62010  0.09920  Biso   1.000  C
  C15      1.0000 0.14690  0.87990  0.59920  Biso   1.000  C
  C16      1.0000 0.85310  0.37990  0.90080  Biso   1.000  C
  H9       1.0000 0.78530  0.11820  0.38860  Biso   1.000  H
  H10      1.0000 0.21470  0.61820  0.11140  Biso   1.000  H
  H11      1.0000 0.21470  0.88180  0.61140  Biso   1.000  H
  H12      1.0000 0.78530  0.38180  0.88860  Biso   1.000  H
  C17      1.0000 0.89270  0.06600  0.32050  Biso   1.000  C
  C18      1.0000 0.10730  0.56600  0.17950  Biso   1.000  C
  C19      1.0000 0.10730  0.93400  0.67950  Biso   1.000  C
  C20      1.0000 0.89270  0.43400  0.82050  Biso   1.000  C
  H13      1.0000 0.85170  0.02670  0.25420  Biso   1.000  H
  H14      1.0000 0.14830  0.52670  0.24580  Biso   1.000  H
  H15      1.0000 0.14830  0.97330  0.74580  Biso   1.000  H
  H16      1.0000 0.85170  0.47330  0.75420  Biso   1.000  H
  C21      1.0000 0.99540  0.06920  0.33740  Biso   1.000  C
  C22      1.0000 0.00460  0.56920  0.16260  Biso   1.000  C
  C23      1.0000 0.00460  0.93080  0.66260  Biso   1.000  C
  C24      1.0000 0.99540  0.43080  0.83740  Biso   1.000  C
  C25      1.0000 0.03060  0.00920  0.25260  Biso   1.000  C
  C26      1.0000 0.96940  0.50920  0.24740  Biso   1.000  C
  C27      1.0000 0.96940  0.99080  0.74740  Biso   1.000  C
  C28      1.0000 0.03060  0.49080  0.75260  Biso   1.000  C
  H17      1.0000 0.98320  0.97080  0.19420  Biso   1.000  H
  H18      1.0000 0.01680  0.47080  0.30580  Biso   1.000  H
  H19      1.0000 0.01680  0.02920  0.80580  Biso   1.000  H
  H20      1.0000 0.98320  0.52920  0.69420  Biso   1.000  H
  C29      1.0000 0.13310  0.92730  0.15140  Biso   1.000  C
  C30      1.0000 0.86690  0.42730  0.34860  Biso   1.000  C
  C31      1.0000 0.86690  0.07270  0.84860  Biso   1.000  C
  C32      1.0000 0.13310  0.57270  0.65140  Biso   1.000  C
  H21      1.0000 0.07740  0.93030  0.06400  Biso   1.000  H
  H22      1.0000 0.92260  0.43030  0.43600  Biso   1.000  H
  H23      1.0000 0.92260  0.06970  0.93600  Biso   1.000  H
  H24      1.0000 0.07740  0.56970  0.56400  Biso   1.000  H
  H25      1.0000 0.12680  0.87080  0.19740  Biso   1.000  H
  H26      1.0000 0.87320  0.37080  0.30260  Biso   1.000  H
  H27      1.0000 0.87320  0.12920  0.80260  Biso   1.000  H
  H28      1.0000 0.12680  0.62920  0.69740  Biso   1.000  H
  C33      1.0000 0.21650  0.92150  0.11310  Biso   1.000  C
  C34      1.0000 0.78350  0.42150  0.38690  Biso   1.000  C
  C35      1.0000 0.78350  0.07850  0.88690  Biso   1.000  C
  C36      1.0000 0.21650  0.57850  0.61310  Biso   1.000  C
  H29      1.0000 0.21090  0.86950  0.05140  Biso   1.000  H
  H30      1.0000 0.78910  0.36950  0.44860  Biso   1.000  H
  H31      1.0000 0.78910  0.13050  0.94860  Biso   1.000  H
  H32      1.0000 0.21090  0.63050  0.55140  Biso   1.000  H
  H33      1.0000 0.22090  0.97470  0.05800  Biso   1.000  H
  H34      1.0000 0.77910  0.47470  0.44200  Biso   1.000  H
  H35      1.0000 0.77910  0.02530  0.94200  Biso   1.000  H
  H36      1.0000 0.22090  0.52530  0.55800  Biso   1.000  H
  C37      1.0000 0.31780  0.91280  0.24430  Biso   1.000  C
  C38      1.0000 0.68220  0.41280  0.25570  Biso   1.000  C
  C39      1.0000 0.68220  0.08720  0.75570  Biso   1.000  C
  C40      1.0000 0.31780  0.58720  0.74430  Biso   1.000  C
  H37      1.0000 0.37230  0.89440  0.21040  Biso   1.000  H
  H38      1.0000 0.62770  0.39440  0.28960  Biso   1.000  H
  H39      1.0000 0.62770  0.10560  0.78960  Biso   1.000  H
  H40      1.0000 0.37230  0.60560  0.71040  Biso   1.000  H
  H41      1.0000 0.31030  0.86840  0.31240  Biso   1.000  H
  H42      1.0000 0.68970  0.36840  0.18760  Biso   1.000  H
  H43      1.0000 0.68970  0.13160  0.68760  Biso   1.000  H
  H44      1.0000 0.31030  0.63160  0.81240  Biso   1.000  H
  C41      1.0000 0.42500  0.03260  0.32710  Biso   1.000  C
  C42      1.0000 0.57500  0.53260  0.17290  Biso   1.000  C
  C43      1.0000 0.57500  0.96740  0.67290  Biso   1.000  C
  C44      1.0000 0.42500  0.46740  0.82710  Biso   1.000  C
  H45      1.0000 0.46680  0.99470  0.29710  Biso   1.000  H
  H46      1.0000 0.53320  0.49470  0.20290  Biso   1.000  H
  H47      1.0000 0.53320  0.00530  0.70290  Biso   1.000  H
  H48      1.0000 0.46680  0.50530  0.79710  Biso   1.000  H
  C45      1.0000 0.46610  0.11820  0.38590  Biso   1.000  C
  C46      1.0000 0.53390  0.61820  0.11410  Biso   1.000  C
  C47      1.0000 0.53390  0.88180  0.61410  Biso   1.000  C
  C48      1.0000 0.46610  0.38180  0.88590  Biso   1.000  C
  C49      1.0000 0.56000  0.14220  0.37690  Biso   1.000  C
  C50      1.0000 0.44000  0.64220  0.12310  Biso   1.000  C
  C51      1.0000 0.44000  0.85780  0.62310  Biso   1.000  C
  C52      1.0000 0.56000  0.35780  0.87690  Biso   1.000  C
  H49      1.0000 0.59240  0.10270  0.33290  Biso   1.000  H
  H50      1.0000 0.40760  0.60270  0.16710  Biso   1.000  H
  H51      1.0000 0.40760  0.89730  0.66710  Biso   1.000  H
  H52      1.0000 0.59240  0.39730  0.83290  Biso   1.000  H
  C53      1.0000 0.60480  0.22060  0.43010  Biso   1.000  C
  C54      1.0000 0.39520  0.72060  0.06990  Biso   1.000  C
  C55      1.0000 0.39520  0.77940  0.56990  Biso   1.000  C
  C56      1.0000 0.60480  0.27940  0.93010  Biso   1.000  C
  H53      1.0000 0.66590  0.23600  0.41960  Biso   1.000  H
  H54      1.0000 0.33410  0.73600  0.08040  Biso   1.000  H
  H55      1.0000 0.33410  0.76400  0.58040  Biso   1.000  H
  H56      1.0000 0.66590  0.26400  0.91960  Biso   1.000  H
  C57      1.0000 0.55840  0.27800  0.50050  Biso   1.000  C
  C58      1.0000 0.44160  0.77800  0.99950  Biso   1.000  C
  C59      1.0000 0.44160  0.72200  0.49950  Biso   1.000  C
  C60      1.0000 0.55840  0.22200  0.00050  Biso   1.000  C
  H57      1.0000 0.58950  0.33140  0.54010  Biso   1.000  H
  H58      1.0000 0.41050  0.83140  0.95990  Biso   1.000  H
  H59      1.0000 0.41050  0.66860  0.45990  Biso   1.000  H
  H60      1.0000 0.58950  0.16860  0.04010  Biso   1.000  H
  C61      1.0000 0.46710  0.25660  0.51220  Biso   1.000  C
  C62      1.0000 0.53290  0.75660  0.98780  Biso   1.000  C
  C63      1.0000 0.53290  0.74340  0.48780  Biso   1.000  C
  C64      1.0000 0.46710  0.24340  0.01220  Biso   1.000  C
  H61      1.0000 0.43710  0.29600  0.55970  Biso   1.000  H
  H62      1.0000 0.56290  0.79600  0.94030  Biso   1.000  H
  H63      1.0000 0.56290  0.70400  0.44030  Biso   1.000  H
  H64      1.0000 0.43710  0.20400  0.05970  Biso   1.000  H
  C65      1.0000 0.41810  0.17720  0.45470  Biso   1.000  C
  C66      1.0000 0.58190  0.67720  0.04530  Biso   1.000  C
  C67      1.0000 0.58190  0.82280  0.54530  Biso   1.000  C
  C68      1.0000 0.41810  0.32280  0.95470  Biso   1.000  C
  N1       1.0000 0.11930  0.00070  0.24530  Biso   1.000  N
  N2       1.0000 0.88070  0.50070  0.25470  Biso   1.000  N
  N3       1.0000 0.88070  0.99930  0.75470  Biso   1.000  N
  N4       1.0000 0.11930  0.49930  0.74530  Biso   1.000  N
  N5       1.0000 0.33780  0.00320  0.31170  Biso   1.000  N
  N6       1.0000 0.66220  0.50320  0.18830  Biso   1.000  N
  N7       1.0000 0.66220  0.99680  0.68830  Biso   1.000  N
  N8       1.0000 0.33780  0.49680  0.81170  Biso   1.000  N
  N9       1.0000 0.23130  0.31640  0.64800  Biso   1.000  N
  N10      1.0000 0.76870  0.81640  0.85200  Biso   1.000  N
  N11      1.0000 0.76870  0.68360  0.35200  Biso   1.000  N
  N12      1.0000 0.23130  0.18360  0.14800  Biso   1.000  N
  N13      1.0000 0.20090  0.33450  0.52320  Biso   1.000  N
  N14      1.0000 0.79910  0.83450  0.97680  Biso   1.000  N
  N15      1.0000 0.79910  0.66550  0.47680  Biso   1.000  N
  N16      1.0000 0.20090  0.16550  0.02320  Biso   1.000  N
  N17      1.0000 0.17060  0.35780  0.40890  Biso   1.000  N
  N18      1.0000 0.82940  0.85780  0.09110  Biso   1.000  N
  N19      1.0000 0.82940  0.64220  0.59110  Biso   1.000  N
  N20      1.0000 0.17060  0.14220  0.90890  Biso   1.000  N
  N21      1.0000 0.35210  0.06420  0.75770  Biso   1.000  N
  N22      1.0000 0.64790  0.56420  0.74230  Biso   1.000  N
  N23      1.0000 0.64790  0.93580  0.24230  Biso   1.000  N
  N24      1.0000 0.35210  0.43580  0.25770  Biso   1.000  N
  N25      1.0000 0.36610  0.04210  0.87800  Biso   1.000  N
  N26      1.0000 0.63390  0.54210  0.62200  Biso   1.000  N
  N27      1.0000 0.63390  0.95790  0.12200  Biso   1.000  N
  N28      1.0000 0.36610  0.45790  0.37800  Biso   1.000  N
  N29      1.0000 0.38730  0.01530  0.99210  Biso   1.000  N
  N30      1.0000 0.61270  0.51530  0.50790  Biso   1.000  N
  N31      1.0000 0.61270  0.98470  0.00790  Biso   1.000  N
  N32      1.0000 0.38730  0.48470  0.49210  Biso   1.000  N
  O1       1.0000 0.15350  0.13110  0.46150  Biso   1.000  O
  O2       1.0000 0.84650  0.63110  0.03850  Biso   1.000  O
  O3       1.0000 0.84650  0.86890  0.53850  Biso   1.000  O
  O4       1.0000 0.15350  0.36890  0.96150  Biso   1.000  O
  O5       1.0000 0.32950  0.16010  0.46540  Biso   1.000  O
  O6       1.0000 0.67050  0.66010  0.03460  Biso   1.000  O
  O7       1.0000 0.67050  0.83990  0.53460  Biso   1.000  O
  O8       1.0000 0.32950  0.33990  0.96540  Biso   1.000  O
  Cu1      1.0000 0.23312  0.07408  0.35848  Biso   1.000  Cu
  Cu2      1.0000 0.76688  0.57408  0.14152  Biso   1.000  Cu
  Cu3      1.0000 0.76688  0.92592  0.64152  Biso   1.000  Cu
  Cu4      1.0000 0.23312  0.42592  0.85848  Biso   1.000  Cu
  Hg1      1.0000 0.28607  0.18659  0.69223  Biso   1.000  Hg
  Hg2      1.0000 0.71393  0.68659  0.80777  Biso   1.000  Hg
  Hg3      1.0000 0.71393  0.81341  0.30777  Biso   1.000  Hg
  Hg4      1.0000 0.28607  0.31341  0.19223  Biso   1.000  Hg
  C69      1.0000 0.22800  0.62620  0.73810  Biso   1.000  C
  C70      1.0000 0.77200  0.12620  0.76190  Biso   1.000  C
  C71      1.0000 0.77200  0.37380  0.26190  Biso   1.000  C
  C72      1.0000 0.22800  0.87380  0.23810  Biso   1.000  C
  H65      1.0000 0.37080  0.62750  0.79620  Biso   1.000  H
  H66      1.0000 0.62920  0.12750  0.70380  Biso   1.000  H
  H67      1.0000 0.62920  0.37250  0.20380  Biso   1.000  H
  H68      1.0000 0.37080  0.87250  0.29620  Biso   1.000  H
  H69      1.0000 0.32100  0.58240  0.64780  Biso   1.000  H
  H70      1.0000 0.67900  0.08240  0.85220  Biso   1.000  H
  H71      1.0000 0.67900  0.41760  0.35220  Biso   1.000  H
  H72      1.0000 0.32100  0.91760  0.14780  Biso   1.000  H
  H73      1.0000 0.07550  0.61210  0.62470  Biso   1.000  H
  H74      1.0000 0.92450  0.11210  0.87530  Biso   1.000  H
  H75      1.0000 0.92450  0.38790  0.37530  Biso   1.000  H
  H76      1.0000 0.07550  0.88790  0.12470  Biso   1.000  H
  H77      1.0000 0.14200  0.54790  0.56520  Biso   1.000  H
  H78      1.0000 0.85800  0.04790  0.93480  Biso   1.000  H
  H79      1.0000 0.85800  0.45210  0.43480  Biso   1.000  H
  H80      1.0000 0.14200  0.95210  0.06520  Biso   1.000  H
  H81      1.0000 0.22510  0.68580  0.69640  Biso   1.000  H
  H82      1.0000 0.77490  0.18580  0.80360  Biso   1.000  H
  H83      1.0000 0.77490  0.31420  0.30360  Biso   1.000  H
  H84      1.0000 0.22510  0.81420  0.19640  Biso   1.000  H
  H85      1.0000 0.22610  0.63390  0.83490  Biso   1.000  H
  H86      1.0000 0.77390  0.13390  0.66510  Biso   1.000  H
  H87      1.0000 0.77390  0.36610  0.16510  Biso   1.000  H
  H88      1.0000 0.22610  0.86610  0.33490  Biso   1.000  H
