data_image0
_cell_length_a       13.754
_cell_length_b       7.102
_cell_length_c       13.492
_cell_angle_alpha    90
_cell_angle_beta     104.721
_cell_angle_gamma    90

_symmetry_space_group_name_H-M    "P 1"
_symmetry_int_tables_number       1

loop_
  _symmetry_equiv_pos_as_xyz
  'x, y, z'

loop_
  _atom_site_label
  _atom_site_occupancy
  _atom_site_fract_x
  _atom_site_fract_y
  _atom_site_fract_z
  _atom_site_thermal_displace_type
  _atom_site_B_iso_or_equiv
  _atom_site_type_symbol
  Cu1      1.0000 0.74660  0.53770  0.75480  Biso   1.000  Cu
  Cu2      1.0000 0.75340  0.03770  0.74520  Biso   1.000  Cu
  Cu3      1.0000 0.25340  0.46230  0.24520  Biso   1.000  Cu
  Cu4      1.0000 0.24660  0.96230  0.25480  Biso   1.000  Cu
  Cu5      1.0000 0.74610  0.29060  0.95580  Biso   1.000  Cu
  Cu6      1.0000 0.75390  0.79060  0.54420  Biso   1.000  Cu
  Cu7      1.0000 0.25390  0.70940  0.04420  Biso   1.000  Cu
  Cu8      1.0000 0.24610  0.20940  0.45580  Biso   1.000  Cu
  S1       1.0000 0.23620  0.18810  0.01060  Biso   1.000  S
  S2       1.0000 0.26380  0.68810  0.48940  Biso   1.000  S
  S3       1.0000 0.76380  0.81190  0.98940  Biso   1.000  S
  S4       1.0000 0.73620  0.31190  0.51060  Biso   1.000  S
  P1       1.0000 0.92690  0.33220  0.85790  Biso   1.000  P
  P2       1.0000 0.57310  0.83220  0.64210  Biso   1.000  P
  P3       1.0000 0.07310  0.66780  0.14210  Biso   1.000  P
  P4       1.0000 0.42690  0.16780  0.35790  Biso   1.000  P
  O1       1.0000 0.90720  0.52040  0.80040  Biso   1.000  O
  O2       1.0000 0.59280  0.02040  0.69960  Biso   1.000  O
  O3       1.0000 0.09280  0.47960  0.19960  Biso   1.000  O
  O4       1.0000 0.40720  0.97960  0.30040  Biso   1.000  O
  O5       1.0000 0.89340  0.33490  0.95680  Biso   1.000  O
  O6       1.0000 0.60660  0.83490  0.54320  Biso   1.000  O
  O7       1.0000 0.10660  0.66510  0.04320  Biso   1.000  O
  O8       1.0000 0.39340  0.16510  0.45680  Biso   1.000  O
  O9       1.0000 0.89990  0.17930  0.77220  Biso   1.000  O
  O10      1.0000 0.60010  0.67930  0.72780  Biso   1.000  O
  O11      1.0000 0.10010  0.82070  0.22780  Biso   1.000  O
  O12      1.0000 0.39990  0.32070  0.27220  Biso   1.000  O
  O13      1.0000 0.28420  0.02510  0.06980  Biso   1.000  O
  O14      1.0000 0.21580  0.52510  0.43020  Biso   1.000  O
  O15      1.0000 0.71580  0.97490  0.93020  Biso   1.000  O
  O16      1.0000 0.78420  0.47490  0.56980  Biso   1.000  O
  O17      1.0000 0.26070  0.21280  0.91500  Biso   1.000  O
  O18      1.0000 0.23930  0.71280  0.58500  Biso   1.000  O
  O19      1.0000 0.73930  0.78720  0.08500  Biso   1.000  O
  O20      1.0000 0.76070  0.28720  0.41500  Biso   1.000  O
  O21      1.0000 0.26170  0.35470  0.06830  Biso   1.000  O
  O22      1.0000 0.23830  0.85470  0.43170  Biso   1.000  O
  O23      1.0000 0.73830  0.64530  0.93170  Biso   1.000  O
  O24      1.0000 0.76170  0.14530  0.56830  Biso   1.000  O
  O25      1.0000 0.69670  0.30680  0.79780  Biso   1.000  O
  O26      1.0000 0.80330  0.80680  0.70220  Biso   1.000  O
  O27      1.0000 0.30330  0.69320  0.20220  Biso   1.000  O
  O28      1.0000 0.19670  0.19320  0.29780  Biso   1.000  O
  O29      1.0000 0.59810  0.32910  0.96020  Biso   1.000  O
  O30      1.0000 0.90190  0.82910  0.53980  Biso   1.000  O
  O31      1.0000 0.40190  0.67090  0.03980  Biso   1.000  O
  O32      1.0000 0.09810  0.17090  0.46020  Biso   1.000  O
  O33      1.0000 0.79830  0.26460  0.12390  Biso   1.000  O
  O34      1.0000 0.70170  0.76460  0.37610  Biso   1.000  O
  O35      1.0000 0.20170  0.73540  0.87610  Biso   1.000  O
  O36      1.0000 0.29830  0.23540  0.62390  Biso   1.000  O
  C1       1.0000 0.05110  0.22720  0.86040  Biso   1.000  C
  C2       1.0000 0.44890  0.72720  0.63960  Biso   1.000  C
  C3       1.0000 0.94890  0.77280  0.13960  Biso   1.000  C
  C4       1.0000 0.55110  0.27280  0.36040  Biso   1.000  C
  C5       1.0000 0.10130  0.14370  0.96920  Biso   1.000  C
  C6       1.0000 0.39870  0.64370  0.53080  Biso   1.000  C
  C7       1.0000 0.89870  0.85630  0.03080  Biso   1.000  C
  C8       1.0000 0.60130  0.35630  0.46920  Biso   1.000  C
  O37      1.0000 0.32080  0.46740  0.79490  Biso   1.000  O
  O38      1.0000 0.17920  0.96740  0.70510  Biso   1.000  O
  O39      1.0000 0.67920  0.53260  0.20510  Biso   1.000  O
  O40      1.0000 0.82080  0.03260  0.29490  Biso   1.000  O
  O41      1.0000 0.44720  0.05340  0.89650  Biso   1.000  O
  O42      1.0000 0.05280  0.55340  0.60350  Biso   1.000  O
  O43      1.0000 0.55280  0.94660  0.10350  Biso   1.000  O
  O44      1.0000 0.94720  0.44660  0.39650  Biso   1.000  O
  O45      1.0000 0.49740  0.61840  0.86630  Biso   1.000  O
  O46      1.0000 0.00260  0.11840  0.63370  Biso   1.000  O
  O47      1.0000 0.50260  0.38160  0.13370  Biso   1.000  O
  O48      1.0000 0.99740  0.88160  0.36630  Biso   1.000  O
  O49      1.0000 0.52810  0.76890  0.27060  Biso   1.000  O
  O50      1.0000 0.97190  0.26890  0.22940  Biso   1.000  O
  O51      1.0000 0.47190  0.23110  0.72940  Biso   1.000  O
  O52      1.0000 0.02810  0.73110  0.77060  Biso   1.000  O
