data_image0
_cell_length_a       14.757
_cell_length_b       7.6906
_cell_length_c       7.4812
_cell_angle_alpha    90
_cell_angle_beta     92.41
_cell_angle_gamma    90

_symmetry_space_group_name_H-M    "P 1"
_symmetry_int_tables_number       1

loop_
  _symmetry_equiv_pos_as_xyz
  'x, y, z'

loop_
  _atom_site_label
  _atom_site_occupancy
  _atom_site_fract_x
  _atom_site_fract_y
  _atom_site_fract_z
  _atom_site_thermal_displace_type
  _atom_site_B_iso_or_equiv
  _atom_site_type_symbol
  Cu1      1.0000 0.47329  0.80804  0.06083  Biso   1.000  Cu
  Cu2      1.0000 0.52671  0.30804  0.43917  Biso   1.000  Cu
  Cu3      1.0000 0.52671  0.19196  0.93917  Biso   1.000  Cu
  Cu4      1.0000 0.47329  0.69196  0.56083  Biso   1.000  Cu
  P1       1.0000 0.39447  0.44852  0.15008  Biso   1.000  P
  P2       1.0000 0.60553  0.94852  0.34992  Biso   1.000  P
  P3       1.0000 0.60553  0.55148  0.84992  Biso   1.000  P
  P4       1.0000 0.39447  0.05148  0.65008  Biso   1.000  P
  S1       1.0000 0.12277  0.54311  0.33832  Biso   1.000  S
  S2       1.0000 0.87723  0.04311  0.16168  Biso   1.000  S
  S3       1.0000 0.87723  0.45689  0.66168  Biso   1.000  S
  S4       1.0000 0.12277  0.95689  0.83832  Biso   1.000  S
  O1       1.0000 0.36805  0.93300  0.16130  Biso   1.000  O
  O2       1.0000 0.63195  0.43300  0.33870  Biso   1.000  O
  O3       1.0000 0.63195  0.06700  0.83870  Biso   1.000  O
  O4       1.0000 0.36805  0.56700  0.66130  Biso   1.000  O
  H1       1.0000 0.37810  0.93740  0.28810  Biso   1.000  H
  H2       1.0000 0.62190  0.43740  0.21190  Biso   1.000  H
  H3       1.0000 0.62190  0.06260  0.71190  Biso   1.000  H
  H4       1.0000 0.37810  0.56260  0.78810  Biso   1.000  H
  H5       1.0000 0.37850  0.04630  0.14530  Biso   1.000  H
  H6       1.0000 0.62150  0.54630  0.35470  Biso   1.000  H
  H7       1.0000 0.62150  0.95370  0.85470  Biso   1.000  H
  H8       1.0000 0.37850  0.45370  0.64530  Biso   1.000  H
  O5       1.0000 0.39979  0.60120  0.01950  Biso   1.000  O
  O6       1.0000 0.60021  0.10120  0.48050  Biso   1.000  O
  O7       1.0000 0.60021  0.39880  0.98050  Biso   1.000  O
  O8       1.0000 0.39979  0.89880  0.51950  Biso   1.000  O
  O9       1.0000 0.42379  0.27610  0.06690  Biso   1.000  O
  O10      1.0000 0.57621  0.77610  0.43310  Biso   1.000  O
  O11      1.0000 0.57621  0.72390  0.93310  Biso   1.000  O
  O12      1.0000 0.42379  0.22390  0.56690  Biso   1.000  O
  O13      1.0000 0.44908  0.49070  0.32460  Biso   1.000  O
  O14      1.0000 0.55092  0.99070  0.17540  Biso   1.000  O
  O15      1.0000 0.55092  0.50930  0.67540  Biso   1.000  O
  O16      1.0000 0.44908  0.00930  0.82460  Biso   1.000  O
  C1       1.0000 0.27820  0.41650  0.20170  Biso   1.000  C
  C2       1.0000 0.72180  0.91650  0.29830  Biso   1.000  C
  C3       1.0000 0.72180  0.58350  0.79830  Biso   1.000  C
  C4       1.0000 0.27820  0.08350  0.70170  Biso   1.000  C
  H9       1.0000 0.27500  0.32830  0.29400  Biso   1.000  H
  H10      1.0000 0.72500  0.82830  0.20600  Biso   1.000  H
  H11      1.0000 0.72500  0.67170  0.70600  Biso   1.000  H
  H12      1.0000 0.27500  0.17170  0.79400  Biso   1.000  H
  H13      1.0000 0.24500  0.37400  0.09600  Biso   1.000  H
  H14      1.0000 0.75500  0.87400  0.40400  Biso   1.000  H
  H15      1.0000 0.75500  0.62600  0.90400  Biso   1.000  H
  H16      1.0000 0.24500  0.12600  0.59600  Biso   1.000  H
  O17      1.0000 0.06800  0.47310  0.18760  Biso   1.000  O
  O18      1.0000 0.93200  0.97310  0.31240  Biso   1.000  O
  O19      1.0000 0.93200  0.52690  0.81240  Biso   1.000  O
  O20      1.0000 0.06800  0.02690  0.68760  Biso   1.000  O
  O21      1.0000 0.13120  0.41990  0.48120  Biso   1.000  O
  O22      1.0000 0.86880  0.91990  0.01880  Biso   1.000  O
  O23      1.0000 0.86880  0.58010  0.51880  Biso   1.000  O
  O24      1.0000 0.13120  0.08010  0.98120  Biso   1.000  O
  O25      1.0000 0.08850  0.71190  0.39550  Biso   1.000  O
  O26      1.0000 0.91150  0.21190  0.10450  Biso   1.000  O
  O27      1.0000 0.91150  0.28810  0.60450  Biso   1.000  O
  O28      1.0000 0.08850  0.78810  0.89550  Biso   1.000  O
  C5       1.0000 0.23320  0.58360  0.26610  Biso   1.000  C
  C6       1.0000 0.76680  0.08360  0.23390  Biso   1.000  C
  C7       1.0000 0.76680  0.41640  0.73390  Biso   1.000  C
  C8       1.0000 0.23320  0.91640  0.76610  Biso   1.000  C
  H17      1.0000 0.26980  0.63320  0.36390  Biso   1.000  H
  H18      1.0000 0.73020  0.13320  0.13610  Biso   1.000  H
  H19      1.0000 0.73020  0.36680  0.63610  Biso   1.000  H
  H20      1.0000 0.26980  0.86680  0.86390  Biso   1.000  H
  H21      1.0000 0.23010  0.66760  0.16930  Biso   1.000  H
  H22      1.0000 0.76990  0.16760  0.33070  Biso   1.000  H
  H23      1.0000 0.76990  0.33240  0.83070  Biso   1.000  H
  H24      1.0000 0.23010  0.83240  0.66930  Biso   1.000  H
  Na1      1.0000 0.03422  0.30690  0.92900  Biso   1.000  Na
  Na2      1.0000 0.96578  0.80690  0.57100  Biso   1.000  Na
  Na3      1.0000 0.96578  0.69310  0.07100  Biso   1.000  Na
  Na4      1.0000 0.03422  0.19310  0.42900  Biso   1.000  Na
  O29      1.0000 0.15890  0.46440  0.83110  Biso   1.000  O
  O30      1.0000 0.84110  0.96440  0.66890  Biso   1.000  O
  O31      1.0000 0.84110  0.53560  0.16890  Biso   1.000  O
  O32      1.0000 0.15890  0.03560  0.33110  Biso   1.000  O
  H25      1.0000 0.13650  0.57810  0.84330  Biso   1.000  H
  H26      1.0000 0.86350  0.07810  0.65670  Biso   1.000  H
  H27      1.0000 0.86350  0.42190  0.15670  Biso   1.000  H
  H28      1.0000 0.13650  0.92190  0.34330  Biso   1.000  H
  H29      1.0000 0.15720  0.45210  0.70540  Biso   1.000  H
  H30      1.0000 0.84280  0.95210  0.79460  Biso   1.000  H
  H31      1.0000 0.84280  0.54790  0.29460  Biso   1.000  H
  H32      1.0000 0.15720  0.04790  0.20540  Biso   1.000  H
