data_image0
_cell_length_a       7.0601
_cell_length_b       7.9403
_cell_length_c       11.1222
_cell_angle_alpha    70.294
_cell_angle_beta     81.136
_cell_angle_gamma    77.223

_symmetry_space_group_name_H-M    "P 1"
_symmetry_int_tables_number       1

loop_
  _symmetry_equiv_pos_as_xyz
  'x, y, z'

loop_
  _atom_site_label
  _atom_site_occupancy
  _atom_site_fract_x
  _atom_site_fract_y
  _atom_site_fract_z
  _atom_site_thermal_displace_type
  _atom_site_B_iso_or_equiv
  _atom_site_type_symbol
  Cu1      1.0000 0.50000  0.00000  0.50000  Biso   1.000  Cu
  Cu2      1.0000 0.00000  0.00000  0.50000  Biso   1.000  Cu
  O1       1.0000 0.20160  0.20500  0.50580  Biso   1.000  O
  O2       1.0000 0.79840  0.79500  0.49420  Biso   1.000  O
  O3       1.0000 0.22890  0.47880  0.49120  Biso   1.000  O
  O4       1.0000 0.77110  0.52120  0.50880  Biso   1.000  O
  O5       1.0000 0.20760  0.41630  0.31850  Biso   1.000  O
  O6       1.0000 0.79240  0.58370  0.68150  Biso   1.000  O
  O7       1.0000 0.20630  0.15640  0.05270  Biso   1.000  O
  O8       1.0000 0.79370  0.84360  0.94730  Biso   1.000  O
  O9       1.0000 0.22490  0.99670  0.92450  Biso   1.000  O
  O10      1.0000 0.77510  0.00330  0.07550  Biso   1.000  O
  O11      1.0000 0.08440  0.28090  0.86810  Biso   1.000  O
  O12      1.0000 0.91560  0.71910  0.13190  Biso   1.000  O
  N1       1.0000 0.35010  0.85120  0.65430  Biso   1.000  N
  N2       1.0000 0.64990  0.14880  0.34570  Biso   1.000  N
  N3       1.0000 0.16090  0.83670  0.64620  Biso   1.000  N
  N4       1.0000 0.83910  0.16330  0.35380  Biso   1.000  N
  N5       1.0000 0.24570  0.67280  0.83680  Biso   1.000  N
  N6       1.0000 0.75430  0.32720  0.16320  Biso   1.000  N
  N7       1.0000 0.24340  0.56270  0.96620  Biso   1.000  N
  N8       1.0000 0.75660  0.43730  0.03380  Biso   1.000  N
  H1       1.0000 0.24810  0.44520  0.97450  Biso   1.000  H
  H2       1.0000 0.75190  0.55480  0.02550  Biso   1.000  H
  H3       1.0000 0.13480  0.61070  0.00600  Biso   1.000  H
  H4       1.0000 0.86520  0.38930  0.99400  Biso   1.000  H
  N9       1.0000 0.39740  0.89890  0.38790  Biso   1.000  N
  N10      1.0000 0.60260  0.10110  0.61210  Biso   1.000  N
  N11      1.0000 0.20060  0.91400  0.37820  Biso   1.000  N
  N12      1.0000 0.79940  0.08600  0.62180  Biso   1.000  N
  N13      1.0000 0.36730  0.78270  0.24340  Biso   1.000  N
  N14      1.0000 0.63270  0.21730  0.75660  Biso   1.000  N
  N15      1.0000 0.42030  0.70440  0.14370  Biso   1.000  N
  N16      1.0000 0.57970  0.29560  0.85630  Biso   1.000  N
  H5       1.0000 0.35310  0.61250  0.16870  Biso   1.000  H
  H6       1.0000 0.64690  0.38750  0.83130  Biso   1.000  H
  H7       1.0000 0.38280  0.79020  0.07040  Biso   1.000  H
  H8       1.0000 0.61720  0.20980  0.92960  Biso   1.000  H
  N17      1.0000 0.21120  0.37120  0.43780  Biso   1.000  N
  N18      1.0000 0.78880  0.62880  0.56220  Biso   1.000  N
  N19      1.0000 0.17210  0.14350  0.94930  Biso   1.000  N
  N20      1.0000 0.82790  0.85650  0.05070  Biso   1.000  N
  C1       1.0000 0.10220  0.72750  0.75690  Biso   1.000  C
  C2       1.0000 0.89780  0.27250  0.24310  Biso   1.000  C
  H9       1.0000 0.97800  0.69220  0.77770  Biso   1.000  H
  H10      1.0000 0.02200  0.30780  0.22230  Biso   1.000  H
  C3       1.0000 0.39630  0.75310  0.77050  Biso   1.000  C
  C4       1.0000 0.60370  0.24690  0.22950  Biso   1.000  C
  H11      1.0000 0.51720  0.74050  0.80310  Biso   1.000  H
  H12      1.0000 0.48280  0.25950  0.19690  Biso   1.000  H
  C5       1.0000 0.18630  0.84270  0.29060  Biso   1.000  C
  C6       1.0000 0.81370  0.15730  0.70940  Biso   1.000  C
  H13      1.0000 0.06780  0.83440  0.26430  Biso   1.000  H
  H14      1.0000 0.93220  0.16560  0.73570  Biso   1.000  H
  C7       1.0000 0.49430  0.81750  0.30590  Biso   1.000  C
  C8       1.0000 0.50570  0.18250  0.69410  Biso   1.000  C
  H15      1.0000 0.63220  0.78820  0.29300  Biso   1.000  H
  H16      1.0000 0.36780  0.21180  0.70700  Biso   1.000  H
