data_image0
_cell_length_a       6.338
_cell_length_b       6.8309
_cell_length_c       7.8061
_cell_angle_alpha    72.787
_cell_angle_beta     85.15
_cell_angle_gamma    75.915

_symmetry_space_group_name_H-M    "P 1"
_symmetry_int_tables_number       1

loop_
  _symmetry_equiv_pos_as_xyz
  'x, y, z'

loop_
  _atom_site_label
  _atom_site_occupancy
  _atom_site_fract_x
  _atom_site_fract_y
  _atom_site_fract_z
  _atom_site_thermal_displace_type
  _atom_site_B_iso_or_equiv
  _atom_site_type_symbol
  Cu1      1.0000 0.50000  0.00000  0.00000  Biso   1.000  Cu
  Cu2      1.0000 0.50000  0.50000  0.00000  Biso   1.000  Cu
  O1       1.0000 0.75750  0.00260  0.72700  Biso   1.000  O
  O2       1.0000 0.24250  0.99740  0.27300  Biso   1.000  O
  O3       1.0000 0.75010  0.96520  0.46060  Biso   1.000  O
  O4       1.0000 0.24990  0.03480  0.53940  Biso   1.000  O
  O5       1.0000 0.63580  0.27390  0.50270  Biso   1.000  O
  O6       1.0000 0.36420  0.72610  0.49730  Biso   1.000  O
  O7       1.0000 0.62390  0.19660  0.07330  Biso   1.000  O
  O8       1.0000 0.37610  0.80340  0.92670  Biso   1.000  O
  H1       1.0000 0.64080  0.14630  0.18590  Biso   1.000  H
  H2       1.0000 0.35920  0.85370  0.81410  Biso   1.000  H
  N1       1.0000 0.26570  0.44370  0.87680  Biso   1.000  N
  N2       1.0000 0.73430  0.55630  0.12320  Biso   1.000  N
  N3       1.0000 0.25900  0.24070  0.88560  Biso   1.000  N
  N4       1.0000 0.74100  0.75930  0.11440  Biso   1.000  N
  N5       1.0000 0.95950  0.45190  0.76760  Biso   1.000  N
  N6       1.0000 0.04050  0.54810  0.23240  Biso   1.000  N
  N7       1.0000 0.73770  0.52650  0.71600  Biso   1.000  N
  N8       1.0000 0.26230  0.47350  0.28400  Biso   1.000  N
  H3       1.0000 0.71690  0.43610  0.65890  Biso   1.000  H
  H4       1.0000 0.28310  0.56390  0.34110  Biso   1.000  H
  H5       1.0000 0.72230  0.65890  0.64370  Biso   1.000  H
  H6       1.0000 0.27770  0.34110  0.35630  Biso   1.000  H
  N9       1.0000 0.71360  0.08110  0.56380  Biso   1.000  N
  N10      1.0000 0.28640  0.91890  0.43620  Biso   1.000  N
  C1       1.0000 0.07160  0.24910  0.82050  Biso   1.000  C
  C2       1.0000 0.92840  0.75090  0.17950  Biso   1.000  C
  H7       1.0000 0.02370  0.13400  0.81200  Biso   1.000  H
  H8       1.0000 0.97630  0.86600  0.18800  Biso   1.000  H
  C3       1.0000 0.08390  0.56800  0.80540  Biso   1.000  C
  C4       1.0000 0.91610  0.43200  0.19460  Biso   1.000  C
  H9       1.0000 0.04650  0.71340  0.78410  Biso   1.000  H
  H10      1.0000 0.95350  0.28660  0.21590  Biso   1.000  H
