data_image0
_cell_length_a       9.2962
_cell_length_b       8.9052
_cell_length_c       21.031
_cell_angle_alpha    90
_cell_angle_beta     92.144
_cell_angle_gamma    90

_symmetry_space_group_name_H-M    "P 1"
_symmetry_int_tables_number       1

loop_
  _symmetry_equiv_pos_as_xyz
  'x, y, z'

loop_
  _atom_site_label
  _atom_site_occupancy
  _atom_site_fract_x
  _atom_site_fract_y
  _atom_site_fract_z
  _atom_site_thermal_displace_type
  _atom_site_B_iso_or_equiv
  _atom_site_type_symbol
  Cu1      1.0000 0.50296  0.44067  0.25256  Biso   1.000  Cu
  Cu2      1.0000 0.99704  0.94067  0.24744  Biso   1.000  Cu
  Cu3      1.0000 0.49704  0.55933  0.74744  Biso   1.000  Cu
  Cu4      1.0000 0.00296  0.05933  0.75256  Biso   1.000  Cu
  P1       1.0000 0.69440  0.69803  0.21634  Biso   1.000  P
  P2       1.0000 0.80560  0.19803  0.28366  Biso   1.000  P
  P3       1.0000 0.30560  0.30197  0.78366  Biso   1.000  P
  P4       1.0000 0.19440  0.80197  0.71634  Biso   1.000  P
  P5       1.0000 0.30481  0.18557  0.28229  Biso   1.000  P
  P6       1.0000 0.19519  0.68557  0.21771  Biso   1.000  P
  P7       1.0000 0.69519  0.81443  0.71771  Biso   1.000  P
  P8       1.0000 0.80481  0.31443  0.78229  Biso   1.000  P
  N1       1.0000 0.67599  0.75260  0.29291  Biso   1.000  N
  N2       1.0000 0.82401  0.25260  0.20709  Biso   1.000  N
  N3       1.0000 0.32401  0.24740  0.70709  Biso   1.000  N
  N4       1.0000 0.17599  0.74740  0.79291  Biso   1.000  N
  N5       1.0000 0.31073  0.14760  0.20311  Biso   1.000  N
  N6       1.0000 0.18927  0.64760  0.29689  Biso   1.000  N
  N7       1.0000 0.68927  0.85240  0.79689  Biso   1.000  N
  N8       1.0000 0.81073  0.35240  0.70311  Biso   1.000  N
  O1       1.0000 0.66871  0.53142  0.21502  Biso   1.000  O
  O2       1.0000 0.83129  0.03142  0.28498  Biso   1.000  O
  O3       1.0000 0.33129  0.46858  0.78498  Biso   1.000  O
  O4       1.0000 0.16871  0.96858  0.71502  Biso   1.000  O
  O5       1.0000 0.57309  0.78142  0.17711  Biso   1.000  O
  O6       1.0000 0.92691  0.28142  0.32289  Biso   1.000  O
  O7       1.0000 0.42691  0.21858  0.82289  Biso   1.000  O
  O8       1.0000 0.07309  0.71858  0.67711  Biso   1.000  O
  O9       1.0000 0.83783  0.75104  0.19722  Biso   1.000  O
  O10      1.0000 0.66217  0.25104  0.30278  Biso   1.000  O
  O11      1.0000 0.16217  0.24896  0.80278  Biso   1.000  O
  O12      1.0000 0.33783  0.74896  0.69722  Biso   1.000  O
  O13      1.0000 0.51932  0.57554  0.32645  Biso   1.000  O
  O14      1.0000 0.98068  0.07554  0.17355  Biso   1.000  O
  O15      1.0000 0.48068  0.42446  0.67355  Biso   1.000  O
  O16      1.0000 0.01932  0.92446  0.82645  Biso   1.000  O
  O17      1.0000 0.33764  0.35031  0.28985  Biso   1.000  O
  O18      1.0000 0.16236  0.85031  0.21015  Biso   1.000  O
  O19      1.0000 0.66236  0.64969  0.71015  Biso   1.000  O
  O20      1.0000 0.83764  0.14969  0.78985  Biso   1.000  O
  O21      1.0000 0.16228  0.13259  0.30231  Biso   1.000  O
  O22      1.0000 0.33772  0.63259  0.19769  Biso   1.000  O
  O23      1.0000 0.83772  0.86741  0.69769  Biso   1.000  O
  O24      1.0000 0.66228  0.36741  0.80231  Biso   1.000  O
  O25      1.0000 0.42698  0.08948  0.31452  Biso   1.000  O
  O26      1.0000 0.07302  0.58948  0.18548  Biso   1.000  O
  O27      1.0000 0.57302  0.91052  0.68548  Biso   1.000  O
  O28      1.0000 0.92698  0.41052  0.81452  Biso   1.000  O
  O29      1.0000 0.48347  0.31452  0.17622  Biso   1.000  O
  O30      1.0000 0.01653  0.81452  0.32378  Biso   1.000  O
  O31      1.0000 0.51653  0.68548  0.82378  Biso   1.000  O
  O32      1.0000 0.98347  0.18548  0.67622  Biso   1.000  O
  C1       1.0000 0.59685  0.68780  0.33737  Biso   1.000  C
  C2       1.0000 0.90315  0.18780  0.16263  Biso   1.000  C
  C3       1.0000 0.40315  0.31220  0.66263  Biso   1.000  C
  C4       1.0000 0.09685  0.81220  0.83737  Biso   1.000  C
  C5       1.0000 0.60201  0.75210  0.40271  Biso   1.000  C
  C6       1.0000 0.89799  0.25210  0.09729  Biso   1.000  C
  C7       1.0000 0.39799  0.24790  0.59729  Biso   1.000  C
  C8       1.0000 0.10201  0.74790  0.90271  Biso   1.000  C
  C9       1.0000 0.69920  0.86360  0.42140  Biso   1.000  C
  C10      1.0000 0.80080  0.36360  0.07860  Biso   1.000  C
  C11      1.0000 0.30080  0.13640  0.57860  Biso   1.000  C
  C12      1.0000 0.19920  0.63640  0.92140  Biso   1.000  C
  C13      1.0000 0.70160  0.91580  0.48345  Biso   1.000  C
  C14      1.0000 0.79840  0.41580  0.01655  Biso   1.000  C
  C15      1.0000 0.29840  0.08420  0.51655  Biso   1.000  C
  C16      1.0000 0.20160  0.58420  0.98345  Biso   1.000  C
  C17      1.0000 0.60860  0.85920  0.52687  Biso   1.000  C
  C18      1.0000 0.89140  0.35920  0.97313  Biso   1.000  C
  C19      1.0000 0.39140  0.14080  0.47313  Biso   1.000  C
  C20      1.0000 0.10860  0.64080  0.02687  Biso   1.000  C
  C21      1.0000 0.51240  0.74790  0.50866  Biso   1.000  C
  C22      1.0000 0.98760  0.24790  0.99134  Biso   1.000  C
  C23      1.0000 0.48760  0.25210  0.49134  Biso   1.000  C
  C24      1.0000 0.01240  0.75210  0.00866  Biso   1.000  C
  C25      1.0000 0.50940  0.69410  0.44680  Biso   1.000  C
  C26      1.0000 0.99060  0.19410  0.05320  Biso   1.000  C
  C27      1.0000 0.49060  0.30590  0.55320  Biso   1.000  C
  C28      1.0000 0.00940  0.80590  0.94680  Biso   1.000  C
  C29      1.0000 0.39553  0.21350  0.16124  Biso   1.000  C
  C30      1.0000 0.10447  0.71350  0.33876  Biso   1.000  C
  C31      1.0000 0.60447  0.78650  0.83876  Biso   1.000  C
  C32      1.0000 0.89553  0.28650  0.66124  Biso   1.000  C
  C33      1.0000 0.38236  0.16600  0.09352  Biso   1.000  C
  C34      1.0000 0.11764  0.66600  0.40648  Biso   1.000  C
  C35      1.0000 0.61764  0.83400  0.90648  Biso   1.000  C
  C36      1.0000 0.88236  0.33400  0.59352  Biso   1.000  C
  C37      1.0000 0.32940  0.02540  0.07541  Biso   1.000  C
  C38      1.0000 0.17060  0.52540  0.42459  Biso   1.000  C
  C39      1.0000 0.67060  0.97460  0.92459  Biso   1.000  C
  C40      1.0000 0.82940  0.47460  0.57541  Biso   1.000  C
  C41      1.0000 0.31260  0.99140  0.01095  Biso   1.000  C
  C42      1.0000 0.18740  0.49140  0.48905  Biso   1.000  C
  C43      1.0000 0.68740  0.00860  0.98905  Biso   1.000  C
  C44      1.0000 0.81260  0.50860  0.51095  Biso   1.000  C
  C45      1.0000 0.34720  0.09560  0.96549  Biso   1.000  C
  C46      1.0000 0.15280  0.59560  0.53451  Biso   1.000  C
  C47      1.0000 0.65280  0.90440  0.03451  Biso   1.000  C
  C48      1.0000 0.84720  0.40440  0.46549  Biso   1.000  C
  C49      1.0000 0.40310  0.23340  0.98358  Biso   1.000  C
  C50      1.0000 0.09690  0.73340  0.51642  Biso   1.000  C
  C51      1.0000 0.59690  0.76660  0.01642  Biso   1.000  C
  C52      1.0000 0.90310  0.26660  0.48358  Biso   1.000  C
  C53      1.0000 0.42160  0.26880  0.04735  Biso   1.000  C
  C54      1.0000 0.07840  0.76880  0.45265  Biso   1.000  C
  C55      1.0000 0.57840  0.73120  0.95265  Biso   1.000  C
  C56      1.0000 0.92160  0.23120  0.54735  Biso   1.000  C
  H1       1.0000 0.26500  0.07900  0.19030  Biso   1.000  H
  H2       1.0000 0.23500  0.57900  0.30970  Biso   1.000  H
  H3       1.0000 0.73500  0.92100  0.80970  Biso   1.000  H
  H4       1.0000 0.76500  0.42100  0.69030  Biso   1.000  H
  H5       1.0000 0.50300  0.12400  0.31090  Biso   1.000  H
  H6       1.0000 0.99700  0.62400  0.18910  Biso   1.000  H
  H7       1.0000 0.49700  0.87600  0.68910  Biso   1.000  H
  H8       1.0000 0.00300  0.37600  0.81090  Biso   1.000  H
  H9       1.0000 0.70800  0.82600  0.30310  Biso   1.000  H
  H10      1.0000 0.79200  0.32600  0.19690  Biso   1.000  H
  H11      1.0000 0.29200  0.17400  0.69690  Biso   1.000  H
  H12      1.0000 0.20800  0.67400  0.80310  Biso   1.000  H
  H13      1.0000 0.50100  0.74400  0.18500  Biso   1.000  H
  H14      1.0000 0.99900  0.24400  0.31500  Biso   1.000  H
  H15      1.0000 0.49900  0.25600  0.81500  Biso   1.000  H
  H16      1.0000 0.00100  0.75600  0.68500  Biso   1.000  H
  H17      1.0000 0.33800  0.07600  0.92340  Biso   1.000  H
  H18      1.0000 0.16200  0.57600  0.57660  Biso   1.000  H
  H19      1.0000 0.66200  0.92400  0.07660  Biso   1.000  H
  H20      1.0000 0.83800  0.42400  0.42340  Biso   1.000  H
  H21      1.0000 0.30800  0.95400  0.10740  Biso   1.000  H
  H22      1.0000 0.19200  0.45400  0.39260  Biso   1.000  H
  H23      1.0000 0.69200  0.04600  0.89260  Biso   1.000  H
  H24      1.0000 0.80800  0.54600  0.60740  Biso   1.000  H
  H25      1.0000 0.26900  0.89500  0.99900  Biso   1.000  H
  H26      1.0000 0.23100  0.39500  0.50100  Biso   1.000  H
  H27      1.0000 0.73100  0.10500  0.00100  Biso   1.000  H
  H28      1.0000 0.76900  0.60500  0.49900  Biso   1.000  H
  H29      1.0000 0.60900  0.90100  0.56680  Biso   1.000  H
  H30      1.0000 0.89100  0.40100  0.93320  Biso   1.000  H
  H31      1.0000 0.39100  0.09900  0.43320  Biso   1.000  H
  H32      1.0000 0.10900  0.59900  0.06680  Biso   1.000  H
  H33      1.0000 0.43100  0.30800  0.95140  Biso   1.000  H
  H34      1.0000 0.06900  0.80800  0.54860  Biso   1.000  H
  H35      1.0000 0.56900  0.69200  0.04860  Biso   1.000  H
  H36      1.0000 0.93100  0.19200  0.45140  Biso   1.000  H
  H37      1.0000 0.44900  0.61500  0.43450  Biso   1.000  H
  H38      1.0000 0.05100  0.11500  0.06550  Biso   1.000  H
  H39      1.0000 0.55100  0.38500  0.56550  Biso   1.000  H
  H40      1.0000 0.94900  0.88500  0.93450  Biso   1.000  H
  H41      1.0000 0.76500  0.90500  0.39160  Biso   1.000  H
  H42      1.0000 0.73500  0.40500  0.10840  Biso   1.000  H
  H43      1.0000 0.23500  0.09500  0.60840  Biso   1.000  H
  H44      1.0000 0.26500  0.59500  0.89160  Biso   1.000  H
  H45      1.0000 0.44900  0.70300  0.53630  Biso   1.000  H
  H46      1.0000 0.05100  0.20300  0.96370  Biso   1.000  H
  H47      1.0000 0.55100  0.29700  0.46370  Biso   1.000  H
  H48      1.0000 0.94900  0.79700  0.03630  Biso   1.000  H
  H49      1.0000 0.78100  0.99400  0.49570  Biso   1.000  H
  H50      1.0000 0.71900  0.49400  0.00430  Biso   1.000  H
  H51      1.0000 0.21900  0.00600  0.50430  Biso   1.000  H
  H52      1.0000 0.28100  0.50600  0.99570  Biso   1.000  H
  H53      1.0000 0.45300  0.35900  0.06160  Biso   1.000  H
  H54      1.0000 0.04700  0.85900  0.43840  Biso   1.000  H
  H55      1.0000 0.54700  0.64100  0.93840  Biso   1.000  H
  H56      1.0000 0.95300  0.14100  0.56160  Biso   1.000  H
