data_image0
_cell_length_a       11.0773
_cell_length_b       11.0773
_cell_length_c       77.251
_cell_angle_alpha    90
_cell_angle_beta     90
_cell_angle_gamma    120

_symmetry_space_group_name_H-M    "P 1"
_symmetry_int_tables_number       1

loop_
  _symmetry_equiv_pos_as_xyz
  'x, y, z'

loop_
  _atom_site_label
  _atom_site_occupancy
  _atom_site_fract_x
  _atom_site_fract_y
  _atom_site_fract_z
  _atom_site_thermal_displace_type
  _atom_site_B_iso_or_equiv
  _atom_site_type_symbol
  Cu1      1.0000 0.35056  0.88585  0.98517  Biso   1.000  Cu
  Cu2      1.0000 0.64944  0.11415  0.48517  Biso   1.000  Cu
  Cu3      1.0000 0.11415  0.46471  0.31850  Biso   1.000  Cu
  Cu4      1.0000 0.88585  0.53529  0.81850  Biso   1.000  Cu
  Cu5      1.0000 0.53529  0.64944  0.65184  Biso   1.000  Cu
  Cu6      1.0000 0.46471  0.35056  0.15184  Biso   1.000  Cu
  Cu7      1.0000 0.42754  0.05354  0.93509  Biso   1.000  Cu
  Cu8      1.0000 0.57246  0.94646  0.43509  Biso   1.000  Cu
  Cu9      1.0000 0.94646  0.37400  0.26842  Biso   1.000  Cu
  Cu10     1.0000 0.05354  0.62600  0.76842  Biso   1.000  Cu
  Cu11     1.0000 0.62600  0.57246  0.60176  Biso   1.000  Cu
  Cu12     1.0000 0.37400  0.42754  0.10176  Biso   1.000  Cu
  O1       1.0000 0.27480  0.72310  0.96981  Biso   1.000  O
  O2       1.0000 0.72520  0.27690  0.46981  Biso   1.000  O
  O3       1.0000 0.27690  0.55170  0.30314  Biso   1.000  O
  O4       1.0000 0.72310  0.44830  0.80314  Biso   1.000  O
  O5       1.0000 0.44830  0.72520  0.63648  Biso   1.000  O
  O6       1.0000 0.55170  0.27480  0.13648  Biso   1.000  O
  O7       1.0000 0.30560  0.82150  0.94357  Biso   1.000  O
  O8       1.0000 0.69440  0.17850  0.44357  Biso   1.000  O
  O9       1.0000 0.17850  0.48410  0.27690  Biso   1.000  O
  O10      1.0000 0.82150  0.51590  0.77690  Biso   1.000  O
  O11      1.0000 0.51590  0.69440  0.61024  Biso   1.000  O
  O12      1.0000 0.48410  0.30560  0.11024  Biso   1.000  O
  O13      1.0000 0.95300  0.54620  0.93660  Biso   1.000  O
  O14      1.0000 0.04700  0.45380  0.43660  Biso   1.000  O
  O15      1.0000 0.45380  0.40680  0.26993  Biso   1.000  O
  O16      1.0000 0.54620  0.59320  0.76993  Biso   1.000  O
  O17      1.0000 0.59320  0.04700  0.60327  Biso   1.000  O
  O18      1.0000 0.40680  0.95300  0.10327  Biso   1.000  O
  O19      1.0000 0.96530  0.57050  0.84204  Biso   1.000  O
  O20      1.0000 0.03470  0.42950  0.34204  Biso   1.000  O
  O21      1.0000 0.42950  0.39480  0.17537  Biso   1.000  O
  O22      1.0000 0.57050  0.60520  0.67537  Biso   1.000  O
  O23      1.0000 0.60520  0.03470  0.50871  Biso   1.000  O
  O24      1.0000 0.39480  0.96530  0.00871  Biso   1.000  O
  O25      1.0000 0.74420  0.46160  0.84888  Biso   1.000  O
  O26      1.0000 0.25580  0.53840  0.34888  Biso   1.000  O
  O27      1.0000 0.53840  0.28260  0.18221  Biso   1.000  O
  O28      1.0000 0.46160  0.71740  0.68221  Biso   1.000  O
  O29      1.0000 0.71740  0.25580  0.51555  Biso   1.000  O
  O30      1.0000 0.28260  0.74420  0.01555  Biso   1.000  O
  O31      1.0000 0.46250  0.11440  0.97466  Biso   1.000  O
  O32      1.0000 0.53750  0.88560  0.47466  Biso   1.000  O
  O33      1.0000 0.88560  0.34810  0.30799  Biso   1.000  O
  O34      1.0000 0.11440  0.65190  0.80799  Biso   1.000  O
  O35      1.0000 0.65190  0.53750  0.64133  Biso   1.000  O
  O36      1.0000 0.34810  0.46250  0.14133  Biso   1.000  O
  O37      1.0000 0.51820  0.22210  0.94928  Biso   1.000  O
  O38      1.0000 0.48180  0.77790  0.44928  Biso   1.000  O
  O39      1.0000 0.77790  0.29610  0.28261  Biso   1.000  O
  O40      1.0000 0.22210  0.70390  0.78261  Biso   1.000  O
  O41      1.0000 0.70390  0.48180  0.61595  Biso   1.000  O
  O42      1.0000 0.29610  0.51820  0.11595  Biso   1.000  O
  O43      1.0000 0.38850  0.38780  0.98274  Biso   1.000  O
  O44      1.0000 0.61150  0.61220  0.48274  Biso   1.000  O
  O45      1.0000 0.61220  0.00070  0.31607  Biso   1.000  O
  O46      1.0000 0.38780  0.99930  0.81607  Biso   1.000  O
  O47      1.0000 0.99930  0.61150  0.64941  Biso   1.000  O
  O48      1.0000 0.00070  0.38850  0.14941  Biso   1.000  O
  O49      1.0000 0.40850  0.39070  0.07707  Biso   1.000  O
  O50      1.0000 0.59150  0.60930  0.57707  Biso   1.000  O
  O51      1.0000 0.60930  0.01780  0.41040  Biso   1.000  O
  O52      1.0000 0.39070  0.98220  0.91040  Biso   1.000  O
  O53      1.0000 0.98220  0.59150  0.74374  Biso   1.000  O
  O54      1.0000 0.01780  0.40850  0.24374  Biso   1.000  O
  O55      1.0000 0.28890  0.49280  0.07055  Biso   1.000  O
  O56      1.0000 0.71110  0.50720  0.57055  Biso   1.000  O
  O57      1.0000 0.50720  0.79610  0.40388  Biso   1.000  O
  O58      1.0000 0.49280  0.20390  0.90388  Biso   1.000  O
  O59      1.0000 0.20390  0.71110  0.73722  Biso   1.000  O
  O60      1.0000 0.79610  0.28890  0.23722  Biso   1.000  O
  N1       1.0000 0.15880  0.56720  0.92858  Biso   1.000  N
  N2       1.0000 0.84120  0.43280  0.42858  Biso   1.000  N
  N3       1.0000 0.43280  0.59160  0.26191  Biso   1.000  N
  N4       1.0000 0.56720  0.40840  0.76191  Biso   1.000  N
  N5       1.0000 0.40840  0.84120  0.59525  Biso   1.000  N
  N6       1.0000 0.59160  0.15880  0.09525  Biso   1.000  N
  H1       1.0000 0.21040  0.56960  0.92010  Biso   1.000  H
  H2       1.0000 0.78960  0.43040  0.42010  Biso   1.000  H
  H3       1.0000 0.43040  0.64080  0.25343  Biso   1.000  H
  H4       1.0000 0.56960  0.35920  0.75343  Biso   1.000  H
  H5       1.0000 0.35920  0.78960  0.58677  Biso   1.000  H
  H6       1.0000 0.64080  0.21040  0.08677  Biso   1.000  H
  N7       1.0000 0.56600  0.36880  0.99112  Biso   1.000  N
  N8       1.0000 0.43400  0.63120  0.49112  Biso   1.000  N
  N9       1.0000 0.63120  0.19720  0.32445  Biso   1.000  N
  N10      1.0000 0.36880  0.80280  0.82445  Biso   1.000  N
  N11      1.0000 0.80280  0.43400  0.65779  Biso   1.000  N
  N12      1.0000 0.19720  0.56600  0.15779  Biso   1.000  N
  H7       1.0000 0.61300  0.36530  0.99980  Biso   1.000  H
  H8       1.0000 0.38700  0.63470  0.49980  Biso   1.000  H
  H9       1.0000 0.63470  0.24770  0.33313  Biso   1.000  H
  H10      1.0000 0.36530  0.75230  0.83313  Biso   1.000  H
  H11      1.0000 0.75230  0.38700  0.66647  Biso   1.000  H
  H12      1.0000 0.24770  0.61300  0.16647  Biso   1.000  H
  N13      1.0000 0.53510  0.89040  0.98476  Biso   1.000  N
  N14      1.0000 0.46490  0.10960  0.48476  Biso   1.000  N
  N15      1.0000 0.10960  0.64470  0.31809  Biso   1.000  N
  N16      1.0000 0.89040  0.35530  0.81809  Biso   1.000  N
  N17      1.0000 0.35530  0.46490  0.65143  Biso   1.000  N
  N18      1.0000 0.64470  0.53510  0.15143  Biso   1.000  N
  N19      1.0000 0.17310  0.89180  0.98425  Biso   1.000  N
  N20      1.0000 0.82690  0.10820  0.48425  Biso   1.000  N
  N21      1.0000 0.10820  0.28130  0.31758  Biso   1.000  N
  N22      1.0000 0.89180  0.71870  0.81758  Biso   1.000  N
  N23      1.0000 0.71870  0.82690  0.65092  Biso   1.000  N
  N24      1.0000 0.28130  0.17310  0.15092  Biso   1.000  N
  N25      1.0000 0.24300  0.05020  0.93653  Biso   1.000  N
  N26      1.0000 0.75700  0.94980  0.43653  Biso   1.000  N
  N27      1.0000 0.94980  0.19280  0.26986  Biso   1.000  N
  N28      1.0000 0.05020  0.80720  0.76986  Biso   1.000  N
  N29      1.0000 0.80720  0.75700  0.60320  Biso   1.000  N
  N30      1.0000 0.19280  0.24300  0.10320  Biso   1.000  N
  N31      1.0000 0.60840  0.04950  0.93540  Biso   1.000  N
  N32      1.0000 0.39160  0.95050  0.43540  Biso   1.000  N
  N33      1.0000 0.95050  0.55890  0.26873  Biso   1.000  N
  N34      1.0000 0.04950  0.44110  0.76873  Biso   1.000  N
  N35      1.0000 0.44110  0.39160  0.60207  Biso   1.000  N
  N36      1.0000 0.55890  0.60840  0.10207  Biso   1.000  N
  C1       1.0000 0.26510  0.71840  0.95359  Biso   1.000  C
  C2       1.0000 0.73490  0.28160  0.45359  Biso   1.000  C
  C3       1.0000 0.28160  0.54670  0.28692  Biso   1.000  C
  C4       1.0000 0.71840  0.45330  0.78692  Biso   1.000  C
  C5       1.0000 0.45330  0.73490  0.62026  Biso   1.000  C
  C6       1.0000 0.54670  0.26510  0.12026  Biso   1.000  C
  C7       1.0000 0.20820  0.57420  0.94579  Biso   1.000  C
  C8       1.0000 0.79180  0.42580  0.44579  Biso   1.000  C
  C9       1.0000 0.42580  0.63400  0.27912  Biso   1.000  C
  C10      1.0000 0.57420  0.36600  0.77912  Biso   1.000  C
  C11      1.0000 0.36600  0.79180  0.61246  Biso   1.000  C
  C12      1.0000 0.63400  0.20820  0.11246  Biso   1.000  C
  H13      1.0000 0.13070  0.50690  0.95300  Biso   1.000  H
  H14      1.0000 0.86930  0.49310  0.45300  Biso   1.000  H
  H15      1.0000 0.49310  0.62380  0.28633  Biso   1.000  H
  H16      1.0000 0.50690  0.37620  0.78633  Biso   1.000  H
  H17      1.0000 0.37620  0.86930  0.61967  Biso   1.000  H
  H18      1.0000 0.62380  0.13070  0.11967  Biso   1.000  H
  C13      1.0000 0.31940  0.53680  0.94580  Biso   1.000  C
  C14      1.0000 0.68060  0.46320  0.44580  Biso   1.000  C
  C15      1.0000 0.46320  0.78260  0.27913  Biso   1.000  C
  C16      1.0000 0.53680  0.21740  0.77913  Biso   1.000  C
  C17      1.0000 0.21740  0.68060  0.61247  Biso   1.000  C
  C18      1.0000 0.78260  0.31940  0.11247  Biso   1.000  C
  H19      1.0000 0.35260  0.54160  0.95740  Biso   1.000  H
  H20      1.0000 0.64740  0.45840  0.45740  Biso   1.000  H
  H21      1.0000 0.45840  0.81100  0.29073  Biso   1.000  H
  H22      1.0000 0.54160  0.18900  0.79073  Biso   1.000  H
  H23      1.0000 0.18900  0.64740  0.62407  Biso   1.000  H
  H24      1.0000 0.81100  0.35260  0.12407  Biso   1.000  H
  H25      1.0000 0.28270  0.44380  0.94140  Biso   1.000  H
  H26      1.0000 0.71730  0.55620  0.44140  Biso   1.000  H
  H27      1.0000 0.55620  0.83890  0.27473  Biso   1.000  H
  H28      1.0000 0.44380  0.16110  0.77473  Biso   1.000  H
  H29      1.0000 0.16110  0.71730  0.60807  Biso   1.000  H
  H30      1.0000 0.83890  0.28270  0.10807  Biso   1.000  H
  H31      1.0000 0.39500  0.60080  0.93860  Biso   1.000  H
  H32      1.0000 0.60500  0.39920  0.43860  Biso   1.000  H
  H33      1.0000 0.39920  0.79420  0.27193  Biso   1.000  H
  H34      1.0000 0.60080  0.20580  0.77193  Biso   1.000  H
  H35      1.0000 0.20580  0.60500  0.60527  Biso   1.000  H
  H36      1.0000 0.79420  0.39500  0.10527  Biso   1.000  H
  C19      1.0000 0.03710  0.55720  0.92503  Biso   1.000  C
  C20      1.0000 0.96290  0.44280  0.42503  Biso   1.000  C
  C21      1.0000 0.44280  0.47990  0.25836  Biso   1.000  C
  C22      1.0000 0.55720  0.52010  0.75836  Biso   1.000  C
  C23      1.0000 0.52010  0.96290  0.59170  Biso   1.000  C
  C24      1.0000 0.47990  0.03710  0.09170  Biso   1.000  C
  C25      1.0000 0.99260  0.54060  0.90596  Biso   1.000  C
  C26      1.0000 0.00740  0.45940  0.40596  Biso   1.000  C
  C27      1.0000 0.45940  0.45200  0.23929  Biso   1.000  C
  C28      1.0000 0.54060  0.54800  0.73929  Biso   1.000  C
  C29      1.0000 0.54800  0.00740  0.57263  Biso   1.000  C
  C30      1.0000 0.45200  0.99260  0.07263  Biso   1.000  C
  C31      1.0000 0.08050  0.54880  0.89271  Biso   1.000  C
  C32      1.0000 0.91950  0.45120  0.39271  Biso   1.000  C
  C33      1.0000 0.45120  0.53170  0.22604  Biso   1.000  C
  C34      1.0000 0.54880  0.46830  0.72604  Biso   1.000  C
  C35      1.0000 0.46830  0.91950  0.55938  Biso   1.000  C
  C36      1.0000 0.53170  0.08050  0.05938  Biso   1.000  C
  H37      1.0000 0.16780  0.56040  0.89520  Biso   1.000  H
  H38      1.0000 0.83220  0.43960  0.39520  Biso   1.000  H
  H39      1.0000 0.43960  0.60740  0.22853  Biso   1.000  H
  H40      1.0000 0.56040  0.39260  0.72853  Biso   1.000  H
  H41      1.0000 0.39260  0.83220  0.56187  Biso   1.000  H
  H42      1.0000 0.60740  0.16780  0.06187  Biso   1.000  H
  C37      1.0000 0.86140  0.52410  0.90206  Biso   1.000  C
  C38      1.0000 0.13860  0.47590  0.40206  Biso   1.000  C
  C39      1.0000 0.47590  0.33730  0.23539  Biso   1.000  C
  C40      1.0000 0.52410  0.66270  0.73539  Biso   1.000  C
  C41      1.0000 0.66270  0.13860  0.56873  Biso   1.000  C
  C42      1.0000 0.33730  0.86140  0.06873  Biso   1.000  C
  H43      1.0000 0.80430  0.52300  0.91100  Biso   1.000  H
  H44      1.0000 0.19570  0.47700  0.41100  Biso   1.000  H
  H45      1.0000 0.47700  0.28130  0.24433  Biso   1.000  H
  H46      1.0000 0.52300  0.71870  0.74433  Biso   1.000  H
  H47      1.0000 0.71870  0.19570  0.57767  Biso   1.000  H
  H48      1.0000 0.28130  0.80430  0.07767  Biso   1.000  H
  C43      1.0000 0.03630  0.53930  0.87509  Biso   1.000  C
  C44      1.0000 0.96370  0.46070  0.37509  Biso   1.000  C
  C45      1.0000 0.46070  0.49700  0.20842  Biso   1.000  C
  C46      1.0000 0.53930  0.50300  0.70842  Biso   1.000  C
  C47      1.0000 0.50300  0.96370  0.54176  Biso   1.000  C
  C48      1.0000 0.49700  0.03630  0.04176  Biso   1.000  C
  H49      1.0000 0.09390  0.54260  0.86610  Biso   1.000  H
  H50      1.0000 0.90610  0.45740  0.36610  Biso   1.000  H
  H51      1.0000 0.45740  0.55130  0.19943  Biso   1.000  H
  H52      1.0000 0.54260  0.44870  0.69943  Biso   1.000  H
  H53      1.0000 0.44870  0.90610  0.53277  Biso   1.000  H
  H54      1.0000 0.55130  0.09390  0.03277  Biso   1.000  H
  C49      1.0000 0.81650  0.50960  0.88520  Biso   1.000  C
  C50      1.0000 0.18350  0.49040  0.38520  Biso   1.000  C
  C51      1.0000 0.49040  0.30690  0.21853  Biso   1.000  C
  C52      1.0000 0.50960  0.69310  0.71853  Biso   1.000  C
  C53      1.0000 0.69310  0.18350  0.55187  Biso   1.000  C
  C54      1.0000 0.30690  0.81650  0.05187  Biso   1.000  C
  H55      1.0000 0.72610  0.48970  0.88280  Biso   1.000  H
  H56      1.0000 0.27390  0.51030  0.38280  Biso   1.000  H
  H57      1.0000 0.51030  0.23640  0.21613  Biso   1.000  H
  H58      1.0000 0.48970  0.76360  0.71613  Biso   1.000  H
  H59      1.0000 0.76360  0.27390  0.54947  Biso   1.000  H
  H60      1.0000 0.23640  0.72610  0.04947  Biso   1.000  H
  C55      1.0000 0.90860  0.52530  0.87152  Biso   1.000  C
  C56      1.0000 0.09140  0.47470  0.37152  Biso   1.000  C
  C57      1.0000 0.47470  0.38330  0.20485  Biso   1.000  C
  C58      1.0000 0.52530  0.61670  0.70485  Biso   1.000  C
  C59      1.0000 0.61670  0.09140  0.53819  Biso   1.000  C
  C60      1.0000 0.38330  0.90860  0.03819  Biso   1.000  C
  C61      1.0000 0.86660  0.52360  0.85300  Biso   1.000  C
  C62      1.0000 0.13340  0.47640  0.35300  Biso   1.000  C
  C63      1.0000 0.47640  0.34300  0.18633  Biso   1.000  C
  C64      1.0000 0.52360  0.65700  0.68633  Biso   1.000  C
  C65      1.0000 0.65700  0.13340  0.51967  Biso   1.000  C
  C66      1.0000 0.34300  0.86660  0.01967  Biso   1.000  C
  C67      1.0000 0.52040  0.21930  0.96616  Biso   1.000  C
  C68      1.0000 0.47960  0.78070  0.46616  Biso   1.000  C
  C69      1.0000 0.78070  0.30110  0.29949  Biso   1.000  C
  C70      1.0000 0.21930  0.69890  0.79949  Biso   1.000  C
  C71      1.0000 0.69890  0.47960  0.63283  Biso   1.000  C
  C72      1.0000 0.30110  0.52040  0.13283  Biso   1.000  C
  C73      1.0000 0.60860  0.35970  0.97392  Biso   1.000  C
  C74      1.0000 0.39140  0.64030  0.47392  Biso   1.000  C
  C75      1.0000 0.64030  0.24890  0.30725  Biso   1.000  C
  C76      1.0000 0.35970  0.75110  0.80725  Biso   1.000  C
  C77      1.0000 0.75110  0.39140  0.64059  Biso   1.000  C
  C78      1.0000 0.24890  0.60860  0.14059  Biso   1.000  C
  H61      1.0000 0.60190  0.42870  0.96670  Biso   1.000  H
  H62      1.0000 0.39810  0.57130  0.46670  Biso   1.000  H
  H63      1.0000 0.57130  0.17320  0.30003  Biso   1.000  H
  H64      1.0000 0.42870  0.82680  0.80003  Biso   1.000  H
  H65      1.0000 0.82680  0.39810  0.63337  Biso   1.000  H
  H66      1.0000 0.17320  0.60190  0.13337  Biso   1.000  H
  C79      1.0000 0.76800  0.39760  0.97462  Biso   1.000  C
  C80      1.0000 0.23200  0.60240  0.47462  Biso   1.000  C
  C81      1.0000 0.60240  0.37040  0.30795  Biso   1.000  C
  C82      1.0000 0.39760  0.62960  0.80795  Biso   1.000  C
  C83      1.0000 0.62960  0.23200  0.64129  Biso   1.000  C
  C84      1.0000 0.37040  0.76800  0.14129  Biso   1.000  C
  H67      1.0000 0.79890  0.39210  0.96320  Biso   1.000  H
  H68      1.0000 0.20110  0.60790  0.46320  Biso   1.000  H
  H69      1.0000 0.60790  0.40680  0.29653  Biso   1.000  H
  H70      1.0000 0.39210  0.59320  0.79653  Biso   1.000  H
  H71      1.0000 0.59320  0.20110  0.62987  Biso   1.000  H
  H72      1.0000 0.40680  0.79890  0.12987  Biso   1.000  H
  H73      1.0000 0.82430  0.49040  0.97900  Biso   1.000  H
  H74      1.0000 0.17570  0.50960  0.47900  Biso   1.000  H
  H75      1.0000 0.50960  0.33390  0.31233  Biso   1.000  H
  H76      1.0000 0.49040  0.66610  0.81233  Biso   1.000  H
  H77      1.0000 0.66610  0.17570  0.64567  Biso   1.000  H
  H78      1.0000 0.33390  0.82430  0.14567  Biso   1.000  H
  H79      1.0000 0.77670  0.33290  0.98210  Biso   1.000  H
  H80      1.0000 0.22330  0.66710  0.48210  Biso   1.000  H
  H81      1.0000 0.66710  0.44380  0.31543  Biso   1.000  H
  H82      1.0000 0.33290  0.55620  0.81543  Biso   1.000  H
  H83      1.0000 0.55620  0.22330  0.64877  Biso   1.000  H
  H84      1.0000 0.44380  0.77670  0.14877  Biso   1.000  H
  C85      1.0000 0.45500  0.38250  0.99398  Biso   1.000  C
  C86      1.0000 0.54500  0.61750  0.49398  Biso   1.000  C
  C87      1.0000 0.61750  0.07250  0.32731  Biso   1.000  C
  C88      1.0000 0.38250  0.92750  0.82731  Biso   1.000  C
  C89      1.0000 0.92750  0.54500  0.66065  Biso   1.000  C
  C90      1.0000 0.07250  0.45500  0.16065  Biso   1.000  C
  C91      1.0000 0.42060  0.38920  0.01325  Biso   1.000  C
  C92      1.0000 0.57940  0.61080  0.51325  Biso   1.000  C
  C93      1.0000 0.61080  0.03140  0.34658  Biso   1.000  C
  C94      1.0000 0.38920  0.96860  0.84658  Biso   1.000  C
  C95      1.0000 0.96860  0.57940  0.67992  Biso   1.000  C
  C96      1.0000 0.03140  0.42060  0.17992  Biso   1.000  C
  C97      1.0000 0.42990  0.29990  0.02545  Biso   1.000  C
  C98      1.0000 0.57010  0.70010  0.52545  Biso   1.000  C
  C99      1.0000 0.70010  0.13000  0.35878  Biso   1.000  C
  C100     1.0000 0.29990  0.87000  0.85878  Biso   1.000  C
  C101     1.0000 0.87000  0.57010  0.69212  Biso   1.000  C
  C102     1.0000 0.13000  0.42990  0.19212  Biso   1.000  C
  H85      1.0000 0.45350  0.23400  0.02200  Biso   1.000  H
  H86      1.0000 0.54650  0.76600  0.52200  Biso   1.000  H
  H87      1.0000 0.76600  0.21950  0.35533  Biso   1.000  H
  H88      1.0000 0.23400  0.78050  0.85533  Biso   1.000  H
  H89      1.0000 0.78050  0.54650  0.68867  Biso   1.000  H
  H90      1.0000 0.21950  0.45350  0.18867  Biso   1.000  H
  C103     1.0000 0.38270  0.48320  0.01853  Biso   1.000  C
  C104     1.0000 0.61730  0.51680  0.51853  Biso   1.000  C
  C105     1.0000 0.51680  0.89950  0.35186  Biso   1.000  C
  C106     1.0000 0.48320  0.10050  0.85186  Biso   1.000  C
  C107     1.0000 0.10050  0.61730  0.68520  Biso   1.000  C
  C108     1.0000 0.89950  0.38270  0.18520  Biso   1.000  C
  H91      1.0000 0.37540  0.54140  0.01050  Biso   1.000  H
  H92      1.0000 0.62460  0.45860  0.51050  Biso   1.000  H
  H93      1.0000 0.45860  0.83400  0.34383  Biso   1.000  H
  H94      1.0000 0.54140  0.16600  0.84383  Biso   1.000  H
  H95      1.0000 0.16600  0.62460  0.67717  Biso   1.000  H
  H96      1.0000 0.83400  0.37540  0.17717  Biso   1.000  H
  C109     1.0000 0.40370  0.31130  0.04246  Biso   1.000  C
  C110     1.0000 0.59630  0.68870  0.54246  Biso   1.000  C
  C111     1.0000 0.68870  0.09240  0.37579  Biso   1.000  C
  C112     1.0000 0.31130  0.90760  0.87579  Biso   1.000  C
  C113     1.0000 0.90760  0.59630  0.70913  Biso   1.000  C
  C114     1.0000 0.09240  0.40370  0.20913  Biso   1.000  C
  H97      1.0000 0.40490  0.25020  0.05060  Biso   1.000  H
  H98      1.0000 0.59510  0.74980  0.55060  Biso   1.000  H
  H99      1.0000 0.74980  0.15470  0.38393  Biso   1.000  H
  H100     1.0000 0.25020  0.84530  0.88393  Biso   1.000  H
  H101     1.0000 0.84530  0.59510  0.71727  Biso   1.000  H
  H102     1.0000 0.15470  0.40490  0.21727  Biso   1.000  H
  C115     1.0000 0.35620  0.49210  0.03510  Biso   1.000  C
  C116     1.0000 0.64380  0.50790  0.53510  Biso   1.000  C
  C117     1.0000 0.50790  0.86410  0.36843  Biso   1.000  C
  C118     1.0000 0.49210  0.13590  0.86843  Biso   1.000  C
  C119     1.0000 0.13590  0.64380  0.70177  Biso   1.000  C
  C120     1.0000 0.86410  0.35620  0.20177  Biso   1.000  C
  H103     1.0000 0.32420  0.55190  0.03840  Biso   1.000  H
  H104     1.0000 0.67580  0.44810  0.53840  Biso   1.000  H
  H105     1.0000 0.44810  0.77230  0.37173  Biso   1.000  H
  H106     1.0000 0.55190  0.22770  0.87173  Biso   1.000  H
  H107     1.0000 0.22770  0.67580  0.70507  Biso   1.000  H
  H108     1.0000 0.77230  0.32420  0.20507  Biso   1.000  H
  C121     1.0000 0.37560  0.41400  0.04740  Biso   1.000  C
  C122     1.0000 0.62440  0.58600  0.54740  Biso   1.000  C
  C123     1.0000 0.58600  0.96160  0.38073  Biso   1.000  C
  C124     1.0000 0.41400  0.03840  0.88073  Biso   1.000  C
  C125     1.0000 0.03840  0.62440  0.71407  Biso   1.000  C
  C126     1.0000 0.96160  0.37560  0.21407  Biso   1.000  C
  C127     1.0000 0.35360  0.43410  0.06657  Biso   1.000  C
  C128     1.0000 0.64640  0.56590  0.56657  Biso   1.000  C
  C129     1.0000 0.56590  0.91950  0.39990  Biso   1.000  C
  C130     1.0000 0.43410  0.08050  0.89990  Biso   1.000  C
  C131     1.0000 0.08050  0.64640  0.73324  Biso   1.000  C
  C132     1.0000 0.91950  0.35360  0.23324  Biso   1.000  C
  C133     1.0000 0.65120  0.00540  0.98748  Biso   1.000  C
  C134     1.0000 0.34880  0.99460  0.48748  Biso   1.000  C
  C135     1.0000 0.99460  0.64580  0.32081  Biso   1.000  C
  C136     1.0000 0.00540  0.35420  0.82081  Biso   1.000  C
  C137     1.0000 0.35420  0.34880  0.65415  Biso   1.000  C
  C138     1.0000 0.64580  0.65120  0.15415  Biso   1.000  C
  H109     1.0000 0.64630  0.08520  0.98980  Biso   1.000  H
  H110     1.0000 0.35370  0.91480  0.48980  Biso   1.000  H
  H111     1.0000 0.91480  0.56110  0.32313  Biso   1.000  H
  H112     1.0000 0.08520  0.43890  0.82313  Biso   1.000  H
  H113     1.0000 0.43890  0.35370  0.65647  Biso   1.000  H
  H114     1.0000 0.56110  0.64630  0.15647  Biso   1.000  H
  C139     1.0000 0.53630  0.76910  0.98320  Biso   1.000  C
  C140     1.0000 0.46370  0.23090  0.48320  Biso   1.000  C
  C141     1.0000 0.23090  0.76720  0.31653  Biso   1.000  C
  C142     1.0000 0.76910  0.23280  0.81653  Biso   1.000  C
  C143     1.0000 0.23280  0.46370  0.64987  Biso   1.000  C
  C144     1.0000 0.76720  0.53630  0.14987  Biso   1.000  C
  H115     1.0000 0.45270  0.68510  0.98240  Biso   1.000  H
  H116     1.0000 0.54730  0.31490  0.48240  Biso   1.000  H
  H117     1.0000 0.31490  0.76760  0.31573  Biso   1.000  H
  H118     1.0000 0.68510  0.23240  0.81573  Biso   1.000  H
  H119     1.0000 0.23240  0.54730  0.64907  Biso   1.000  H
  H120     1.0000 0.76760  0.45270  0.14907  Biso   1.000  H
  C145     1.0000 0.78130  0.01760  0.98713  Biso   1.000  C
  C146     1.0000 0.21870  0.98240  0.48713  Biso   1.000  C
  C147     1.0000 0.98240  0.76370  0.32046  Biso   1.000  C
  C148     1.0000 0.01760  0.23630  0.82046  Biso   1.000  C
  C149     1.0000 0.23630  0.21870  0.65380  Biso   1.000  C
  C150     1.0000 0.76370  0.78130  0.15380  Biso   1.000  C
  H121     1.0000 0.86180  0.10340  0.98870  Biso   1.000  H
  H122     1.0000 0.13820  0.89660  0.48870  Biso   1.000  H
  H123     1.0000 0.89660  0.75840  0.32203  Biso   1.000  H
  H124     1.0000 0.10340  0.24160  0.82203  Biso   1.000  H
  H125     1.0000 0.24160  0.13820  0.65537  Biso   1.000  H
  H126     1.0000 0.75840  0.86180  0.15537  Biso   1.000  H
  C151     1.0000 0.66650  0.76980  0.98283  Biso   1.000  C
  C152     1.0000 0.33350  0.23020  0.48283  Biso   1.000  C
  C153     1.0000 0.23020  0.89670  0.31616  Biso   1.000  C
  C154     1.0000 0.76980  0.10330  0.81616  Biso   1.000  C
  C155     1.0000 0.10330  0.33350  0.64950  Biso   1.000  C
  C156     1.0000 0.89670  0.66650  0.14950  Biso   1.000  C
  H127     1.0000 0.66950  0.68780  0.98160  Biso   1.000  H
  H128     1.0000 0.33050  0.31220  0.48160  Biso   1.000  H
  H129     1.0000 0.31220  0.98170  0.31493  Biso   1.000  H
  H130     1.0000 0.68780  0.01830  0.81493  Biso   1.000  H
  H131     1.0000 0.01830  0.33050  0.64827  Biso   1.000  H
  H132     1.0000 0.98170  0.66950  0.14827  Biso   1.000  H
  C157     1.0000 0.78750  0.89810  0.98440  Biso   1.000  C
  C158     1.0000 0.21250  0.10190  0.48440  Biso   1.000  C
  C159     1.0000 0.10190  0.88940  0.31773  Biso   1.000  C
  C160     1.0000 0.89810  0.11060  0.81773  Biso   1.000  C
  C161     1.0000 0.11060  0.21250  0.65107  Biso   1.000  C
  C162     1.0000 0.88940  0.78750  0.15107  Biso   1.000  C
  C163     1.0000 0.92330  0.89670  0.98468  Biso   1.000  C
  C164     1.0000 0.07670  0.10330  0.48468  Biso   1.000  C
  C165     1.0000 0.10330  0.02660  0.31801  Biso   1.000  C
  C166     1.0000 0.89670  0.97340  0.81801  Biso   1.000  C
  C167     1.0000 0.97340  0.07670  0.65135  Biso   1.000  C
  C168     1.0000 0.02660  0.92330  0.15135  Biso   1.000  C
  C169     1.0000 0.04430  0.00030  0.99238  Biso   1.000  C
  C170     1.0000 0.95570  0.99970  0.49238  Biso   1.000  C
  C171     1.0000 0.99970  0.04400  0.32571  Biso   1.000  C
  C172     1.0000 0.00030  0.95600  0.82571  Biso   1.000  C
  C173     1.0000 0.95600  0.95570  0.65905  Biso   1.000  C
  C174     1.0000 0.04400  0.04430  0.15905  Biso   1.000  C
  H133     1.0000 0.04310  0.07390  0.99800  Biso   1.000  H
  H134     1.0000 0.95690  0.92610  0.49800  Biso   1.000  H
  H135     1.0000 0.92610  0.96920  0.33133  Biso   1.000  H
  H136     1.0000 0.07390  0.03080  0.83133  Biso   1.000  H
  H137     1.0000 0.03080  0.95690  0.66467  Biso   1.000  H
  H138     1.0000 0.96920  0.04310  0.16467  Biso   1.000  H
  C175     1.0000 0.93530  0.79980  0.97564  Biso   1.000  C
  C176     1.0000 0.06470  0.20020  0.47564  Biso   1.000  C
  C177     1.0000 0.20020  0.13550  0.30897  Biso   1.000  C
  C178     1.0000 0.79980  0.86450  0.80897  Biso   1.000  C
  C179     1.0000 0.86450  0.06470  0.64231  Biso   1.000  C
  C180     1.0000 0.13550  0.93530  0.14231  Biso   1.000  C
  H139     1.0000 0.86020  0.73420  0.96920  Biso   1.000  H
  H140     1.0000 0.13980  0.26580  0.46920  Biso   1.000  H
  H141     1.0000 0.26580  0.12600  0.30253  Biso   1.000  H
  H142     1.0000 0.73420  0.87400  0.80253  Biso   1.000  H
  H143     1.0000 0.87400  0.13980  0.63587  Biso   1.000  H
  H144     1.0000 0.12600  0.86020  0.13587  Biso   1.000  H
  C181     1.0000 0.16280  0.99570  0.99182  Biso   1.000  C
  C182     1.0000 0.83720  0.00430  0.49182  Biso   1.000  C
  C183     1.0000 0.00430  0.16710  0.32515  Biso   1.000  C
  C184     1.0000 0.99570  0.83290  0.82515  Biso   1.000  C
  C185     1.0000 0.83290  0.83720  0.65849  Biso   1.000  C
  C186     1.0000 0.16710  0.16280  0.15849  Biso   1.000  C
  H145     1.0000 0.24210  0.06810  0.99690  Biso   1.000  H
  H146     1.0000 0.75790  0.93190  0.49690  Biso   1.000  H
  H147     1.0000 0.93190  0.17400  0.33023  Biso   1.000  H
  H148     1.0000 0.06810  0.82600  0.83023  Biso   1.000  H
  H149     1.0000 0.82600  0.75790  0.66357  Biso   1.000  H
  H150     1.0000 0.17400  0.24210  0.16357  Biso   1.000  H
  C187     1.0000 0.05940  0.79670  0.97588  Biso   1.000  C
  C188     1.0000 0.94060  0.20330  0.47588  Biso   1.000  C
  C189     1.0000 0.20330  0.26270  0.30921  Biso   1.000  C
  C190     1.0000 0.79670  0.73730  0.80921  Biso   1.000  C
  C191     1.0000 0.73730  0.94060  0.64255  Biso   1.000  C
  C192     1.0000 0.26270  0.05940  0.14255  Biso   1.000  C
  H151     1.0000 0.06340  0.72550  0.97000  Biso   1.000  H
  H152     1.0000 0.93660  0.27450  0.47000  Biso   1.000  H
  H153     1.0000 0.27450  0.33790  0.30333  Biso   1.000  H
  H154     1.0000 0.72550  0.66210  0.80333  Biso   1.000  H
  H155     1.0000 0.66210  0.93660  0.63667  Biso   1.000  H
  H156     1.0000 0.33790  0.06340  0.13667  Biso   1.000  H
  C193     1.0000 0.22250  0.13890  0.94602  Biso   1.000  C
  C194     1.0000 0.77750  0.86110  0.44602  Biso   1.000  C
  C195     1.0000 0.86110  0.08360  0.27935  Biso   1.000  C
  C196     1.0000 0.13890  0.91640  0.77935  Biso   1.000  C
  C197     1.0000 0.91640  0.77750  0.61269  Biso   1.000  C
  C198     1.0000 0.08360  0.22250  0.11269  Biso   1.000  C
  H157     1.0000 0.29520  0.20280  0.95290  Biso   1.000  H
  H158     1.0000 0.70480  0.79720  0.45290  Biso   1.000  H
  H159     1.0000 0.79720  0.09240  0.28623  Biso   1.000  H
  H160     1.0000 0.20280  0.90760  0.78623  Biso   1.000  H
  H161     1.0000 0.90760  0.70480  0.61957  Biso   1.000  H
  H162     1.0000 0.09240  0.29520  0.11957  Biso   1.000  H
  C199     1.0000 0.13100  0.94620  0.92811  Biso   1.000  C
  C200     1.0000 0.86900  0.05380  0.42811  Biso   1.000  C
  C201     1.0000 0.05380  0.18480  0.26144  Biso   1.000  C
  C202     1.0000 0.94620  0.81520  0.76144  Biso   1.000  C
  C203     1.0000 0.81520  0.86900  0.59478  Biso   1.000  C
  C204     1.0000 0.18480  0.13100  0.09478  Biso   1.000  C
  H163     1.0000 0.14010  0.87780  0.92230  Biso   1.000  H
  H164     1.0000 0.85990  0.12220  0.42230  Biso   1.000  H
  H165     1.0000 0.12220  0.26230  0.25563  Biso   1.000  H
  H166     1.0000 0.87780  0.73770  0.75563  Biso   1.000  H
  H167     1.0000 0.73770  0.85990  0.58897  Biso   1.000  H
  H168     1.0000 0.26230  0.14010  0.08897  Biso   1.000  H
  C205     1.0000 0.10230  0.14070  0.94609  Biso   1.000  C
  C206     1.0000 0.89770  0.85930  0.44609  Biso   1.000  C
  C207     1.0000 0.85930  0.96160  0.27942  Biso   1.000  C
  C208     1.0000 0.14070  0.03840  0.77942  Biso   1.000  C
  C209     1.0000 0.03840  0.89770  0.61276  Biso   1.000  C
  C210     1.0000 0.96160  0.10230  0.11276  Biso   1.000  C
  H169     1.0000 0.09550  0.20840  0.95240  Biso   1.000  H
  H170     1.0000 0.90450  0.79160  0.45240  Biso   1.000  H
  H171     1.0000 0.79160  0.88710  0.28573  Biso   1.000  H
  H172     1.0000 0.20840  0.11290  0.78573  Biso   1.000  H
  H173     1.0000 0.11290  0.90450  0.61907  Biso   1.000  H
  H174     1.0000 0.88710  0.09550  0.11907  Biso   1.000  H
  C211     1.0000 0.00440  0.94170  0.92819  Biso   1.000  C
  C212     1.0000 0.99560  0.05830  0.42819  Biso   1.000  C
  C213     1.0000 0.05830  0.06270  0.26152  Biso   1.000  C
  C214     1.0000 0.94170  0.93730  0.76152  Biso   1.000  C
  C215     1.0000 0.93730  0.99560  0.59486  Biso   1.000  C
  C216     1.0000 0.06270  0.00440  0.09486  Biso   1.000  C
  H175     1.0000 0.92900  0.87010  0.92240  Biso   1.000  H
  H176     1.0000 0.07100  0.12990  0.42240  Biso   1.000  H
  H177     1.0000 0.12990  0.05890  0.25573  Biso   1.000  H
  H178     1.0000 0.87010  0.94110  0.75573  Biso   1.000  H
  H179     1.0000 0.94110  0.07100  0.58907  Biso   1.000  H
  H180     1.0000 0.05890  0.92900  0.08907  Biso   1.000  H
  C217     1.0000 0.98780  0.04220  0.93678  Biso   1.000  C
  C218     1.0000 0.01220  0.95780  0.43678  Biso   1.000  C
  C219     1.0000 0.95780  0.94560  0.27011  Biso   1.000  C
  C220     1.0000 0.04220  0.05440  0.77011  Biso   1.000  C
  C221     1.0000 0.05440  0.01220  0.60345  Biso   1.000  C
  C222     1.0000 0.94560  0.98780  0.10345  Biso   1.000  C
  C223     1.0000 0.85530  0.04480  0.93615  Biso   1.000  C
  C224     1.0000 0.14470  0.95520  0.43615  Biso   1.000  C
  C225     1.0000 0.95520  0.81050  0.26948  Biso   1.000  C
  C226     1.0000 0.04480  0.18950  0.76948  Biso   1.000  C
  C227     1.0000 0.18950  0.14470  0.60282  Biso   1.000  C
  C228     1.0000 0.81050  0.85530  0.10282  Biso   1.000  C
  C229     1.0000 0.85290  0.16880  0.93584  Biso   1.000  C
  C230     1.0000 0.14710  0.83120  0.43584  Biso   1.000  C
  C231     1.0000 0.83120  0.68410  0.26917  Biso   1.000  C
  C232     1.0000 0.16880  0.31590  0.76917  Biso   1.000  C
  C233     1.0000 0.31590  0.14710  0.60251  Biso   1.000  C
  C234     1.0000 0.68410  0.85290  0.10251  Biso   1.000  C
  H181     1.0000 0.93520  0.25390  0.93670  Biso   1.000  H
  H182     1.0000 0.06480  0.74610  0.43670  Biso   1.000  H
  H183     1.0000 0.74610  0.68130  0.27003  Biso   1.000  H
  H184     1.0000 0.25390  0.31870  0.77003  Biso   1.000  H
  H185     1.0000 0.31870  0.06480  0.60337  Biso   1.000  H
  H186     1.0000 0.68130  0.93520  0.10337  Biso   1.000  H
  C235     1.0000 0.72820  0.92040  0.93718  Biso   1.000  C
  C236     1.0000 0.27180  0.07960  0.43718  Biso   1.000  C
  C237     1.0000 0.07960  0.80780  0.27051  Biso   1.000  C
  C238     1.0000 0.92040  0.19220  0.77051  Biso   1.000  C
  C239     1.0000 0.19220  0.27180  0.60385  Biso   1.000  C
  C240     1.0000 0.80780  0.72820  0.10385  Biso   1.000  C
  H187     1.0000 0.72390  0.83470  0.93830  Biso   1.000  H
  H188     1.0000 0.27610  0.16530  0.43830  Biso   1.000  H
  H189     1.0000 0.16530  0.88920  0.27163  Biso   1.000  H
  H190     1.0000 0.83470  0.11080  0.77163  Biso   1.000  H
  H191     1.0000 0.11080  0.27610  0.60497  Biso   1.000  H
  H192     1.0000 0.88920  0.72390  0.10497  Biso   1.000  H
  C241     1.0000 0.72890  0.16380  0.93423  Biso   1.000  C
  C242     1.0000 0.27110  0.83620  0.43423  Biso   1.000  C
  C243     1.0000 0.83620  0.56510  0.26756  Biso   1.000  C
  C244     1.0000 0.16380  0.43490  0.76756  Biso   1.000  C
  C245     1.0000 0.43490  0.27110  0.60090  Biso   1.000  C
  C246     1.0000 0.56510  0.72890  0.10090  Biso   1.000  C
  H193     1.0000 0.72950  0.24680  0.93220  Biso   1.000  H
  H194     1.0000 0.27050  0.75320  0.43220  Biso   1.000  H
  H195     1.0000 0.75320  0.48270  0.26553  Biso   1.000  H
  H196     1.0000 0.24680  0.51730  0.76553  Biso   1.000  H
  H197     1.0000 0.51730  0.27050  0.59887  Biso   1.000  H
  H198     1.0000 0.48270  0.72950  0.09887  Biso   1.000  H
  C247     1.0000 0.60850  0.93070  0.93650  Biso   1.000  C
  C248     1.0000 0.39150  0.06930  0.43650  Biso   1.000  C
  C249     1.0000 0.06930  0.67780  0.26983  Biso   1.000  C
  C250     1.0000 0.93070  0.32220  0.76983  Biso   1.000  C
  C251     1.0000 0.32220  0.39150  0.60317  Biso   1.000  C
  C252     1.0000 0.67780  0.60850  0.10317  Biso   1.000  C
  H199     1.0000 0.52290  0.84860  0.93680  Biso   1.000  H
  H200     1.0000 0.47710  0.15140  0.43680  Biso   1.000  H
  H201     1.0000 0.15140  0.67430  0.27013  Biso   1.000  H
  H202     1.0000 0.84860  0.32570  0.77013  Biso   1.000  H
  H203     1.0000 0.32570  0.47710  0.60347  Biso   1.000  H
  H204     1.0000 0.67430  0.52290  0.10347  Biso   1.000  H
