data_image0
_cell_length_a       13.5719
_cell_length_b       10.4878
_cell_length_c       13.4116
_cell_angle_alpha    90
_cell_angle_beta     90
_cell_angle_gamma    90

_symmetry_space_group_name_H-M    "P 1"
_symmetry_int_tables_number       1

loop_
  _symmetry_equiv_pos_as_xyz
  'x, y, z'

loop_
  _atom_site_label
  _atom_site_occupancy
  _atom_site_fract_x
  _atom_site_fract_y
  _atom_site_fract_z
  _atom_site_thermal_displace_type
  _atom_site_B_iso_or_equiv
  _atom_site_type_symbol
  Cu1      1.0000 0.00000  0.00000  0.45693  Biso   1.000  Cu
  Cu2      1.0000 0.50000  0.50000  0.54307  Biso   1.000  Cu
  Cu3      1.0000 0.00000  0.50000  0.24198  Biso   1.000  Cu
  Cu4      1.0000 0.50000  0.00000  0.75802  Biso   1.000  Cu
  O1       1.0000 0.87469  0.09040  0.44969  Biso   1.000  O
  O2       1.0000 0.12531  0.90960  0.44969  Biso   1.000  O
  O3       1.0000 0.62531  0.59040  0.55031  Biso   1.000  O
  O4       1.0000 0.37469  0.40960  0.55031  Biso   1.000  O
  O5       1.0000 0.97570  0.25330  0.46925  Biso   1.000  O
  O6       1.0000 0.02430  0.74670  0.46925  Biso   1.000  O
  O7       1.0000 0.52430  0.75330  0.53075  Biso   1.000  O
  O8       1.0000 0.47570  0.24670  0.53075  Biso   1.000  O
  O9       1.0000 0.89915  0.31440  0.25320  Biso   1.000  O
  O10      1.0000 0.10085  0.68560  0.25320  Biso   1.000  O
  O11      1.0000 0.60085  0.81440  0.74680  Biso   1.000  O
  O12      1.0000 0.39915  0.18560  0.74680  Biso   1.000  O
  O13      1.0000 0.69810  0.17970  0.78710  Biso   1.000  O
  O14      1.0000 0.30190  0.82030  0.78710  Biso   1.000  O
  O15      1.0000 0.80190  0.67970  0.21290  Biso   1.000  O
  O16      1.0000 0.19810  0.32030  0.21290  Biso   1.000  O
  O17      1.0000 0.57642  0.07390  0.86686  Biso   1.000  O
  O18      1.0000 0.42358  0.92610  0.86686  Biso   1.000  O
  O19      1.0000 0.92358  0.57390  0.13314  Biso   1.000  O
  O20      1.0000 0.07642  0.42610  0.13314  Biso   1.000  O
  O21      1.0000 0.91999  0.58210  0.34786  Biso   1.000  O
  O22      1.0000 0.08001  0.41790  0.34786  Biso   1.000  O
  O23      1.0000 0.58001  0.08210  0.65214  Biso   1.000  O
  O24      1.0000 0.41999  0.91790  0.65214  Biso   1.000  O
  H1       1.0000 0.88400  0.62900  0.31200  Biso   1.000  H
  H2       1.0000 0.11600  0.37100  0.31200  Biso   1.000  H
  H3       1.0000 0.61600  0.12900  0.68800  Biso   1.000  H
  H4       1.0000 0.38400  0.87100  0.68800  Biso   1.000  H
  H5       1.0000 0.95200  0.63300  0.37700  Biso   1.000  H
  H6       1.0000 0.04800  0.36700  0.37700  Biso   1.000  H
  H7       1.0000 0.54800  0.13300  0.62300  Biso   1.000  H
  H8       1.0000 0.45200  0.86700  0.62300  Biso   1.000  H
  N1       1.0000 0.76140  0.26420  0.33380  Biso   1.000  N
  N2       1.0000 0.23860  0.73580  0.33380  Biso   1.000  N
  N3       1.0000 0.73860  0.76420  0.66620  Biso   1.000  N
  N4       1.0000 0.26140  0.23580  0.66620  Biso   1.000  N
  H9       1.0000 0.70180  0.23650  0.33120  Biso   1.000  H
  H10      1.0000 0.29820  0.76350  0.33120  Biso   1.000  H
  H11      1.0000 0.79820  0.73650  0.66880  Biso   1.000  H
  H12      1.0000 0.20180  0.26350  0.66880  Biso   1.000  H
  C1       1.0000 0.89230  0.20890  0.45040  Biso   1.000  C
  C2       1.0000 0.10770  0.79110  0.45040  Biso   1.000  C
  C3       1.0000 0.60770  0.70890  0.54960  Biso   1.000  C
  C4       1.0000 0.39230  0.29110  0.54960  Biso   1.000  C
  C5       1.0000 0.80510  0.29690  0.42940  Biso   1.000  C
  C6       1.0000 0.19490  0.70310  0.42940  Biso   1.000  C
  C7       1.0000 0.69490  0.79690  0.57060  Biso   1.000  C
  C8       1.0000 0.30510  0.20310  0.57060  Biso   1.000  C
  H13      1.0000 0.82830  0.38530  0.42720  Biso   1.000  H
  H14      1.0000 0.17170  0.61470  0.42720  Biso   1.000  H
  H15      1.0000 0.67170  0.88530  0.57280  Biso   1.000  H
  H16      1.0000 0.32830  0.11470  0.57280  Biso   1.000  H
  C9       1.0000 0.73030  0.28320  0.51240  Biso   1.000  C
  C10      1.0000 0.26970  0.71680  0.51240  Biso   1.000  C
  C11      1.0000 0.76970  0.78320  0.48760  Biso   1.000  C
  C12      1.0000 0.23030  0.21680  0.48760  Biso   1.000  C
  H17      1.0000 0.76040  0.30520  0.57490  Biso   1.000  H
  H18      1.0000 0.23960  0.69480  0.57490  Biso   1.000  H
  H19      1.0000 0.73960  0.80520  0.42510  Biso   1.000  H
  H20      1.0000 0.26040  0.19480  0.42510  Biso   1.000  H
  H21      1.0000 0.67560  0.33920  0.50010  Biso   1.000  H
  H22      1.0000 0.32440  0.66080  0.50010  Biso   1.000  H
  H23      1.0000 0.82440  0.83920  0.49990  Biso   1.000  H
  H24      1.0000 0.17560  0.16080  0.49990  Biso   1.000  H
  H25      1.0000 0.70740  0.19670  0.51500  Biso   1.000  H
  H26      1.0000 0.29260  0.80330  0.51500  Biso   1.000  H
  H27      1.0000 0.79260  0.69670  0.48500  Biso   1.000  H
  H28      1.0000 0.20740  0.30330  0.48500  Biso   1.000  H
  C13      1.0000 0.81370  0.27710  0.25030  Biso   1.000  C
  C14      1.0000 0.18630  0.72290  0.25030  Biso   1.000  C
  C15      1.0000 0.68630  0.77710  0.74970  Biso   1.000  C
  C16      1.0000 0.31370  0.22290  0.74970  Biso   1.000  C
  C17      1.0000 0.76780  0.24240  0.15270  Biso   1.000  C
  C18      1.0000 0.23220  0.75760  0.15270  Biso   1.000  C
  C19      1.0000 0.73220  0.74240  0.84730  Biso   1.000  C
  C20      1.0000 0.26780  0.25760  0.84730  Biso   1.000  C
  C21      1.0000 0.68260  0.16810  0.14370  Biso   1.000  C
  C22      1.0000 0.31740  0.83190  0.14370  Biso   1.000  C
  C23      1.0000 0.81740  0.66810  0.85630  Biso   1.000  C
  C24      1.0000 0.18260  0.33190  0.85630  Biso   1.000  C
  H29      1.0000 0.64980  0.14030  0.20050  Biso   1.000  H
  H30      1.0000 0.35020  0.85970  0.20050  Biso   1.000  H
  H31      1.0000 0.85020  0.64030  0.79950  Biso   1.000  H
  H32      1.0000 0.14980  0.35970  0.79950  Biso   1.000  H
  C25      1.0000 0.81410  0.28400  0.06690  Biso   1.000  C
  C26      1.0000 0.18590  0.71600  0.06690  Biso   1.000  C
  C27      1.0000 0.68590  0.78400  0.93310  Biso   1.000  C
  C28      1.0000 0.31410  0.21600  0.93310  Biso   1.000  C
  H33      1.0000 0.87060  0.33380  0.07170  Biso   1.000  H
  H34      1.0000 0.12940  0.66620  0.07170  Biso   1.000  H
  H35      1.0000 0.62940  0.83380  0.92830  Biso   1.000  H
  H36      1.0000 0.37060  0.16620  0.92830  Biso   1.000  H
  C29      1.0000 0.64730  0.13600  0.05030  Biso   1.000  C
  C30      1.0000 0.35270  0.86400  0.05030  Biso   1.000  C
  C31      1.0000 0.85270  0.63600  0.94970  Biso   1.000  C
  C32      1.0000 0.14730  0.36400  0.94970  Biso   1.000  C
  H37      1.0000 0.59110  0.08570  0.04490  Biso   1.000  H
  H38      1.0000 0.40890  0.91430  0.04490  Biso   1.000  H
  H39      1.0000 0.90890  0.58570  0.95510  Biso   1.000  H
  H40      1.0000 0.09110  0.41430  0.95510  Biso   1.000  H
  C33      1.0000 0.77740  0.25230  0.97410  Biso   1.000  C
  C34      1.0000 0.22260  0.74770  0.97410  Biso   1.000  C
  C35      1.0000 0.72260  0.75230  0.02590  Biso   1.000  C
  C36      1.0000 0.27740  0.24770  0.02590  Biso   1.000  C
  H41      1.0000 0.80900  0.28170  0.91710  Biso   1.000  H
  H42      1.0000 0.19100  0.71830  0.91710  Biso   1.000  H
  H43      1.0000 0.69100  0.78170  0.08290  Biso   1.000  H
  H44      1.0000 0.30900  0.21830  0.08290  Biso   1.000  H
  C37      1.0000 0.69430  0.17740  0.96510  Biso   1.000  C
  C38      1.0000 0.30570  0.82260  0.96510  Biso   1.000  C
  C39      1.0000 0.80570  0.67740  0.03490  Biso   1.000  C
  C40      1.0000 0.19430  0.32260  0.03490  Biso   1.000  C
  C41      1.0000 0.65420  0.14230  0.86350  Biso   1.000  C
  C42      1.0000 0.34580  0.85770  0.86350  Biso   1.000  C
  C43      1.0000 0.84580  0.64230  0.13650  Biso   1.000  C
  C44      1.0000 0.15420  0.35770  0.13650  Biso   1.000  C
  N5       1.0000 0.00640  0.99300  0.30750  Biso   1.000  N
  N6       1.0000 0.99360  0.00700  0.30750  Biso   1.000  N
  N7       1.0000 0.49360  0.49300  0.69250  Biso   1.000  N
  N8       1.0000 0.50640  0.50700  0.69250  Biso   1.000  N
  C45      1.0000 0.92460  0.96800  0.24820  Biso   1.000  C
  C46      1.0000 0.07540  0.03200  0.24820  Biso   1.000  C
  C47      1.0000 0.57540  0.46800  0.75180  Biso   1.000  C
  C48      1.0000 0.42460  0.53200  0.75180  Biso   1.000  C
  H45      1.0000 0.86540  0.94430  0.27750  Biso   1.000  H
  H46      1.0000 0.13460  0.05570  0.27750  Biso   1.000  H
  H47      1.0000 0.63460  0.44430  0.72250  Biso   1.000  H
  H48      1.0000 0.36540  0.55570  0.72250  Biso   1.000  H
  C49      1.0000 0.93140  0.97950  0.14520  Biso   1.000  C
  C50      1.0000 0.06860  0.02050  0.14520  Biso   1.000  C
  C51      1.0000 0.56860  0.47950  0.85480  Biso   1.000  C
  C52      1.0000 0.43140  0.52050  0.85480  Biso   1.000  C
  H49      1.0000 0.87670  0.96300  0.10550  Biso   1.000  H
  H50      1.0000 0.12330  0.03700  0.10550  Biso   1.000  H
  H51      1.0000 0.62330  0.46300  0.89450  Biso   1.000  H
  H52      1.0000 0.37670  0.53700  0.89450  Biso   1.000  H
  C53      1.0000 0.02000  0.01550  0.10140  Biso   1.000  C
  C54      1.0000 0.98000  0.98450  0.10140  Biso   1.000  C
  C55      1.0000 0.48000  0.51550  0.89860  Biso   1.000  C
  C56      1.0000 0.52000  0.48450  0.89860  Biso   1.000  C
  C57      1.0000 0.10180  0.04030  0.16070  Biso   1.000  C
  C58      1.0000 0.89820  0.95970  0.16070  Biso   1.000  C
  C59      1.0000 0.39820  0.54030  0.83930  Biso   1.000  C
  C60      1.0000 0.60180  0.45970  0.83930  Biso   1.000  C
  H53      1.0000 0.16110  0.06430  0.13140  Biso   1.000  H
  H54      1.0000 0.83890  0.93570  0.13140  Biso   1.000  H
  H55      1.0000 0.33890  0.56430  0.86860  Biso   1.000  H
  H56      1.0000 0.66110  0.43570  0.86860  Biso   1.000  H
  C61      1.0000 0.09500  0.02900  0.26370  Biso   1.000  C
  C62      1.0000 0.90500  0.97100  0.26370  Biso   1.000  C
  C63      1.0000 0.40500  0.52900  0.73630  Biso   1.000  C
  C64      1.0000 0.59500  0.47100  0.73630  Biso   1.000  C
  H57      1.0000 0.14980  0.04560  0.30340  Biso   1.000  H
  H58      1.0000 0.85020  0.95440  0.30340  Biso   1.000  H
  H59      1.0000 0.35020  0.54560  0.69660  Biso   1.000  H
  H60      1.0000 0.64980  0.45440  0.69660  Biso   1.000  H
  C65      1.0000 0.02430  0.03920  0.98830  Biso   1.000  C
  C66      1.0000 0.97570  0.96080  0.98830  Biso   1.000  C
  C67      1.0000 0.47570  0.53920  0.01170  Biso   1.000  C
  C68      1.0000 0.52430  0.46080  0.01170  Biso   1.000  C
  H61      1.0000 0.99570  0.12210  0.97460  Biso   1.000  H
  H62      1.0000 0.00430  0.87790  0.97460  Biso   1.000  H
  H63      1.0000 0.50430  0.62210  0.02540  Biso   1.000  H
  H64      1.0000 0.49570  0.37790  0.02540  Biso   1.000  H
  H65      1.0000 0.09290  0.04230  0.96820  Biso   1.000  H
  H66      1.0000 0.90710  0.95770  0.96820  Biso   1.000  H
  H67      1.0000 0.40710  0.54230  0.03180  Biso   1.000  H
  H68      1.0000 0.59290  0.45770  0.03180  Biso   1.000  H
  C69      1.0000 0.97350  0.94370  0.92660  Biso   1.000  C
  C70      1.0000 0.02650  0.05630  0.92660  Biso   1.000  C
  C71      1.0000 0.52650  0.44370  0.07340  Biso   1.000  C
  C72      1.0000 0.47350  0.55630  0.07340  Biso   1.000  C
  H69      1.0000 0.90410  0.94340  0.94370  Biso   1.000  H
  H70      1.0000 0.09590  0.05660  0.94370  Biso   1.000  H
  H71      1.0000 0.59590  0.44340  0.05630  Biso   1.000  H
  H72      1.0000 0.40410  0.55660  0.05630  Biso   1.000  H
  H73      1.0000 0.99980  0.86000  0.94190  Biso   1.000  H
  H74      1.0000 0.00020  0.14000  0.94190  Biso   1.000  H
  H75      1.0000 0.50020  0.36000  0.05810  Biso   1.000  H
  H76      1.0000 0.49980  0.64000  0.05810  Biso   1.000  H
  C73      1.0000 0.98430  0.96830  0.81350  Biso   1.000  C
  C74      1.0000 0.01570  0.03170  0.81350  Biso   1.000  C
  C75      1.0000 0.51570  0.46830  0.18650  Biso   1.000  C
  C76      1.0000 0.48430  0.53170  0.18650  Biso   1.000  C
  C77      1.0000 0.89940  0.99940  0.76080  Biso   1.000  C
  C78      1.0000 0.10060  0.00060  0.76080  Biso   1.000  C
  C79      1.0000 0.60060  0.49940  0.23920  Biso   1.000  C
  C80      1.0000 0.39940  0.50060  0.23920  Biso   1.000  C
  H77      1.0000 0.83970  0.00780  0.79410  Biso   1.000  H
  H78      1.0000 0.16030  0.99220  0.79410  Biso   1.000  H
  H79      1.0000 0.66030  0.50780  0.20590  Biso   1.000  H
  H80      1.0000 0.33970  0.49220  0.20590  Biso   1.000  H
  C81      1.0000 0.90390  0.01790  0.65820  Biso   1.000  C
  C82      1.0000 0.09610  0.98210  0.65820  Biso   1.000  C
  C83      1.0000 0.59610  0.51790  0.34180  Biso   1.000  C
  C84      1.0000 0.40390  0.48210  0.34180  Biso   1.000  C
  H81      1.0000 0.84710  0.03870  0.62300  Biso   1.000  H
  H82      1.0000 0.15290  0.96130  0.62300  Biso   1.000  H
  H83      1.0000 0.65290  0.53870  0.37700  Biso   1.000  H
  H84      1.0000 0.34710  0.46130  0.37700  Biso   1.000  H
  N9       1.0000 0.99320  0.00500  0.60840  Biso   1.000  N
  N10      1.0000 0.00680  0.99500  0.60840  Biso   1.000  N
  N11      1.0000 0.50680  0.50500  0.39160  Biso   1.000  N
  N12      1.0000 0.49320  0.49500  0.39160  Biso   1.000  N
  C85      1.0000 0.07800  0.97430  0.66110  Biso   1.000  C
  C86      1.0000 0.92200  0.02570  0.66110  Biso   1.000  C
  C87      1.0000 0.42200  0.47430  0.33890  Biso   1.000  C
  C88      1.0000 0.57800  0.52570  0.33890  Biso   1.000  C
  H85      1.0000 0.13780  0.96600  0.62780  Biso   1.000  H
  H86      1.0000 0.86220  0.03400  0.62780  Biso   1.000  H
  H87      1.0000 0.36220  0.46600  0.37220  Biso   1.000  H
  H88      1.0000 0.63780  0.53400  0.37220  Biso   1.000  H
  C89      1.0000 0.07360  0.95580  0.76370  Biso   1.000  C
  C90      1.0000 0.92640  0.04420  0.76370  Biso   1.000  C
  C91      1.0000 0.42640  0.45580  0.23630  Biso   1.000  C
  C92      1.0000 0.57360  0.54420  0.23630  Biso   1.000  C
  H89      1.0000 0.13030  0.93500  0.79890  Biso   1.000  H
  H90      1.0000 0.86970  0.06500  0.79890  Biso   1.000  H
  H91      1.0000 0.36970  0.43500  0.20110  Biso   1.000  H
  H92      1.0000 0.63030  0.56500  0.20110  Biso   1.000  H
