data_image0
_cell_length_a       10.934
_cell_length_b       14.846
_cell_length_c       25.624
_cell_angle_alpha    90
_cell_angle_beta     90
_cell_angle_gamma    90

_symmetry_space_group_name_H-M    "P 1"
_symmetry_int_tables_number       1

loop_
  _symmetry_equiv_pos_as_xyz
  'x, y, z'

loop_
  _atom_site_label
  _atom_site_occupancy
  _atom_site_fract_x
  _atom_site_fract_y
  _atom_site_fract_z
  _atom_site_thermal_displace_type
  _atom_site_B_iso_or_equiv
  _atom_site_type_symbol
  Cu1      1.0000 0.14764  0.25000  0.75000  Biso   1.000  Cu
  Cu2      1.0000 0.35236  0.25000  0.25000  Biso   1.000  Cu
  Cu3      1.0000 0.85236  0.75000  0.25000  Biso   1.000  Cu
  Cu4      1.0000 0.64764  0.75000  0.75000  Biso   1.000  Cu
  N1       1.0000 0.02120  0.19990  0.70111  Biso   1.000  N
  N2       1.0000 0.47880  0.19990  0.29889  Biso   1.000  N
  N3       1.0000 0.47880  0.30010  0.20111  Biso   1.000  N
  N4       1.0000 0.02120  0.30010  0.79889  Biso   1.000  N
  N5       1.0000 0.97880  0.80010  0.29889  Biso   1.000  N
  N6       1.0000 0.52120  0.80010  0.70111  Biso   1.000  N
  N7       1.0000 0.52120  0.69990  0.79889  Biso   1.000  N
  N8       1.0000 0.97880  0.69990  0.20111  Biso   1.000  N
  C1       1.0000 0.01340  0.11360  0.69023  Biso   1.000  C
  C2       1.0000 0.48660  0.11360  0.30977  Biso   1.000  C
  C3       1.0000 0.48660  0.38640  0.19023  Biso   1.000  C
  C4       1.0000 0.01340  0.38640  0.80977  Biso   1.000  C
  C5       1.0000 0.98660  0.88640  0.30977  Biso   1.000  C
  C6       1.0000 0.51340  0.88640  0.69023  Biso   1.000  C
  C7       1.0000 0.51340  0.61360  0.80977  Biso   1.000  C
  C8       1.0000 0.98660  0.61360  0.19023  Biso   1.000  C
  H1       1.0000 0.06800  0.07440  0.70630  Biso   1.000  H
  H2       1.0000 0.43200  0.07440  0.29370  Biso   1.000  H
  H3       1.0000 0.43200  0.42560  0.20630  Biso   1.000  H
  H4       1.0000 0.06800  0.42560  0.79370  Biso   1.000  H
  H5       1.0000 0.93200  0.92560  0.29370  Biso   1.000  H
  H6       1.0000 0.56800  0.92560  0.70630  Biso   1.000  H
  H7       1.0000 0.56800  0.57440  0.79370  Biso   1.000  H
  H8       1.0000 0.93200  0.57440  0.20630  Biso   1.000  H
  C9       1.0000 0.92730  0.07810  0.65579  Biso   1.000  C
  C10      1.0000 0.57270  0.07810  0.34421  Biso   1.000  C
  C11      1.0000 0.57270  0.42190  0.15579  Biso   1.000  C
  C12      1.0000 0.92730  0.42190  0.84421  Biso   1.000  C
  C13      1.0000 0.07270  0.92190  0.34421  Biso   1.000  C
  C14      1.0000 0.42730  0.92190  0.65579  Biso   1.000  C
  C15      1.0000 0.42730  0.57810  0.84421  Biso   1.000  C
  C16      1.0000 0.07270  0.57810  0.15579  Biso   1.000  C
  H9       1.0000 0.92450  0.01650  0.64940  Biso   1.000  H
  H10      1.0000 0.57550  0.01650  0.35060  Biso   1.000  H
  H11      1.0000 0.57550  0.48350  0.14940  Biso   1.000  H
  H12      1.0000 0.92450  0.48350  0.85060  Biso   1.000  H
  H13      1.0000 0.07550  0.98350  0.35060  Biso   1.000  H
  H14      1.0000 0.42450  0.98350  0.64940  Biso   1.000  H
  H15      1.0000 0.42450  0.51650  0.85060  Biso   1.000  H
  H16      1.0000 0.07550  0.51650  0.14940  Biso   1.000  H
  C17      1.0000 0.84720  0.13500  0.63160  Biso   1.000  C
  C18      1.0000 0.65280  0.13500  0.36840  Biso   1.000  C
  C19      1.0000 0.65280  0.36500  0.13160  Biso   1.000  C
  C20      1.0000 0.84720  0.36500  0.86840  Biso   1.000  C
  C21      1.0000 0.15280  0.86500  0.36840  Biso   1.000  C
  C22      1.0000 0.34720  0.86500  0.63160  Biso   1.000  C
  C23      1.0000 0.34720  0.63500  0.86840  Biso   1.000  C
  C24      1.0000 0.15280  0.63500  0.13160  Biso   1.000  C
  C25      1.0000 0.85580  0.22420  0.64210  Biso   1.000  C
  C26      1.0000 0.64420  0.22420  0.35790  Biso   1.000  C
  C27      1.0000 0.64420  0.27580  0.14210  Biso   1.000  C
  C28      1.0000 0.85580  0.27580  0.85790  Biso   1.000  C
  C29      1.0000 0.14420  0.77580  0.35790  Biso   1.000  C
  C30      1.0000 0.35580  0.77580  0.64210  Biso   1.000  C
  C31      1.0000 0.35580  0.72420  0.85790  Biso   1.000  C
  C32      1.0000 0.14420  0.72420  0.14210  Biso   1.000  C
  H17      1.0000 0.80330  0.26490  0.62610  Biso   1.000  H
  H18      1.0000 0.69670  0.26490  0.37390  Biso   1.000  H
  H19      1.0000 0.69670  0.23510  0.12610  Biso   1.000  H
  H20      1.0000 0.80330  0.23510  0.87390  Biso   1.000  H
  H21      1.0000 0.19670  0.73510  0.37390  Biso   1.000  H
  H22      1.0000 0.30330  0.73510  0.62610  Biso   1.000  H
  H23      1.0000 0.30330  0.76490  0.87390  Biso   1.000  H
  H24      1.0000 0.19670  0.76490  0.12610  Biso   1.000  H
  C33      1.0000 0.94300  0.25400  0.67664  Biso   1.000  C
  C34      1.0000 0.55700  0.25400  0.32336  Biso   1.000  C
  C35      1.0000 0.55700  0.24600  0.17664  Biso   1.000  C
  C36      1.0000 0.94300  0.24600  0.82336  Biso   1.000  C
  C37      1.0000 0.05700  0.74600  0.32336  Biso   1.000  C
  C38      1.0000 0.44300  0.74600  0.67664  Biso   1.000  C
  C39      1.0000 0.44300  0.75400  0.82336  Biso   1.000  C
  C40      1.0000 0.05700  0.75400  0.17664  Biso   1.000  C
  H25      1.0000 0.94750  0.31550  0.68330  Biso   1.000  H
  H26      1.0000 0.55250  0.31550  0.31670  Biso   1.000  H
  H27      1.0000 0.55250  0.18450  0.18330  Biso   1.000  H
  H28      1.0000 0.94750  0.18450  0.81670  Biso   1.000  H
  H29      1.0000 0.05250  0.68450  0.31670  Biso   1.000  H
  H30      1.0000 0.44750  0.68450  0.68330  Biso   1.000  H
  H31      1.0000 0.44750  0.81550  0.81670  Biso   1.000  H
  H32      1.0000 0.05250  0.81550  0.18330  Biso   1.000  H
  C41      1.0000 0.75730  0.09900  0.59567  Biso   1.000  C
  C42      1.0000 0.74270  0.09900  0.40433  Biso   1.000  C
  C43      1.0000 0.74270  0.40100  0.09567  Biso   1.000  C
  C44      1.0000 0.75730  0.40100  0.90433  Biso   1.000  C
  C45      1.0000 0.24270  0.90100  0.40433  Biso   1.000  C
  C46      1.0000 0.25730  0.90100  0.59567  Biso   1.000  C
  C47      1.0000 0.25730  0.59900  0.90433  Biso   1.000  C
  C48      1.0000 0.24270  0.59900  0.09567  Biso   1.000  C
  C49      1.0000 0.68320  0.07110  0.56684  Biso   1.000  C
  C50      1.0000 0.81680  0.07110  0.43316  Biso   1.000  C
  C51      1.0000 0.81680  0.42890  0.06684  Biso   1.000  C
  C52      1.0000 0.68320  0.42890  0.93316  Biso   1.000  C
  C53      1.0000 0.31680  0.92890  0.43316  Biso   1.000  C
  C54      1.0000 0.18320  0.92890  0.56684  Biso   1.000  C
  C55      1.0000 0.18320  0.57110  0.93316  Biso   1.000  C
  C56      1.0000 0.31680  0.57110  0.06684  Biso   1.000  C
  C57      1.0000 0.59090  0.03480  0.53257  Biso   1.000  C
  C58      1.0000 0.90910  0.03480  0.46743  Biso   1.000  C
  C59      1.0000 0.90910  0.46520  0.03257  Biso   1.000  C
  C60      1.0000 0.59090  0.46520  0.96743  Biso   1.000  C
  C61      1.0000 0.40910  0.96520  0.46743  Biso   1.000  C
  C62      1.0000 0.09090  0.96520  0.53257  Biso   1.000  C
  C63      1.0000 0.09090  0.53480  0.96743  Biso   1.000  C
  C64      1.0000 0.40910  0.53480  0.03257  Biso   1.000  C
  C65      1.0000 0.57670  0.94210  0.52911  Biso   1.000  C
  C66      1.0000 0.92330  0.94210  0.47089  Biso   1.000  C
  C67      1.0000 0.92330  0.55790  0.02911  Biso   1.000  C
  C68      1.0000 0.57670  0.55790  0.97089  Biso   1.000  C
  C69      1.0000 0.42330  0.05790  0.47089  Biso   1.000  C
  C70      1.0000 0.07670  0.05790  0.52911  Biso   1.000  C
  C71      1.0000 0.07670  0.44210  0.97089  Biso   1.000  C
  C72      1.0000 0.42330  0.44210  0.02911  Biso   1.000  C
  C73      1.0000 0.65170  0.88070  0.55788  Biso   1.000  C
  C74      1.0000 0.84830  0.88070  0.44212  Biso   1.000  C
  C75      1.0000 0.84830  0.61930  0.05788  Biso   1.000  C
  C76      1.0000 0.65170  0.61930  0.94212  Biso   1.000  C
  C77      1.0000 0.34830  0.11930  0.44212  Biso   1.000  C
  C78      1.0000 0.15170  0.11930  0.55788  Biso   1.000  C
  C79      1.0000 0.15170  0.38070  0.94212  Biso   1.000  C
  C80      1.0000 0.34830  0.38070  0.05788  Biso   1.000  C
  H33      1.0000 0.71320  0.90350  0.57920  Biso   1.000  H
  H34      1.0000 0.78680  0.90350  0.42080  Biso   1.000  H
  H35      1.0000 0.78680  0.59650  0.07920  Biso   1.000  H
  H36      1.0000 0.71320  0.59650  0.92080  Biso   1.000  H
  H37      1.0000 0.28680  0.09650  0.42080  Biso   1.000  H
  H38      1.0000 0.21320  0.09650  0.57920  Biso   1.000  H
  H39      1.0000 0.21320  0.40350  0.92080  Biso   1.000  H
  H40      1.0000 0.28680  0.40350  0.07920  Biso   1.000  H
  C81      1.0000 0.63570  0.79190  0.55500  Biso   1.000  C
  C82      1.0000 0.86430  0.79190  0.44500  Biso   1.000  C
  C83      1.0000 0.86430  0.70810  0.05500  Biso   1.000  C
  C84      1.0000 0.63570  0.70810  0.94500  Biso   1.000  C
  C85      1.0000 0.36430  0.20810  0.44500  Biso   1.000  C
  C86      1.0000 0.13570  0.20810  0.55500  Biso   1.000  C
  C87      1.0000 0.13570  0.29190  0.94500  Biso   1.000  C
  C88      1.0000 0.36430  0.29190  0.05500  Biso   1.000  C
  H41      1.0000 0.68600  0.75350  0.57400  Biso   1.000  H
  H42      1.0000 0.81400  0.75350  0.42600  Biso   1.000  H
  H43      1.0000 0.81400  0.74650  0.07400  Biso   1.000  H
  H44      1.0000 0.68600  0.74650  0.92600  Biso   1.000  H
  H45      1.0000 0.31400  0.24650  0.42600  Biso   1.000  H
  H46      1.0000 0.18600  0.24650  0.57400  Biso   1.000  H
  H47      1.0000 0.18600  0.25350  0.92600  Biso   1.000  H
  H48      1.0000 0.31400  0.25350  0.07400  Biso   1.000  H
  C89      1.0000 0.54210  0.75570  0.52290  Biso   1.000  C
  C90      1.0000 0.95790  0.75570  0.47710  Biso   1.000  C
  C91      1.0000 0.95790  0.74430  0.02290  Biso   1.000  C
  C92      1.0000 0.54210  0.74430  0.97710  Biso   1.000  C
  C93      1.0000 0.45790  0.24430  0.47710  Biso   1.000  C
  C94      1.0000 0.04210  0.24430  0.52290  Biso   1.000  C
  C95      1.0000 0.04210  0.25570  0.97710  Biso   1.000  C
  C96      1.0000 0.45790  0.25570  0.02290  Biso   1.000  C
  H49      1.0000 0.53030  0.69370  0.52120  Biso   1.000  H
  H50      1.0000 0.96970  0.69370  0.47880  Biso   1.000  H
  H51      1.0000 0.96970  0.80630  0.02120  Biso   1.000  H
  H52      1.0000 0.53030  0.80630  0.97880  Biso   1.000  H
  H53      1.0000 0.46970  0.30630  0.47880  Biso   1.000  H
  H54      1.0000 0.03030  0.30630  0.52120  Biso   1.000  H
  H55      1.0000 0.03030  0.19370  0.97880  Biso   1.000  H
  H56      1.0000 0.46970  0.19370  0.02120  Biso   1.000  H
  C97      1.0000 0.46930  0.81190  0.49440  Biso   1.000  C
  C98      1.0000 0.03070  0.81190  0.50560  Biso   1.000  C
  C99      1.0000 0.03070  0.68810  0.99440  Biso   1.000  C
  C100     1.0000 0.46930  0.68810  0.00560  Biso   1.000  C
  C101     1.0000 0.53070  0.18810  0.50560  Biso   1.000  C
  C102     1.0000 0.96930  0.18810  0.49440  Biso   1.000  C
  C103     1.0000 0.96930  0.31190  0.00560  Biso   1.000  C
  C104     1.0000 0.53070  0.31190  0.99440  Biso   1.000  C
  H57      1.0000 0.40890  0.78730  0.47320  Biso   1.000  H
  H58      1.0000 0.09110  0.78730  0.52680  Biso   1.000  H
  H59      1.0000 0.09110  0.71270  0.97320  Biso   1.000  H
  H60      1.0000 0.40890  0.71270  0.02680  Biso   1.000  H
  H61      1.0000 0.59110  0.21270  0.52680  Biso   1.000  H
  H62      1.0000 0.90890  0.21270  0.47320  Biso   1.000  H
  H63      1.0000 0.90890  0.28730  0.02680  Biso   1.000  H
  H64      1.0000 0.59110  0.28730  0.97320  Biso   1.000  H
  C105     1.0000 0.51680  0.09460  0.50363  Biso   1.000  C
  C106     1.0000 0.98320  0.09460  0.49637  Biso   1.000  C
  C107     1.0000 0.98320  0.40540  0.00363  Biso   1.000  C
  C108     1.0000 0.51680  0.40540  0.99637  Biso   1.000  C
  C109     1.0000 0.48320  0.90540  0.49637  Biso   1.000  C
  C110     1.0000 0.01680  0.90540  0.50363  Biso   1.000  C
  C111     1.0000 0.01680  0.59460  0.99637  Biso   1.000  C
  C112     1.0000 0.48320  0.59460  0.00363  Biso   1.000  C
  O1       1.0000 0.28020  0.21030  0.70163  Biso   1.000  O
  O2       1.0000 0.21980  0.21030  0.29837  Biso   1.000  O
  O3       1.0000 0.21980  0.28970  0.20163  Biso   1.000  O
  O4       1.0000 0.28020  0.28970  0.79837  Biso   1.000  O
  O5       1.0000 0.71980  0.78970  0.29837  Biso   1.000  O
  O6       1.0000 0.78020  0.78970  0.70163  Biso   1.000  O
  O7       1.0000 0.78020  0.71030  0.79837  Biso   1.000  O
  O8       1.0000 0.71980  0.71030  0.20163  Biso   1.000  O
  C113     1.0000 0.35640  0.26100  0.68028  Biso   1.000  C
  C114     1.0000 0.14360  0.26100  0.31972  Biso   1.000  C
  C115     1.0000 0.14360  0.23900  0.18028  Biso   1.000  C
  C116     1.0000 0.35640  0.23900  0.81972  Biso   1.000  C
  C117     1.0000 0.64360  0.73900  0.31972  Biso   1.000  C
  C118     1.0000 0.85640  0.73900  0.68028  Biso   1.000  C
  C119     1.0000 0.85640  0.76100  0.81972  Biso   1.000  C
  C120     1.0000 0.64360  0.76100  0.18028  Biso   1.000  C
  C121     1.0000 0.46950  0.20960  0.66090  Biso   1.000  C
  C122     1.0000 0.03050  0.20960  0.33910  Biso   1.000  C
  C123     1.0000 0.03050  0.29040  0.16090  Biso   1.000  C
  C124     1.0000 0.46950  0.29040  0.83910  Biso   1.000  C
  C125     1.0000 0.53050  0.79040  0.33910  Biso   1.000  C
  C126     1.0000 0.96950  0.79040  0.66090  Biso   1.000  C
  C127     1.0000 0.96950  0.70960  0.83910  Biso   1.000  C
  C128     1.0000 0.53050  0.70960  0.16090  Biso   1.000  C
  F1       1.0000 0.43730  0.14830  0.62591  Biso   1.000  F
  F2       1.0000 0.06270  0.14830  0.37409  Biso   1.000  F
  F3       1.0000 0.06270  0.35170  0.12591  Biso   1.000  F
  F4       1.0000 0.43730  0.35170  0.87409  Biso   1.000  F
  F5       1.0000 0.56270  0.85170  0.37409  Biso   1.000  F
  F6       1.0000 0.93730  0.85170  0.62591  Biso   1.000  F
  F7       1.0000 0.93730  0.64830  0.87409  Biso   1.000  F
  F8       1.0000 0.56270  0.64830  0.12591  Biso   1.000  F
  F9       1.0000 0.55110  0.26120  0.63830  Biso   1.000  F
  F10      1.0000 0.94890  0.26120  0.36170  Biso   1.000  F
  F11      1.0000 0.94890  0.23880  0.13830  Biso   1.000  F
  F12      1.0000 0.55110  0.23880  0.86170  Biso   1.000  F
  F13      1.0000 0.44890  0.73880  0.36170  Biso   1.000  F
  F14      1.0000 0.05110  0.73880  0.63830  Biso   1.000  F
  F15      1.0000 0.05110  0.76120  0.86170  Biso   1.000  F
  F16      1.0000 0.44890  0.76120  0.13830  Biso   1.000  F
  F17      1.0000 0.52080  0.16620  0.69780  Biso   1.000  F
  F18      1.0000 0.97920  0.16620  0.30220  Biso   1.000  F
  F19      1.0000 0.97920  0.33380  0.19780  Biso   1.000  F
  F20      1.0000 0.52080  0.33380  0.80220  Biso   1.000  F
  F21      1.0000 0.47920  0.83380  0.30220  Biso   1.000  F
  F22      1.0000 0.02080  0.83380  0.69780  Biso   1.000  F
  F23      1.0000 0.02080  0.66620  0.80220  Biso   1.000  F
  F24      1.0000 0.47920  0.66620  0.19780  Biso   1.000  F
  C129     1.0000 0.35160  0.35170  0.67110  Biso   1.000  C
  C130     1.0000 0.14840  0.35170  0.32890  Biso   1.000  C
  C131     1.0000 0.14840  0.14830  0.17110  Biso   1.000  C
  C132     1.0000 0.35160  0.14830  0.82890  Biso   1.000  C
  C133     1.0000 0.64840  0.64830  0.32890  Biso   1.000  C
  C134     1.0000 0.85160  0.64830  0.67110  Biso   1.000  C
  C135     1.0000 0.85160  0.85170  0.82890  Biso   1.000  C
  C136     1.0000 0.64840  0.85170  0.17110  Biso   1.000  C
  H65      1.0000 0.41740  0.37860  0.65420  Biso   1.000  H
  H66      1.0000 0.08260  0.37860  0.34580  Biso   1.000  H
  H67      1.0000 0.08260  0.12140  0.15420  Biso   1.000  H
  H68      1.0000 0.41740  0.12140  0.84580  Biso   1.000  H
  H69      1.0000 0.58260  0.62140  0.34580  Biso   1.000  H
  H70      1.0000 0.91740  0.62140  0.65420  Biso   1.000  H
  H71      1.0000 0.91740  0.87860  0.84580  Biso   1.000  H
  H72      1.0000 0.58260  0.87860  0.15420  Biso   1.000  H
  C137     1.0000 0.25270  0.40630  0.68590  Biso   1.000  C
  C138     1.0000 0.24730  0.40630  0.31410  Biso   1.000  C
  C139     1.0000 0.24730  0.09370  0.18590  Biso   1.000  C
  C140     1.0000 0.25270  0.09370  0.81410  Biso   1.000  C
  C141     1.0000 0.74730  0.59370  0.31410  Biso   1.000  C
  C142     1.0000 0.75270  0.59370  0.68590  Biso   1.000  C
  C143     1.0000 0.75270  0.90630  0.81410  Biso   1.000  C
  C144     1.0000 0.74730  0.90630  0.18590  Biso   1.000  C
  C145     1.0000 0.25820  0.50310  0.67020  Biso   1.000  C
  C146     1.0000 0.24180  0.50310  0.32980  Biso   1.000  C
  C147     1.0000 0.24180  0.99690  0.17020  Biso   1.000  C
  C148     1.0000 0.25820  0.99690  0.82980  Biso   1.000  C
  C149     1.0000 0.74180  0.49690  0.32980  Biso   1.000  C
  C150     1.0000 0.75820  0.49690  0.67020  Biso   1.000  C
  C151     1.0000 0.75820  0.00310  0.82980  Biso   1.000  C
  C152     1.0000 0.74180  0.00310  0.17020  Biso   1.000  C
  F25      1.0000 0.35200  0.53070  0.64630  Biso   1.000  F
  F26      1.0000 0.14800  0.53070  0.35370  Biso   1.000  F
  F27      1.0000 0.14800  0.96930  0.14630  Biso   1.000  F
  F28      1.0000 0.35200  0.96930  0.85370  Biso   1.000  F
  F29      1.0000 0.64800  0.46930  0.35370  Biso   1.000  F
  F30      1.0000 0.85200  0.46930  0.64630  Biso   1.000  F
  F31      1.0000 0.85200  0.03070  0.85370  Biso   1.000  F
  F32      1.0000 0.64800  0.03070  0.14630  Biso   1.000  F
  F33      1.0000 0.16730  0.52920  0.64420  Biso   1.000  F
  F34      1.0000 0.33270  0.52920  0.35580  Biso   1.000  F
  F35      1.0000 0.33270  0.97080  0.14420  Biso   1.000  F
  F36      1.0000 0.16730  0.97080  0.85580  Biso   1.000  F
  F37      1.0000 0.83270  0.47080  0.35580  Biso   1.000  F
  F38      1.0000 0.66730  0.47080  0.64420  Biso   1.000  F
  F39      1.0000 0.66730  0.02920  0.85580  Biso   1.000  F
  F40      1.0000 0.83270  0.02920  0.14420  Biso   1.000  F
  F41      1.0000 0.25480  0.55270  0.71110  Biso   1.000  F
  F42      1.0000 0.24520  0.55270  0.28890  Biso   1.000  F
  F43      1.0000 0.24520  0.94730  0.21110  Biso   1.000  F
  F44      1.0000 0.25480  0.94730  0.78890  Biso   1.000  F
  F45      1.0000 0.74520  0.44730  0.28890  Biso   1.000  F
  F46      1.0000 0.75480  0.44730  0.71110  Biso   1.000  F
  F47      1.0000 0.75480  0.05270  0.78890  Biso   1.000  F
  F48      1.0000 0.74520  0.05270  0.21110  Biso   1.000  F
  O9       1.0000 0.15980  0.38340  0.70738  Biso   1.000  O
  O10      1.0000 0.34020  0.38340  0.29262  Biso   1.000  O
  O11      1.0000 0.34020  0.11660  0.20738  Biso   1.000  O
  O12      1.0000 0.15980  0.11660  0.79262  Biso   1.000  O
  O13      1.0000 0.84020  0.61660  0.29262  Biso   1.000  O
  O14      1.0000 0.65980  0.61660  0.70738  Biso   1.000  O
  O15      1.0000 0.65980  0.88340  0.79262  Biso   1.000  O
  O16      1.0000 0.84020  0.88340  0.20738  Biso   1.000  O
