data_image0
_cell_length_a       9.911
_cell_length_b       13.066
_cell_length_c       16.881
_cell_angle_alpha    97.81
_cell_angle_beta     105.82
_cell_angle_gamma    96.43

_symmetry_space_group_name_H-M    "P 1"
_symmetry_int_tables_number       1

loop_
  _symmetry_equiv_pos_as_xyz
  'x, y, z'

loop_
  _atom_site_label
  _atom_site_occupancy
  _atom_site_fract_x
  _atom_site_fract_y
  _atom_site_fract_z
  _atom_site_thermal_displace_type
  _atom_site_B_iso_or_equiv
  _atom_site_type_symbol
  C1       1.0000 0.91260  0.60060  0.04590  Biso   1.000  C
  C2       1.0000 0.08740  0.39940  0.95410  Biso   1.000  C
  C3       1.0000 0.80810  0.52520  0.05450  Biso   1.000  C
  C4       1.0000 0.19190  0.47480  0.94550  Biso   1.000  C
  H1       1.0000 0.80560  0.51440  0.10740  Biso   1.000  H
  H2       1.0000 0.19440  0.48560  0.89260  Biso   1.000  H
  C5       1.0000 0.70730  0.46610  0.98350  Biso   1.000  C
  C6       1.0000 0.29270  0.53390  0.01650  Biso   1.000  C
  C7       1.0000 0.71330  0.48180  0.90440  Biso   1.000  C
  C8       1.0000 0.28670  0.51820  0.09560  Biso   1.000  C
  H3       1.0000 0.64710  0.44210  0.85700  Biso   1.000  H
  H4       1.0000 0.35290  0.55790  0.14300  Biso   1.000  H
  C9       1.0000 0.81800  0.55670  0.89560  Biso   1.000  C
  C10      1.0000 0.18200  0.44330  0.10440  Biso   1.000  C
  C11      1.0000 0.91710  0.61630  0.96670  Biso   1.000  C
  C12      1.0000 0.08290  0.38370  0.03330  Biso   1.000  C
  H5       1.0000 0.98640  0.66670  0.96120  Biso   1.000  H
  H6       1.0000 0.01360  0.33330  0.03880  Biso   1.000  H
  C13      1.0000 0.01120  0.66320  0.11970  Biso   1.000  C
  C14      1.0000 0.98880  0.33680  0.88030  Biso   1.000  C
  C15      1.0000 0.08740  0.71460  0.18290  Biso   1.000  C
  C16      1.0000 0.91260  0.28540  0.81710  Biso   1.000  C
  C17      1.0000 0.17860  0.77810  0.25890  Biso   1.000  C
  C18      1.0000 0.82140  0.22190  0.74110  Biso   1.000  C
  C19      1.0000 0.15640  0.87790  0.28470  Biso   1.000  C
  C20      1.0000 0.84360  0.12210  0.71530  Biso   1.000  C
  H7       1.0000 0.07890  0.90400  0.25400  Biso   1.000  H
  H8       1.0000 0.92110  0.09600  0.74600  Biso   1.000  H
  C21      1.0000 0.24910  0.93860  0.35570  Biso   1.000  C
  C22      1.0000 0.75090  0.06140  0.64430  Biso   1.000  C
  H9       1.0000 0.23350  0.00620  0.37180  Biso   1.000  H
  H10      1.0000 0.76650  0.99380  0.62820  Biso   1.000  H
  N1       1.0000 0.36090  0.90390  0.40253  Biso   1.000  N
  N2       1.0000 0.63910  0.09610  0.59747  Biso   1.000  N
  C23      1.0000 0.38140  0.80590  0.37920  Biso   1.000  C
  C24      1.0000 0.61860  0.19410  0.62080  Biso   1.000  C
  H11      1.0000 0.45770  0.78050  0.41190  Biso   1.000  H
  H12      1.0000 0.54230  0.21950  0.58810  Biso   1.000  H
  C25      1.0000 0.29330  0.74190  0.30840  Biso   1.000  C
  C26      1.0000 0.70670  0.25810  0.69160  Biso   1.000  C
  H13      1.0000 0.31060  0.67440  0.29360  Biso   1.000  H
  H14      1.0000 0.68940  0.32560  0.70640  Biso   1.000  H
  Cu1      1.0000 0.50000  0.00000  0.50000  Biso   1.000  Cu
  O1       1.0000 0.50270  0.11072  0.43153  Biso   1.000  O
  O2       1.0000 0.49730  0.88928  0.56847  Biso   1.000  O
  O3       1.0000 0.68440  0.94380  0.45465  Biso   1.000  O
  O4       1.0000 0.31560  0.05620  0.54535  Biso   1.000  O
  C27      1.0000 0.59490  0.39240  0.99150  Biso   1.000  C
  C28      1.0000 0.40510  0.60760  0.00850  Biso   1.000  C
  C29      1.0000 0.49870  0.33260  0.99610  Biso   1.000  C
  C30      1.0000 0.50130  0.66740  0.00390  Biso   1.000  C
  C31      1.0000 0.38200  0.25880  0.99800  Biso   1.000  C
  C32      1.0000 0.61800  0.74120  0.00200  Biso   1.000  C
  C33      1.0000 0.35960  0.24020  0.07340  Biso   1.000  C
  C34      1.0000 0.64040  0.75980  0.92660  Biso   1.000  C
  H15      1.0000 0.42040  0.27620  0.12420  Biso   1.000  H
  H16      1.0000 0.57960  0.72380  0.87580  Biso   1.000  H
  C35      1.0000 0.24560  0.16740  0.07110  Biso   1.000  C
  C36      1.0000 0.75440  0.83260  0.92890  Biso   1.000  C
  H17      1.0000 0.23020  0.15610  0.12140  Biso   1.000  H
  H18      1.0000 0.76980  0.84390  0.87860  Biso   1.000  H
  N3       1.0000 0.15630  0.11240  0.99987  Biso   1.000  N
  N4       1.0000 0.84370  0.88760  0.00013  Biso   1.000  N
  C37      1.0000 0.17710  0.13070  0.92760  Biso   1.000  C
  C38      1.0000 0.82290  0.86930  0.07240  Biso   1.000  C
  H19      1.0000 0.11470  0.09350  0.87780  Biso   1.000  H
  H20      1.0000 0.88530  0.90650  0.12220  Biso   1.000  H
  C39      1.0000 0.28800  0.20290  0.92430  Biso   1.000  C
  C40      1.0000 0.71200  0.79710  0.07570  Biso   1.000  C
  H21      1.0000 0.29930  0.21370  0.87300  Biso   1.000  H
  H22      1.0000 0.70070  0.78630  0.12700  Biso   1.000  H
  Cu2      1.0000 0.00000  0.00000  0.00000  Biso   1.000  Cu
  O5       1.0000 0.05240  0.90189  0.91657  Biso   1.000  O
  O6       1.0000 0.94760  0.09811  0.08343  Biso   1.000  O
  O7       1.0000 0.17010  0.94358  0.10009  Biso   1.000  O
  O8       1.0000 0.82990  0.05642  0.89991  Biso   1.000  O
  C41      1.0000 0.81640  0.57360  0.81340  Biso   1.000  C
  C42      1.0000 0.18360  0.42640  0.18660  Biso   1.000  C
  C43      1.0000 0.80750  0.58820  0.74420  Biso   1.000  C
  C44      1.0000 0.19250  0.41180  0.25580  Biso   1.000  C
  C45      1.0000 0.76030  0.60860  0.65870  Biso   1.000  C
  C46      1.0000 0.23970  0.39140  0.34130  Biso   1.000  C
  C47      1.0000 0.67100  0.53460  0.59190  Biso   1.000  C
  C48      1.0000 0.32900  0.46540  0.40810  Biso   1.000  C
  H23      1.0000 0.62800  0.47250  0.60170  Biso   1.000  H
  H24      1.0000 0.37200  0.52750  0.39830  Biso   1.000  H
  C49      1.0000 0.64670  0.55440  0.51040  Biso   1.000  C
  C50      1.0000 0.35330  0.44560  0.48960  Biso   1.000  C
  H25      1.0000 0.59400  0.50230  0.46610  Biso   1.000  H
  H26      1.0000 0.40600  0.49770  0.53390  Biso   1.000  H
  N5       1.0000 0.69750  0.64730  0.49390  Biso   1.000  N
  N6       1.0000 0.30250  0.35270  0.50610  Biso   1.000  N
  C51      1.0000 0.78800  0.72090  0.55890  Biso   1.000  C
  C52      1.0000 0.21200  0.27910  0.44110  Biso   1.000  C
  H27      1.0000 0.83050  0.78220  0.54790  Biso   1.000  H
  H28      1.0000 0.16950  0.21780  0.45210  Biso   1.000  H
  C53      1.0000 0.81400  0.70350  0.64110  Biso   1.000  C
  C54      1.0000 0.18600  0.29650  0.35890  Biso   1.000  C
  H29      1.0000 0.86860  0.75580  0.68470  Biso   1.000  H
  H30      1.0000 0.13140  0.24420  0.31530  Biso   1.000  H
  C55      1.0000 0.82320  0.60050  0.66280  Biso   1.000  C
  C56      1.0000 0.17680  0.39950  0.33720  Biso   1.000  C
  C57      1.0000 0.81200  0.51280  0.60230  Biso   1.000  C
  C58      1.0000 0.18800  0.48720  0.39770  Biso   1.000  C
  H31      1.0000 0.80410  0.44590  0.61530  Biso   1.000  H
  H32      1.0000 0.19590  0.55410  0.38470  Biso   1.000  H
  C59      1.0000 0.81300  0.52780  0.52190  Biso   1.000  C
  C60      1.0000 0.18700  0.47220  0.47810  Biso   1.000  C
  H33      1.0000 0.81220  0.47080  0.48220  Biso   1.000  H
  H34      1.0000 0.18780  0.52920  0.51780  Biso   1.000  H
  N7       1.0000 0.81400  0.62430  0.50130  Biso   1.000  N
  N8       1.0000 0.18600  0.37570  0.49870  Biso   1.000  N
  C61      1.0000 0.80200  0.70800  0.55640  Biso   1.000  C
  C62      1.0000 0.19800  0.29200  0.44360  Biso   1.000  C
  H35      1.0000 0.77930  0.76960  0.53800  Biso   1.000  H
  H36      1.0000 0.22070  0.23040  0.46200  Biso   1.000  H
  C63      1.0000 0.82400  0.69940  0.64030  Biso   1.000  C
  C64      1.0000 0.17600  0.30060  0.35970  Biso   1.000  C
  H37      1.0000 0.83940  0.75890  0.68070  Biso   1.000  H
  H38      1.0000 0.16060  0.24110  0.31930  Biso   1.000  H
  C65      1.0000 0.56590  0.23220  0.35530  Biso   1.000  C
  C66      1.0000 0.43410  0.76780  0.64470  Biso   1.000  C
  C67      1.0000 0.59380  0.13430  0.39440  Biso   1.000  C
  C68      1.0000 0.40620  0.86570  0.60560  Biso   1.000  C
  C69      1.0000 0.70270  0.08540  0.38200  Biso   1.000  C
  C70      1.0000 0.29730  0.91460  0.61800  Biso   1.000  C
  H39      1.0000 0.75820  0.11540  0.35220  Biso   1.000  H
  H40      1.0000 0.24180  0.88460  0.64780  Biso   1.000  H
  C71      1.0000 0.73720  0.99380  0.41090  Biso   1.000  C
  C72      1.0000 0.26280  0.00620  0.58910  Biso   1.000  C
  C73      1.0000 0.85560  0.94820  0.38080  Biso   1.000  C
  C74      1.0000 0.14440  0.05180  0.61920  Biso   1.000  C
  C75      1.0000 0.19250  0.82050  0.84510  Biso   1.000  C
  C76      1.0000 0.80750  0.17950  0.15490  Biso   1.000  C
  C77      1.0000 0.17190  0.87240  0.92710  Biso   1.000  C
  C78      1.0000 0.82810  0.12760  0.07290  Biso   1.000  C
  C79      1.0000 0.28160  0.87950  0.99940  Biso   1.000  C
  C80      1.0000 0.71840  0.12050  0.00060  Biso   1.000  C
  H41      1.0000 0.36630  0.85890  0.99470  Biso   1.000  H
  H42      1.0000 0.63370  0.14110  0.00530  Biso   1.000  H
  C81      1.0000 0.27230  0.91640  0.07970  Biso   1.000  C
  C82      1.0000 0.72770  0.08360  0.92030  Biso   1.000  C
  C83      1.0000 0.41040  0.92290  0.15120  Biso   1.000  C
  C84      1.0000 0.58960  0.07710  0.84880  Biso   1.000  C
  F1       1.0000 0.55840  0.30970  0.41110  Biso   1.000  F
  F2       1.0000 0.44160  0.69030  0.58890  Biso   1.000  F
  F3       1.0000 0.67220  0.26660  0.32490  Biso   1.000  F
  F4       1.0000 0.32780  0.73340  0.67510  Biso   1.000  F
  F5       1.0000 0.44930  0.21660  0.29540  Biso   1.000  F
  F6       1.0000 0.55070  0.78340  0.70460  Biso   1.000  F
  F7       1.0000 0.81600  0.91670  0.29965  Biso   1.000  F
  F8       1.0000 0.18400  0.08330  0.70035  Biso   1.000  F
  F9       1.0000 0.89770  0.87060  0.41690  Biso   1.000  F
  F10      1.0000 0.10230  0.12940  0.58310  Biso   1.000  F
  F11      1.0000 0.96990  0.02120  0.39520  Biso   1.000  F
  F12      1.0000 0.03010  0.97880  0.60480  Biso   1.000  F
  F13      1.0000 0.32570  0.80810  0.85098  Biso   1.000  F
  F14      1.0000 0.67430  0.19190  0.14902  Biso   1.000  F
  F15      1.0000 0.15420  0.87560  0.78565  Biso   1.000  F
  F16      1.0000 0.84580  0.12440  0.21435  Biso   1.000  F
  F17      1.0000 0.11640  0.72790  0.81970  Biso   1.000  F
  F18      1.0000 0.88360  0.27210  0.18030  Biso   1.000  F
  F19      1.0000 0.52370  0.96320  0.13205  Biso   1.000  F
  F20      1.0000 0.47630  0.03680  0.86795  Biso   1.000  F
  F21      1.0000 0.43340  0.82930  0.16738  Biso   1.000  F
  F22      1.0000 0.56660  0.17070  0.83262  Biso   1.000  F
  F23      1.0000 0.40660  0.97810  0.22097  Biso   1.000  F
  F24      1.0000 0.59340  0.02190  0.77903  Biso   1.000  F
  C85      1.0000 0.72270  0.59840  0.30340  Biso   1.000  C
  C86      1.0000 0.27730  0.40160  0.69660  Biso   1.000  C
  H43      1.0000 0.74480  0.59620  0.36430  Biso   1.000  H
  H44      1.0000 0.25520  0.40380  0.63570  Biso   1.000  H
  Cl1      1.0000 0.60120  0.68080  0.28250  Biso   1.000  Cl
  Cl2      1.0000 0.39880  0.31920  0.71750  Biso   1.000  Cl
  Cl3      1.0000 0.87490  0.63670  0.28000  Biso   1.000  Cl
  Cl4      1.0000 0.12510  0.36330  0.72000  Biso   1.000  Cl
  Cl5      1.0000 0.65170  0.47390  0.25360  Biso   1.000  Cl
  Cl6      1.0000 0.34830  0.52610  0.74640  Biso   1.000  Cl
  C87      1.0000 0.71110  0.58670  0.31130  Biso   1.000  C
  C88      1.0000 0.28890  0.41330  0.68870  Biso   1.000  C
  H45      1.0000 0.73840  0.62200  0.37040  Biso   1.000  H
  H46      1.0000 0.26160  0.37800  0.62960  Biso   1.000  H
  Cl7      1.0000 0.56360  0.49390  0.28750  Biso   1.000  Cl
  Cl8      1.0000 0.43640  0.50610  0.71250  Biso   1.000  Cl
  Cl9      1.0000 0.83540  0.51640  0.28930  Biso   1.000  Cl
  Cl10     1.0000 0.16460  0.48360  0.71070  Biso   1.000  Cl
  Cl11     1.0000 0.66220  0.67140  0.24650  Biso   1.000  Cl
  Cl12     1.0000 0.33780  0.32860  0.75350  Biso   1.000  Cl
  C89      1.0000 0.97000  0.58400  0.42590  Biso   1.000  C
  C90      1.0000 0.03000  0.41600  0.57410  Biso   1.000  C
  H47      1.0000 0.87700  0.60690  0.41770  Biso   1.000  H
  H48      1.0000 0.12300  0.39310  0.58230  Biso   1.000  H
  Cl13     1.0000 0.98100  0.46800  0.46400  Biso   1.000  Cl
  Cl14     1.0000 0.01900  0.53200  0.53600  Biso   1.000  Cl
  Cl15     1.0000 0.10900  0.68370  0.47800  Biso   1.000  Cl
  Cl16     1.0000 0.89100  0.31630  0.52200  Biso   1.000  Cl
  Cl17     1.0000 0.00740  0.55520  0.33200  Biso   1.000  Cl
  Cl18     1.0000 0.99260  0.44480  0.66800  Biso   1.000  Cl
