data_image0
_cell_length_a       18.026
_cell_length_b       29.133
_cell_length_c       30.927
_cell_angle_alpha    63.44
_cell_angle_beta     78.13
_cell_angle_gamma    72.37

_symmetry_space_group_name_H-M    "P 1"
_symmetry_int_tables_number       1

loop_
  _symmetry_equiv_pos_as_xyz
  'x, y, z'

loop_
  _atom_site_label
  _atom_site_occupancy
  _atom_site_fract_x
  _atom_site_fract_y
  _atom_site_fract_z
  _atom_site_thermal_displace_type
  _atom_site_B_iso_or_equiv
  _atom_site_type_symbol
  Cu1      1.0000 0.48353  0.51087  0.17048  Biso   1.000  Cu
  Cu2      1.0000 0.51647  0.48913  0.82952  Biso   1.000  Cu
  O1       1.0000 0.37580  0.51500  0.14140  Biso   1.000  O
  O2       1.0000 0.62420  0.48500  0.85860  Biso   1.000  O
  C1       1.0000 0.37460  0.52720  0.09860  Biso   1.000  C
  C2       1.0000 0.62540  0.47280  0.90140  Biso   1.000  C
  C3       1.0000 0.42230  0.55460  0.05980  Biso   1.000  C
  C4       1.0000 0.57770  0.44540  0.94020  Biso   1.000  C
  C5       1.0000 0.47700  0.57440  0.06580  Biso   1.000  C
  C6       1.0000 0.52300  0.42560  0.93420  Biso   1.000  C
  O3       1.0000 0.49350  0.57350  0.10310  Biso   1.000  O
  O4       1.0000 0.50650  0.42650  0.89690  Biso   1.000  O
  C7       1.0000 0.31560  0.51230  0.08280  Biso   1.000  C
  C8       1.0000 0.68440  0.48770  0.91720  Biso   1.000  C
  C9       1.0000 0.52310  0.60210  0.01810  Biso   1.000  C
  C10      1.0000 0.47690  0.39790  0.98190  Biso   1.000  C
  O5       1.0000 0.47660  0.44690  0.23510  Biso   1.000  O
  O6       1.0000 0.52340  0.55310  0.76490  Biso   1.000  O
  C11      1.0000 0.51390  0.43140  0.26960  Biso   1.000  C
  C12      1.0000 0.48610  0.56860  0.73040  Biso   1.000  C
  C13      1.0000 0.57010  0.44970  0.27450  Biso   1.000  C
  C14      1.0000 0.42990  0.55030  0.72550  Biso   1.000  C
  C15      1.0000 0.60210  0.48890  0.23710  Biso   1.000  C
  C16      1.0000 0.39790  0.51110  0.76290  Biso   1.000  C
  O7       1.0000 0.58920  0.51180  0.19470  Biso   1.000  O
  O8       1.0000 0.41080  0.48820  0.80530  Biso   1.000  O
  C17      1.0000 0.49320  0.38700  0.31330  Biso   1.000  C
  C18      1.0000 0.50680  0.61300  0.68670  Biso   1.000  C
  C19      1.0000 0.66520  0.50400  0.25110  Biso   1.000  C
  C20      1.0000 0.33480  0.49600  0.74890  Biso   1.000  C
  Cu3      1.0000 0.74270  0.74903  0.58835  Biso   1.000  Cu
  Cu4      1.0000 0.25730  0.25097  0.41165  Biso   1.000  Cu
  O9       1.0000 0.67240  0.73660  0.55250  Biso   1.000  O
  O10      1.0000 0.32760  0.26340  0.44750  Biso   1.000  O
  C21      1.0000 0.66170  0.69270  0.55990  Biso   1.000  C
  C22      1.0000 0.33830  0.30730  0.44010  Biso   1.000  C
  C23      1.0000 0.69900  0.64380  0.59000  Biso   1.000  C
  C24      1.0000 0.30100  0.35620  0.41000  Biso   1.000  C
  C25      1.0000 0.75940  0.62990  0.62010  Biso   1.000  C
  C26      1.0000 0.24060  0.37010  0.37990  Biso   1.000  C
  O11      1.0000 0.78490  0.66150  0.62590  Biso   1.000  O
  O12      1.0000 0.21510  0.33850  0.37410  Biso   1.000  O
  C27      1.0000 0.59740  0.70030  0.53170  Biso   1.000  C
  C28      1.0000 0.40260  0.29970  0.46830  Biso   1.000  C
  C29      1.0000 0.79530  0.57300  0.65080  Biso   1.000  C
  C30      1.0000 0.20470  0.42700  0.34920  Biso   1.000  C
  O13      1.0000 0.81340  0.76170  0.62400  Biso   1.000  O
  O14      1.0000 0.18660  0.23830  0.37600  Biso   1.000  O
  C31      1.0000 0.83190  0.80460  0.60830  Biso   1.000  C
  C32      1.0000 0.16810  0.19540  0.39170  Biso   1.000  C
  C33      1.0000 0.80100  0.85470  0.57290  Biso   1.000  C
  C34      1.0000 0.19900  0.14530  0.42710  Biso   1.000  C
  C35      1.0000 0.73830  0.86490  0.54920  Biso   1.000  C
  C36      1.0000 0.26170  0.13510  0.45080  Biso   1.000  C
  O15      1.0000 0.70130  0.83570  0.55120  Biso   1.000  O
  O16      1.0000 0.29870  0.16430  0.44880  Biso   1.000  O
  C37      1.0000 0.90080  0.79750  0.63360  Biso   1.000  C
  C38      1.0000 0.09920  0.20250  0.36640  Biso   1.000  C
  C39      1.0000 0.71050  0.92040  0.51610  Biso   1.000  C
  C40      1.0000 0.28950  0.07960  0.48390  Biso   1.000  C
  Cu5      1.0000 0.50520  0.00878  0.33499  Biso   1.000  Cu
  Cu6      1.0000 0.49480  0.99122  0.66501  Biso   1.000  Cu
  O17      1.0000 0.47980  0.97270  0.41430  Biso   1.000  O
  O18      1.0000 0.52020  0.02730  0.58570  Biso   1.000  O
  C41      1.0000 0.50850  0.92420  0.43940  Biso   1.000  C
  C42      1.0000 0.49150  0.07580  0.56060  Biso   1.000  C
  C43      1.0000 0.56970  0.88840  0.42630  Biso   1.000  C
  C44      1.0000 0.43030  0.11160  0.57370  Biso   1.000  C
  C45      1.0000 0.61070  0.90200  0.38170  Biso   1.000  C
  C46      1.0000 0.38930  0.09800  0.61830  Biso   1.000  C
  O19      1.0000 0.60140  0.94600  0.34510  Biso   1.000  O
  O20      1.0000 0.39860  0.05400  0.65490  Biso   1.000  O
  C47      1.0000 0.46920  0.90500  0.48940  Biso   1.000  C
  C48      1.0000 0.53080  0.09500  0.51060  Biso   1.000  C
  C49      1.0000 0.67590  0.85990  0.37260  Biso   1.000  C
  C50      1.0000 0.32410  0.14010  0.62740  Biso   1.000  C
  O21      1.0000 0.40880  0.06930  0.32450  Biso   1.000  O
  O22      1.0000 0.59120  0.93070  0.67550  Biso   1.000  O
  C51      1.0000 0.39020  0.10660  0.28530  Biso   1.000  C
  C52      1.0000 0.60980  0.89340  0.71470  Biso   1.000  C
  C53      1.0000 0.43010  0.11890  0.24020  Biso   1.000  C
  C54      1.0000 0.56990  0.88110  0.75980  Biso   1.000  C
  C55      1.0000 0.49640  0.08820  0.22790  Biso   1.000  C
  C56      1.0000 0.50360  0.91180  0.77210  Biso   1.000  C
  O23      1.0000 0.53200  0.04480  0.25520  Biso   1.000  O
  O24      1.0000 0.46800  0.95520  0.74480  Biso   1.000  O
  C57      1.0000 0.31830  0.14520  0.29200  Biso   1.000  C
  C58      1.0000 0.68170  0.85480  0.70800  Biso   1.000  C
  C59      1.0000 0.53200  0.10790  0.17700  Biso   1.000  C
  C60      1.0000 0.46800  0.89210  0.82300  Biso   1.000  C
  C61      1.0000 0.24630  0.71948  0.31990  Biso   1.000  C
  C62      1.0000 0.75370  0.28052  0.68010  Biso   1.000  C
  C63      1.0000 0.17560  0.71711  0.34868  Biso   1.000  C
  C64      1.0000 0.82440  0.28289  0.65132  Biso   1.000  C
  C65      1.0000 0.14810  0.75342  0.37049  Biso   1.000  C
  C66      1.0000 0.85190  0.24658  0.62951  Biso   1.000  C
  C67      1.0000 0.18970  0.78918  0.36323  Biso   1.000  C
  C68      1.0000 0.81030  0.21082  0.63677  Biso   1.000  C
  C69      1.0000 0.25920  0.79091  0.33469  Biso   1.000  C
  C70      1.0000 0.74080  0.20909  0.66531  Biso   1.000  C
  C71      1.0000 0.28730  0.75528  0.31297  Biso   1.000  C
  C72      1.0000 0.71270  0.24472  0.68703  Biso   1.000  C
  N1       1.0000 0.42100  0.55953  0.20118  Biso   1.000  N
  N2       1.0000 0.57900  0.44047  0.79882  Biso   1.000  N
  C73      1.0000 0.35510  0.54974  0.23104  Biso   1.000  C
  C74      1.0000 0.64490  0.45026  0.76896  Biso   1.000  C
  C75      1.0000 0.31510  0.58043  0.25581  Biso   1.000  C
  C76      1.0000 0.68490  0.41957  0.74419  Biso   1.000  C
  C77      1.0000 0.34310  0.62158  0.25151  Biso   1.000  C
  C78      1.0000 0.65690  0.37842  0.74849  Biso   1.000  C
  C79      1.0000 0.41000  0.63141  0.22080  Biso   1.000  C
  C80      1.0000 0.59000  0.36859  0.77920  Biso   1.000  C
  C81      1.0000 0.44750  0.59980  0.19622  Biso   1.000  C
  C82      1.0000 0.55250  0.40020  0.80378  Biso   1.000  C
  C83      1.0000 0.30500  0.65440  0.27690  Biso   1.000  C
  C84      1.0000 0.69500  0.34560  0.72310  Biso   1.000  C
  C85      1.0000 0.27620  0.68260  0.29690  Biso   1.000  C
  C86      1.0000 0.72380  0.31740  0.70310  Biso   1.000  C
  N3       1.0000 0.82910  0.75036  0.53490  Biso   1.000  N
  N4       1.0000 0.17090  0.24964  0.46510  Biso   1.000  N
  C87      1.0000 0.81700  0.77645  0.48809  Biso   1.000  C
  C88      1.0000 0.18300  0.22355  0.51191  Biso   1.000  C
  C89      1.0000 0.87700  0.77770  0.45221  Biso   1.000  C
  C90      1.0000 0.12300  0.22230  0.54779  Biso   1.000  C
  C91      1.0000 0.95230  0.75196  0.46355  Biso   1.000  C
  C92      1.0000 0.04770  0.24804  0.53645  Biso   1.000  C
  C93      1.0000 0.96630  0.72639  0.51292  Biso   1.000  C
  C94      1.0000 0.03370  0.27361  0.48708  Biso   1.000  C
  C95      1.0000 0.90440  0.72565  0.54743  Biso   1.000  C
  C96      1.0000 0.09560  0.27435  0.45257  Biso   1.000  C
  C97      1.0000 0.01860  0.75340  0.42760  Biso   1.000  C
  C98      1.0000 0.98140  0.24660  0.57240  Biso   1.000  C
  C99      1.0000 0.07610  0.75220  0.40120  Biso   1.000  C
  C100     1.0000 0.92390  0.24780  0.59880  Biso   1.000  C
  N5       1.0000 0.44290  0.96716  0.32698  Biso   1.000  N
  N6       1.0000 0.55710  0.03284  0.67302  Biso   1.000  N
  C101     1.0000 0.37820  0.95591  0.35611  Biso   1.000  C
  C102     1.0000 0.62180  0.04409  0.64389  Biso   1.000  C
  C103     1.0000 0.33840  0.92285  0.35541  Biso   1.000  C
  C104     1.0000 0.66160  0.07715  0.64459  Biso   1.000  C
  C105     1.0000 0.36580  0.89993  0.32277  Biso   1.000  C
  C106     1.0000 0.63420  0.10007  0.67723  Biso   1.000  C
  C107     1.0000 0.43120  0.91275  0.29097  Biso   1.000  C
  C108     1.0000 0.56880  0.08725  0.70903  Biso   1.000  C
  C109     1.0000 0.46730  0.94592  0.29467  Biso   1.000  C
  C110     1.0000 0.53270  0.05408  0.70533  Biso   1.000  C
  C111     1.0000 0.32880  0.86280  0.32330  Biso   1.000  C
  C112     1.0000 0.67120  0.13720  0.67670  Biso   1.000  C
  C113     1.0000 0.29980  0.82880  0.32750  Biso   1.000  C
  C114     1.0000 0.70020  0.17120  0.67250  Biso   1.000  C
  C115     1.0000 0.75350  0.23255  0.32315  Biso   1.000  C
  C116     1.0000 0.24650  0.76745  0.67685  Biso   1.000  C
  C117     1.0000 0.82260  0.23508  0.29377  Biso   1.000  C
  C118     1.0000 0.17740  0.76492  0.70623  Biso   1.000  C
  C119     1.0000 0.86410  0.27187  0.28689  Biso   1.000  C
  C120     1.0000 0.13590  0.72813  0.71311  Biso   1.000  C
  C121     1.0000 0.83500  0.30519  0.31051  Biso   1.000  C
  C122     1.0000 0.16500  0.69481  0.68949  Biso   1.000  C
  C123     1.0000 0.76450  0.30382  0.33899  Biso   1.000  C
  C124     1.0000 0.23550  0.69618  0.66101  Biso   1.000  C
  C125     1.0000 0.72390  0.26696  0.34632  Biso   1.000  C
  C126     1.0000 0.27610  0.73304  0.65368  Biso   1.000  C
  N7       1.0000 0.56950  0.05127  0.34111  Biso   1.000  N
  N8       1.0000 0.43050  0.94873  0.65889  Biso   1.000  N
  C127     1.0000 0.54490  0.07450  0.37244  Biso   1.000  C
  C128     1.0000 0.45510  0.92550  0.62756  Biso   1.000  C
  C129     1.0000 0.58380  0.10850  0.37254  Biso   1.000  C
  C130     1.0000 0.41620  0.89150  0.62746  Biso   1.000  C
  C131     1.0000 0.64680  0.11989  0.34049  Biso   1.000  C
  C132     1.0000 0.35320  0.88011  0.65951  Biso   1.000  C
  C133     1.0000 0.67100  0.09522  0.31002  Biso   1.000  C
  C134     1.0000 0.32900  0.90478  0.68998  Biso   1.000  C
  C135     1.0000 0.63280  0.06113  0.30978  Biso   1.000  C
  C136     1.0000 0.36720  0.93887  0.69022  Biso   1.000  C
  C137     1.0000 0.68340  0.16010  0.33690  Biso   1.000  C
  C138     1.0000 0.31660  0.83990  0.66310  Biso   1.000  C
  C139     1.0000 0.71310  0.19260  0.33080  Biso   1.000  C
  C140     1.0000 0.28690  0.80740  0.66920  Biso   1.000  C
  N9       1.0000 0.17880  0.25635  0.12340  Biso   1.000  N
  N10      1.0000 0.82120  0.74365  0.87660  Biso   1.000  N
  C141     1.0000 0.19340  0.23753  0.17004  Biso   1.000  C
  C142     1.0000 0.80660  0.76247  0.82996  Biso   1.000  C
  C143     1.0000 0.13390  0.24065  0.20557  Biso   1.000  C
  C144     1.0000 0.86610  0.75935  0.79443  Biso   1.000  C
  C145     1.0000 0.05740  0.26343  0.19441  Biso   1.000  C
  C146     1.0000 0.94260  0.73657  0.80559  Biso   1.000  C
  C147     1.0000 0.04290  0.28233  0.14603  Biso   1.000  C
  C148     1.0000 0.95710  0.71767  0.85397  Biso   1.000  C
  C149     1.0000 0.10430  0.27813  0.11182  Biso   1.000  C
  C150     1.0000 0.89570  0.72187  0.88818  Biso   1.000  C
  C151     1.0000 0.99370  0.26760  0.22970  Biso   1.000  C
  C152     1.0000 0.00630  0.73240  0.77030  Biso   1.000  C
  C153     1.0000 0.93700  0.27100  0.25610  Biso   1.000  C
  C154     1.0000 0.06300  0.72900  0.74390  Biso   1.000  C
  N11      1.0000 0.56640  0.45662  0.46384  Biso   1.000  N
  N12      1.0000 0.43360  0.54338  0.53616  Biso   1.000  N
  C155     1.0000 0.63280  0.46922  0.43509  Biso   1.000  C
  C156     1.0000 0.36720  0.53078  0.56491  Biso   1.000  C
  C157     1.0000 0.67760  0.44132  0.40872  Biso   1.000  C
  C158     1.0000 0.32240  0.55868  0.59128  Biso   1.000  C
  C159     1.0000 0.65630  0.39773  0.41083  Biso   1.000  C
  C160     1.0000 0.34370  0.60227  0.58917  Biso   1.000  C
  C161     1.0000 0.58860  0.38521  0.44023  Biso   1.000  C
  C162     1.0000 0.41140  0.61479  0.55977  Biso   1.000  C
  C163     1.0000 0.54810  0.41419  0.46586  Biso   1.000  C
  C164     1.0000 0.45190  0.58581  0.53414  Biso   1.000  C
  C165     1.0000 0.69870  0.36670  0.38480  Biso   1.000  C
  C166     1.0000 0.30130  0.63330  0.61520  Biso   1.000  C
  C167     1.0000 0.73120  0.33830  0.36390  Biso   1.000  C
  C168     1.0000 0.26880  0.66170  0.63610  Biso   1.000  C
  N13      1.0000 0.54720  0.46021  0.14112  Biso   1.000  N
  N14      1.0000 0.45280  0.53979  0.85888  Biso   1.000  N
  N15      1.0000 0.65610  0.74763  0.63900  Biso   1.000  N
  N16      1.0000 0.34390  0.25237  0.36100  Biso   1.000  N
  Cu7      1.0000 0.26389  0.25108  0.07127  Biso   1.000  Cu
  Cu8      1.0000 0.73611  0.74892  0.92873  Biso   1.000  Cu
  Cu9      1.0000 0.50000  0.50000  0.50000  Biso   1.000  Cu
  O25      1.0000 0.50190  0.56830  0.43960  Biso   1.000  O
  O26      1.0000 0.49810  0.43170  0.56040  Biso   1.000  O
  C169     1.0000 0.47200  0.58310  0.40190  Biso   1.000  C
  C170     1.0000 0.52800  0.41690  0.59810  Biso   1.000  C
  C171     1.0000 0.41910  0.56370  0.39270  Biso   1.000  C
  C172     1.0000 0.58090  0.43630  0.60730  Biso   1.000  C
  C173     1.0000 0.38600  0.52160  0.42860  Biso   1.000  C
  C174     1.0000 0.61400  0.47840  0.57140  Biso   1.000  C
  O27      1.0000 0.39390  0.49900  0.47170  Biso   1.000  O
  O28      1.0000 0.60610  0.50100  0.52830  Biso   1.000  O
  C175     1.0000 0.49710  0.62910  0.35980  Biso   1.000  C
  C176     1.0000 0.50290  0.37090  0.64020  Biso   1.000  C
  C177     1.0000 0.33240  0.50410  0.41040  Biso   1.000  C
  C178     1.0000 0.66760  0.49590  0.58960  Biso   1.000  C
