data_image0
_cell_length_a       9.802
_cell_length_b       10.671
_cell_length_c       12.568
_cell_angle_alpha    90
_cell_angle_beta     111.74
_cell_angle_gamma    90

_symmetry_space_group_name_H-M    "P 1"
_symmetry_int_tables_number       1

loop_
  _symmetry_equiv_pos_as_xyz
  'x, y, z'

loop_
  _atom_site_label
  _atom_site_occupancy
  _atom_site_fract_x
  _atom_site_fract_y
  _atom_site_fract_z
  _atom_site_thermal_displace_type
  _atom_site_B_iso_or_equiv
  _atom_site_type_symbol
  Cu1      1.0000 0.17421  0.86377  0.06641  Biso   1.000  Cu
  Cu2      1.0000 0.32579  0.36377  0.43359  Biso   1.000  Cu
  Cu3      1.0000 0.82579  0.13623  0.93359  Biso   1.000  Cu
  Cu4      1.0000 0.67421  0.63623  0.56641  Biso   1.000  Cu
  Ca1      1.0000 0.59672  0.66034  0.06913  Biso   1.000  Ca
  Ca2      1.0000 0.90328  0.16034  0.43087  Biso   1.000  Ca
  Ca3      1.0000 0.40328  0.33966  0.93087  Biso   1.000  Ca
  Ca4      1.0000 0.09672  0.83966  0.56913  Biso   1.000  Ca
  Br1      1.0000 0.32408  0.00286  0.20796  Biso   1.000  Br
  Br2      1.0000 0.17592  0.50286  0.29204  Biso   1.000  Br
  Br3      1.0000 0.67592  0.99714  0.79204  Biso   1.000  Br
  Br4      1.0000 0.82408  0.49714  0.70796  Biso   1.000  Br
  O1       1.0000 0.34910  0.72330  0.06310  Biso   1.000  O
  O2       1.0000 0.15090  0.22330  0.43690  Biso   1.000  O
  O3       1.0000 0.65090  0.27670  0.93690  Biso   1.000  O
  O4       1.0000 0.84910  0.77670  0.56310  Biso   1.000  O
  O5       1.0000 0.35920  0.53330  0.99950  Biso   1.000  O
  O6       1.0000 0.14080  0.03330  0.50050  Biso   1.000  O
  O7       1.0000 0.64080  0.46670  0.00050  Biso   1.000  O
  O8       1.0000 0.85920  0.96670  0.49950  Biso   1.000  O
  O9       1.0000 0.05780  0.80270  0.15310  Biso   1.000  O
  O10      1.0000 0.44220  0.30270  0.34690  Biso   1.000  O
  O11      1.0000 0.94220  0.19730  0.84690  Biso   1.000  O
  O12      1.0000 0.55780  0.69730  0.65310  Biso   1.000  O
  O13      1.0000 0.84470  0.71170  0.12830  Biso   1.000  O
  O14      1.0000 0.65530  0.21170  0.37170  Biso   1.000  O
  O15      1.0000 0.15530  0.28830  0.87170  Biso   1.000  O
  O16      1.0000 0.34470  0.78830  0.62830  Biso   1.000  O
  O17      1.0000 0.19070  0.95250  0.93400  Biso   1.000  O
  O18      1.0000 0.30930  0.45250  0.56600  Biso   1.000  O
  O19      1.0000 0.80930  0.04750  0.06600  Biso   1.000  O
  O20      1.0000 0.69070  0.54750  0.43400  Biso   1.000  O
  O21      1.0000 0.14350  0.93190  0.74890  Biso   1.000  O
  O22      1.0000 0.35650  0.43190  0.75110  Biso   1.000  O
  O23      1.0000 0.85650  0.06810  0.25110  Biso   1.000  O
  O24      1.0000 0.64350  0.56810  0.24890  Biso   1.000  O
  N1       1.0000 0.05140  0.73810  0.94900  Biso   1.000  N
  N2       1.0000 0.44860  0.23810  0.55100  Biso   1.000  N
  N3       1.0000 0.94860  0.26190  0.05100  Biso   1.000  N
  N4       1.0000 0.55140  0.76190  0.44900  Biso   1.000  N
  C1       1.0000 0.12310  0.61520  0.97740  Biso   1.000  C
  C2       1.0000 0.37690  0.11520  0.52260  Biso   1.000  C
  C3       1.0000 0.87690  0.38480  0.02260  Biso   1.000  C
  C4       1.0000 0.62310  0.88480  0.47740  Biso   1.000  C
  C5       1.0000 0.28920  0.62580  0.01520  Biso   1.000  C
  C6       1.0000 0.21080  0.12580  0.48480  Biso   1.000  C
  C7       1.0000 0.71080  0.37420  0.98480  Biso   1.000  C
  C8       1.0000 0.78920  0.87420  0.51520  Biso   1.000  C
  C9       1.0000 0.90890  0.73590  0.96470  Biso   1.000  C
  C10      1.0000 0.59110  0.23590  0.53530  Biso   1.000  C
  C11      1.0000 0.09110  0.26410  0.03530  Biso   1.000  C
  C12      1.0000 0.40890  0.76410  0.46470  Biso   1.000  C
  C13      1.0000 0.93820  0.74940  0.09200  Biso   1.000  C
  C14      1.0000 0.56180  0.24940  0.40800  Biso   1.000  C
  C15      1.0000 0.06180  0.25060  0.90800  Biso   1.000  C
  C16      1.0000 0.43820  0.75060  0.59200  Biso   1.000  C
  C17      1.0000 0.03900  0.78280  0.83440  Biso   1.000  C
  C18      1.0000 0.46100  0.28280  0.66560  Biso   1.000  C
  C19      1.0000 0.96100  0.21720  0.16560  Biso   1.000  C
  C20      1.0000 0.53900  0.71720  0.33440  Biso   1.000  C
  C21      1.0000 0.13090  0.89710  0.83890  Biso   1.000  C
  C22      1.0000 0.36910  0.39710  0.66110  Biso   1.000  C
  C23      1.0000 0.86910  0.10290  0.16110  Biso   1.000  C
  C24      1.0000 0.63090  0.60290  0.33890  Biso   1.000  C
  O25      1.0000 0.60050  0.87860  0.10810  Biso   1.000  O
  O26      1.0000 0.89950  0.37860  0.39190  Biso   1.000  O
  O27      1.0000 0.39950  0.12140  0.89190  Biso   1.000  O
  O28      1.0000 0.10050  0.62140  0.60810  Biso   1.000  O
  O29      1.0000 0.52750  0.71680  0.87640  Biso   1.000  O
  O30      1.0000 0.97250  0.21680  0.62360  Biso   1.000  O
  O31      1.0000 0.47250  0.28320  0.12360  Biso   1.000  O
  O32      1.0000 0.02750  0.78320  0.37640  Biso   1.000  O
  H1       1.0000 0.52600  0.80220  0.88200  Biso   1.000  H
  H2       1.0000 0.97400  0.30220  0.61800  Biso   1.000  H
  H3       1.0000 0.47400  0.19780  0.11800  Biso   1.000  H
  H4       1.0000 0.02600  0.69780  0.38200  Biso   1.000  H
  H5       1.0000 0.45100  0.68330  0.85710  Biso   1.000  H
  H6       1.0000 0.04900  0.18330  0.64290  Biso   1.000  H
  H7       1.0000 0.54900  0.31670  0.14290  Biso   1.000  H
  H8       1.0000 0.95100  0.81670  0.35710  Biso   1.000  H
  H9       1.0000 0.07800  0.55300  0.91200  Biso   1.000  H
  H10      1.0000 0.42200  0.05300  0.58800  Biso   1.000  H
  H11      1.0000 0.92200  0.44700  0.08800  Biso   1.000  H
  H12      1.0000 0.57800  0.94700  0.41200  Biso   1.000  H
  H13      1.0000 0.09100  0.57400  0.04300  Biso   1.000  H
  H14      1.0000 0.40900  0.07400  0.45700  Biso   1.000  H
  H15      1.0000 0.90900  0.42600  0.95700  Biso   1.000  H
  H16      1.0000 0.59100  0.92600  0.54300  Biso   1.000  H
  H17      1.0000 0.85400  0.82300  0.94300  Biso   1.000  H
  H18      1.0000 0.64600  0.32300  0.55700  Biso   1.000  H
  H19      1.0000 0.14600  0.17700  0.05700  Biso   1.000  H
  H20      1.0000 0.35400  0.67700  0.44300  Biso   1.000  H
  H21      1.0000 0.86100  0.65800  0.94100  Biso   1.000  H
  H22      1.0000 0.63900  0.15800  0.55900  Biso   1.000  H
  H23      1.0000 0.13900  0.34200  0.05900  Biso   1.000  H
  H24      1.0000 0.36100  0.84200  0.44100  Biso   1.000  H
  H25      1.0000 0.06600  0.74600  0.79400  Biso   1.000  H
  H26      1.0000 0.43400  0.24600  0.70600  Biso   1.000  H
  H27      1.0000 0.93400  0.25400  0.20600  Biso   1.000  H
  H28      1.0000 0.56600  0.75400  0.29400  Biso   1.000  H
  H29      1.0000 0.93500  0.80500  0.77700  Biso   1.000  H
  H30      1.0000 0.56500  0.30500  0.72300  Biso   1.000  H
  H31      1.0000 0.06500  0.19500  0.22300  Biso   1.000  H
  H32      1.0000 0.43500  0.69500  0.27700  Biso   1.000  H
  H33      1.0000 0.65800  0.92200  0.08300  Biso   1.000  H
  H34      1.0000 0.84200  0.42200  0.41700  Biso   1.000  H
  H35      1.0000 0.34200  0.07800  0.91700  Biso   1.000  H
  H36      1.0000 0.15800  0.57800  0.58300  Biso   1.000  H
  H37      1.0000 0.50800  0.93700  0.07500  Biso   1.000  H
  H38      1.0000 0.99200  0.43700  0.42500  Biso   1.000  H
  H39      1.0000 0.49200  0.06300  0.92500  Biso   1.000  H
  H40      1.0000 0.00800  0.56300  0.57500  Biso   1.000  H
