data_image0
_cell_length_a       11.112
_cell_length_b       13.0898
_cell_length_c       16.841
_cell_angle_alpha    90
_cell_angle_beta     90
_cell_angle_gamma    90

_symmetry_space_group_name_H-M    "P 1"
_symmetry_int_tables_number       1

loop_
  _symmetry_equiv_pos_as_xyz
  'x, y, z'

loop_
  _atom_site_label
  _atom_site_occupancy
  _atom_site_fract_x
  _atom_site_fract_y
  _atom_site_fract_z
  _atom_site_thermal_displace_type
  _atom_site_B_iso_or_equiv
  _atom_site_type_symbol
  Cu1      1.0000 0.14710  0.42880  0.18798  Biso   1.000  Cu
  Cu2      1.0000 0.35290  0.57120  0.68798  Biso   1.000  Cu
  Cu3      1.0000 0.85290  0.92880  0.31202  Biso   1.000  Cu
  Cu4      1.0000 0.64710  0.07120  0.81202  Biso   1.000  Cu
  Cu5      1.0000 0.85290  0.57120  0.81202  Biso   1.000  Cu
  Cu6      1.0000 0.64710  0.42880  0.31202  Biso   1.000  Cu
  Cu7      1.0000 0.14710  0.07120  0.68798  Biso   1.000  Cu
  Cu8      1.0000 0.35290  0.92880  0.18798  Biso   1.000  Cu
  Ca1      1.0000 0.33761  0.55646  0.97196  Biso   1.000  Ca
  Ca2      1.0000 0.16239  0.44354  0.47196  Biso   1.000  Ca
  Ca3      1.0000 0.66239  0.05646  0.52804  Biso   1.000  Ca
  Ca4      1.0000 0.83761  0.94354  0.02804  Biso   1.000  Ca
  Ca5      1.0000 0.66239  0.44354  0.02804  Biso   1.000  Ca
  Ca6      1.0000 0.83761  0.55646  0.52804  Biso   1.000  Ca
  Ca7      1.0000 0.33761  0.94354  0.47196  Biso   1.000  Ca
  Ca8      1.0000 0.16239  0.05646  0.97196  Biso   1.000  Ca
  Br1      1.0000 0.01133  0.56685  0.18608  Biso   1.000  Br
  Br2      1.0000 0.48867  0.43315  0.68608  Biso   1.000  Br
  Br3      1.0000 0.98867  0.06685  0.31392  Biso   1.000  Br
  Br4      1.0000 0.51133  0.93315  0.81392  Biso   1.000  Br
  Br5      1.0000 0.98867  0.43315  0.81392  Biso   1.000  Br
  Br6      1.0000 0.51133  0.56685  0.31392  Biso   1.000  Br
  Br7      1.0000 0.01133  0.93315  0.68608  Biso   1.000  Br
  Br8      1.0000 0.48867  0.06685  0.18608  Biso   1.000  Br
  O1       1.0000 0.17440  0.41400  0.30722  Biso   1.000  O
  O2       1.0000 0.32560  0.58600  0.80722  Biso   1.000  O
  O3       1.0000 0.82560  0.91400  0.19278  Biso   1.000  O
  O4       1.0000 0.67440  0.08600  0.69278  Biso   1.000  O
  O5       1.0000 0.82560  0.58600  0.69278  Biso   1.000  O
  O6       1.0000 0.67440  0.41400  0.19278  Biso   1.000  O
  O7       1.0000 0.17440  0.08600  0.80722  Biso   1.000  O
  O8       1.0000 0.32560  0.91400  0.30722  Biso   1.000  O
  O9       1.0000 0.20790  0.29340  0.39521  Biso   1.000  O
  O10      1.0000 0.29210  0.70660  0.89521  Biso   1.000  O
  O11      1.0000 0.79210  0.79340  0.10479  Biso   1.000  O
  O12      1.0000 0.70790  0.20660  0.60479  Biso   1.000  O
  O13      1.0000 0.79210  0.70660  0.60479  Biso   1.000  O
  O14      1.0000 0.70790  0.29340  0.10479  Biso   1.000  O
  O15      1.0000 0.20790  0.20660  0.89521  Biso   1.000  O
  O16      1.0000 0.29210  0.79340  0.39521  Biso   1.000  O
  O17      1.0000 0.04240  0.32730  0.12193  Biso   1.000  O
  O18      1.0000 0.45760  0.67270  0.62193  Biso   1.000  O
  O19      1.0000 0.95760  0.82730  0.37807  Biso   1.000  O
  O20      1.0000 0.54240  0.17270  0.87807  Biso   1.000  O
  O21      1.0000 0.95760  0.67270  0.87807  Biso   1.000  O
  O22      1.0000 0.54240  0.32730  0.37807  Biso   1.000  O
  O23      1.0000 0.04240  0.17270  0.62193  Biso   1.000  O
  O24      1.0000 0.45760  0.82730  0.12193  Biso   1.000  O
  O25      1.0000 0.06270  0.18900  0.04690  Biso   1.000  O
  O26      1.0000 0.43730  0.81100  0.54690  Biso   1.000  O
  O27      1.0000 0.93730  0.68900  0.45310  Biso   1.000  O
  O28      1.0000 0.56270  0.31100  0.95310  Biso   1.000  O
  O29      1.0000 0.93730  0.81100  0.95310  Biso   1.000  O
  O30      1.0000 0.56270  0.18900  0.45310  Biso   1.000  O
  O31      1.0000 0.06270  0.31100  0.54690  Biso   1.000  O
  O32      1.0000 0.43730  0.68900  0.04690  Biso   1.000  O
  O33      1.0000 0.27860  0.48880  0.11061  Biso   1.000  O
  O34      1.0000 0.22140  0.51120  0.61061  Biso   1.000  O
  O35      1.0000 0.72140  0.98880  0.38939  Biso   1.000  O
  O36      1.0000 0.77860  0.01120  0.88939  Biso   1.000  O
  O37      1.0000 0.72140  0.51120  0.88939  Biso   1.000  O
  O38      1.0000 0.77860  0.48880  0.38939  Biso   1.000  O
  O39      1.0000 0.27860  0.01120  0.61061  Biso   1.000  O
  O40      1.0000 0.22140  0.98880  0.11061  Biso   1.000  O
  O41      1.0000 0.46690  0.46190  0.07540  Biso   1.000  O
  O42      1.0000 0.03310  0.53810  0.57540  Biso   1.000  O
  O43      1.0000 0.53310  0.96190  0.42460  Biso   1.000  O
  O44      1.0000 0.96690  0.03810  0.92460  Biso   1.000  O
  O45      1.0000 0.53310  0.53810  0.92460  Biso   1.000  O
  O46      1.0000 0.96690  0.46190  0.42460  Biso   1.000  O
  O47      1.0000 0.46690  0.03810  0.57540  Biso   1.000  O
  O48      1.0000 0.03310  0.96190  0.07540  Biso   1.000  O
  N1       1.0000 0.26290  0.31060  0.18572  Biso   1.000  N
  N2       1.0000 0.23710  0.68940  0.68572  Biso   1.000  N
  N3       1.0000 0.73710  0.81060  0.31428  Biso   1.000  N
  N4       1.0000 0.76290  0.18940  0.81428  Biso   1.000  N
  N5       1.0000 0.73710  0.68940  0.81428  Biso   1.000  N
  N6       1.0000 0.76290  0.31060  0.31428  Biso   1.000  N
  N7       1.0000 0.26290  0.18940  0.68572  Biso   1.000  N
  N8       1.0000 0.23710  0.81060  0.18572  Biso   1.000  N
  C1       1.0000 0.24660  0.25340  0.26040  Biso   1.000  C
  C2       1.0000 0.25340  0.74660  0.76040  Biso   1.000  C
  C3       1.0000 0.75340  0.75340  0.23960  Biso   1.000  C
  C4       1.0000 0.74660  0.24660  0.73960  Biso   1.000  C
  C5       1.0000 0.75340  0.74660  0.73960  Biso   1.000  C
  C6       1.0000 0.74660  0.25340  0.23960  Biso   1.000  C
  C7       1.0000 0.24660  0.24660  0.76040  Biso   1.000  C
  C8       1.0000 0.25340  0.75340  0.26040  Biso   1.000  C
  C9       1.0000 0.20850  0.32460  0.32610  Biso   1.000  C
  C10      1.0000 0.29150  0.67540  0.82610  Biso   1.000  C
  C11      1.0000 0.79150  0.82460  0.17390  Biso   1.000  C
  C12      1.0000 0.70850  0.17540  0.67390  Biso   1.000  C
  C13      1.0000 0.79150  0.67540  0.67390  Biso   1.000  C
  C14      1.0000 0.70850  0.32460  0.17390  Biso   1.000  C
  C15      1.0000 0.20850  0.17540  0.82610  Biso   1.000  C
  C16      1.0000 0.29150  0.82460  0.32610  Biso   1.000  C
  C17      1.0000 0.23460  0.24750  0.11560  Biso   1.000  C
  C18      1.0000 0.26540  0.75250  0.61560  Biso   1.000  C
  C19      1.0000 0.76540  0.74750  0.38440  Biso   1.000  C
  C20      1.0000 0.73460  0.25250  0.88440  Biso   1.000  C
  C21      1.0000 0.76540  0.75250  0.88440  Biso   1.000  C
  C22      1.0000 0.73460  0.24750  0.38440  Biso   1.000  C
  C23      1.0000 0.23460  0.25250  0.61560  Biso   1.000  C
  C24      1.0000 0.26540  0.74750  0.11560  Biso   1.000  C
  C25      1.0000 0.10280  0.25420  0.09310  Biso   1.000  C
  C26      1.0000 0.39720  0.74580  0.59310  Biso   1.000  C
  C27      1.0000 0.89720  0.75420  0.40690  Biso   1.000  C
  C28      1.0000 0.60280  0.24580  0.90690  Biso   1.000  C
  C29      1.0000 0.89720  0.74580  0.90690  Biso   1.000  C
  C30      1.0000 0.60280  0.25420  0.40690  Biso   1.000  C
  C31      1.0000 0.10280  0.24580  0.59310  Biso   1.000  C
  C32      1.0000 0.39720  0.75420  0.09310  Biso   1.000  C
  C33      1.0000 0.38420  0.35650  0.17830  Biso   1.000  C
  C34      1.0000 0.11580  0.64350  0.67830  Biso   1.000  C
  C35      1.0000 0.61580  0.85650  0.32170  Biso   1.000  C
  C36      1.0000 0.88420  0.14350  0.82170  Biso   1.000  C
  C37      1.0000 0.61580  0.64350  0.82170  Biso   1.000  C
  C38      1.0000 0.88420  0.35650  0.32170  Biso   1.000  C
  C39      1.0000 0.38420  0.14350  0.67830  Biso   1.000  C
  C40      1.0000 0.11580  0.85650  0.17830  Biso   1.000  C
  C41      1.0000 0.37810  0.44200  0.11720  Biso   1.000  C
  C42      1.0000 0.12190  0.55800  0.61720  Biso   1.000  C
  C43      1.0000 0.62190  0.94200  0.38280  Biso   1.000  C
  C44      1.0000 0.87810  0.05800  0.88280  Biso   1.000  C
  C45      1.0000 0.62190  0.55800  0.88280  Biso   1.000  C
  C46      1.0000 0.87810  0.44200  0.38280  Biso   1.000  C
  C47      1.0000 0.37810  0.05800  0.61720  Biso   1.000  C
  C48      1.0000 0.12190  0.94200  0.11720  Biso   1.000  C
  O49      1.0000 0.32670  0.38250  0.93981  Biso   1.000  O
  O50      1.0000 0.17330  0.61750  0.43981  Biso   1.000  O
  O51      1.0000 0.67330  0.88250  0.56019  Biso   1.000  O
  O52      1.0000 0.82670  0.11750  0.06019  Biso   1.000  O
  O53      1.0000 0.67330  0.61750  0.06019  Biso   1.000  O
  O54      1.0000 0.82670  0.38250  0.56019  Biso   1.000  O
  O55      1.0000 0.32670  0.11750  0.43981  Biso   1.000  O
  O56      1.0000 0.17330  0.88250  0.93981  Biso   1.000  O
  H1       1.0000 0.40050  0.36590  0.94530  Biso   1.000  H
  H2       1.0000 0.09950  0.63410  0.44530  Biso   1.000  H
  H3       1.0000 0.59950  0.86590  0.55470  Biso   1.000  H
  H4       1.0000 0.90050  0.13410  0.05470  Biso   1.000  H
  H5       1.0000 0.59950  0.63410  0.05470  Biso   1.000  H
  H6       1.0000 0.90050  0.36590  0.55470  Biso   1.000  H
  H7       1.0000 0.40050  0.13410  0.44530  Biso   1.000  H
  H8       1.0000 0.09950  0.86590  0.94530  Biso   1.000  H
  H9       1.0000 0.26320  0.34030  0.91760  Biso   1.000  H
  H10      1.0000 0.23680  0.65970  0.41760  Biso   1.000  H
  H11      1.0000 0.73680  0.84030  0.58240  Biso   1.000  H
  H12      1.0000 0.76320  0.15970  0.08240  Biso   1.000  H
  H13      1.0000 0.73680  0.65970  0.08240  Biso   1.000  H
  H14      1.0000 0.76320  0.34030  0.58240  Biso   1.000  H
  H15      1.0000 0.26320  0.15970  0.41760  Biso   1.000  H
  H16      1.0000 0.23680  0.84030  0.91760  Biso   1.000  H
  O57      1.0000 0.12550  0.58140  0.98730  Biso   1.000  O
  O58      1.0000 0.37450  0.41860  0.48730  Biso   1.000  O
  O59      1.0000 0.87450  0.08140  0.51270  Biso   1.000  O
  O60      1.0000 0.62550  0.91860  0.01270  Biso   1.000  O
  O61      1.0000 0.87450  0.41860  0.01270  Biso   1.000  O
  O62      1.0000 0.62550  0.58140  0.51270  Biso   1.000  O
  O63      1.0000 0.12550  0.91860  0.48730  Biso   1.000  O
  O64      1.0000 0.37450  0.08140  0.98730  Biso   1.000  O
  H17      1.0000 0.07900  0.56250  0.04380  Biso   1.000  H
  H18      1.0000 0.42100  0.43750  0.54380  Biso   1.000  H
  H19      1.0000 0.92100  0.06250  0.45620  Biso   1.000  H
  H20      1.0000 0.57900  0.93750  0.95620  Biso   1.000  H
  H21      1.0000 0.92100  0.43750  0.95620  Biso   1.000  H
  H22      1.0000 0.57900  0.56250  0.45620  Biso   1.000  H
  H23      1.0000 0.07900  0.93750  0.54380  Biso   1.000  H
  H24      1.0000 0.42100  0.06250  0.04380  Biso   1.000  H
  H25      1.0000 0.05270  0.60500  0.94000  Biso   1.000  H
  H26      1.0000 0.44730  0.39500  0.44000  Biso   1.000  H
  H27      1.0000 0.94730  0.10500  0.56000  Biso   1.000  H
  H28      1.0000 0.55270  0.89500  0.06000  Biso   1.000  H
  H29      1.0000 0.94730  0.39500  0.06000  Biso   1.000  H
  H30      1.0000 0.55270  0.60500  0.56000  Biso   1.000  H
  H31      1.0000 0.05270  0.89500  0.44000  Biso   1.000  H
  H32      1.0000 0.44730  0.10500  0.94000  Biso   1.000  H
  H33      1.0000 0.31900  0.21300  0.27600  Biso   1.000  H
  H34      1.0000 0.18100  0.78700  0.77600  Biso   1.000  H
  H35      1.0000 0.68100  0.71300  0.22400  Biso   1.000  H
  H36      1.0000 0.81900  0.28700  0.72400  Biso   1.000  H
  H37      1.0000 0.68100  0.78700  0.72400  Biso   1.000  H
  H38      1.0000 0.81900  0.21300  0.22400  Biso   1.000  H
  H39      1.0000 0.31900  0.28700  0.77600  Biso   1.000  H
  H40      1.0000 0.18100  0.71300  0.27600  Biso   1.000  H
  H41      1.0000 0.18900  0.19400  0.25500  Biso   1.000  H
  H42      1.0000 0.31100  0.80600  0.75500  Biso   1.000  H
  H43      1.0000 0.81100  0.69400  0.24500  Biso   1.000  H
  H44      1.0000 0.68900  0.30600  0.74500  Biso   1.000  H
  H45      1.0000 0.81100  0.80600  0.74500  Biso   1.000  H
  H46      1.0000 0.68900  0.19400  0.24500  Biso   1.000  H
  H47      1.0000 0.18900  0.30600  0.75500  Biso   1.000  H
  H48      1.0000 0.31100  0.69400  0.25500  Biso   1.000  H
  H49      1.0000 0.27600  0.26900  0.07000  Biso   1.000  H
  H50      1.0000 0.22400  0.73100  0.57000  Biso   1.000  H
  H51      1.0000 0.72400  0.76900  0.43000  Biso   1.000  H
  H52      1.0000 0.77600  0.23100  0.93000  Biso   1.000  H
  H53      1.0000 0.72400  0.73100  0.93000  Biso   1.000  H
  H54      1.0000 0.77600  0.26900  0.43000  Biso   1.000  H
  H55      1.0000 0.27600  0.23100  0.57000  Biso   1.000  H
  H56      1.0000 0.22400  0.76900  0.07000  Biso   1.000  H
  H57      1.0000 0.25500  0.17700  0.12100  Biso   1.000  H
  H58      1.0000 0.24500  0.82300  0.62100  Biso   1.000  H
  H59      1.0000 0.74500  0.67700  0.37900  Biso   1.000  H
  H60      1.0000 0.75500  0.32300  0.87900  Biso   1.000  H
  H61      1.0000 0.74500  0.82300  0.87900  Biso   1.000  H
  H62      1.0000 0.75500  0.17700  0.37900  Biso   1.000  H
  H63      1.0000 0.25500  0.32300  0.62100  Biso   1.000  H
  H64      1.0000 0.24500  0.67700  0.12100  Biso   1.000  H
  H65      1.0000 0.44600  0.31200  0.16060  Biso   1.000  H
  H66      1.0000 0.05400  0.68800  0.66060  Biso   1.000  H
  H67      1.0000 0.55400  0.81200  0.33940  Biso   1.000  H
  H68      1.0000 0.94600  0.18800  0.83940  Biso   1.000  H
  H69      1.0000 0.55400  0.68800  0.83940  Biso   1.000  H
  H70      1.0000 0.94600  0.31200  0.33940  Biso   1.000  H
  H71      1.0000 0.44600  0.18800  0.66060  Biso   1.000  H
  H72      1.0000 0.05400  0.81200  0.16060  Biso   1.000  H
  H73      1.0000 0.41600  0.38200  0.22300  Biso   1.000  H
  H74      1.0000 0.08400  0.61800  0.72300  Biso   1.000  H
  H75      1.0000 0.58400  0.88200  0.27700  Biso   1.000  H
  H76      1.0000 0.91600  0.11800  0.77700  Biso   1.000  H
  H77      1.0000 0.58400  0.61800  0.77700  Biso   1.000  H
  H78      1.0000 0.91600  0.38200  0.27700  Biso   1.000  H
  H79      1.0000 0.41600  0.11800  0.72300  Biso   1.000  H
  H80      1.0000 0.08400  0.88200  0.22300  Biso   1.000  H
