data_image0
_cell_length_a       8.829
_cell_length_b       16.126
_cell_length_c       7.962
_cell_angle_alpha    90
_cell_angle_beta     91.93
_cell_angle_gamma    90

_symmetry_space_group_name_H-M    "P 1"
_symmetry_int_tables_number       1

loop_
  _symmetry_equiv_pos_as_xyz
  'x, y, z'

loop_
  _atom_site_label
  _atom_site_occupancy
  _atom_site_fract_x
  _atom_site_fract_y
  _atom_site_fract_z
  _atom_site_thermal_displace_type
  _atom_site_B_iso_or_equiv
  _atom_site_type_symbol
  Cu1      1.0000 0.63968  0.10653  0.03219  Biso   1.000  Cu
  Cu2      1.0000 0.36032  0.60653  0.46781  Biso   1.000  Cu
  Cu3      1.0000 0.36032  0.89347  0.96781  Biso   1.000  Cu
  Cu4      1.0000 0.63968  0.39347  0.53219  Biso   1.000  Cu
  Ca1      1.0000 0.13886  0.23044  0.07302  Biso   1.000  Ca
  Ca2      1.0000 0.86114  0.73044  0.42698  Biso   1.000  Ca
  Ca3      1.0000 0.86114  0.76956  0.92698  Biso   1.000  Ca
  Ca4      1.0000 0.13886  0.26956  0.57302  Biso   1.000  Ca
  Cl1      1.0000 0.63279  0.10607  0.31098  Biso   1.000  Cl
  Cl2      1.0000 0.36721  0.60607  0.18902  Biso   1.000  Cl
  Cl3      1.0000 0.36721  0.89393  0.68902  Biso   1.000  Cl
  Cl4      1.0000 0.63279  0.39393  0.81098  Biso   1.000  Cl
  O1       1.0000 0.87266  0.16183  0.99691  Biso   1.000  O
  O2       1.0000 0.12734  0.66183  0.50309  Biso   1.000  O
  O3       1.0000 0.12734  0.83817  0.00309  Biso   1.000  O
  O4       1.0000 0.87266  0.33817  0.49691  Biso   1.000  O
  O5       1.0000 0.99136  0.22857  0.80023  Biso   1.000  O
  O6       1.0000 0.00864  0.72857  0.69977  Biso   1.000  O
  O7       1.0000 0.00864  0.77143  0.19977  Biso   1.000  O
  O8       1.0000 0.99136  0.27143  0.30023  Biso   1.000  O
  O9       1.0000 0.47885  0.19015  0.99753  Biso   1.000  O
  O10      1.0000 0.52115  0.69015  0.50247  Biso   1.000  O
  O11      1.0000 0.52115  0.80985  0.00247  Biso   1.000  O
  O12      1.0000 0.47885  0.30985  0.49753  Biso   1.000  O
  O13      1.0000 0.29322  0.22235  0.81660  Biso   1.000  O
  O14      1.0000 0.70678  0.72235  0.68340  Biso   1.000  O
  O15      1.0000 0.70678  0.77765  0.18340  Biso   1.000  O
  O16      1.0000 0.29322  0.27765  0.31660  Biso   1.000  O
  O17      1.0000 0.70730  0.98985  0.00880  Biso   1.000  O
  O18      1.0000 0.29270  0.48985  0.49120  Biso   1.000  O
  O19      1.0000 0.29270  0.01015  0.99120  Biso   1.000  O
  O20      1.0000 0.70730  0.51015  0.50880  Biso   1.000  O
  O21      1.0000 0.79475  0.90087  0.82345  Biso   1.000  O
  O22      1.0000 0.20525  0.40087  0.67655  Biso   1.000  O
  O23      1.0000 0.20525  0.09913  0.17655  Biso   1.000  O
  O24      1.0000 0.79475  0.59913  0.32345  Biso   1.000  O
  N1       1.0000 0.64292  0.10959  0.77811  Biso   1.000  N
  N2       1.0000 0.35708  0.60959  0.72189  Biso   1.000  N
  N3       1.0000 0.35708  0.89041  0.22189  Biso   1.000  N
  N4       1.0000 0.64292  0.39041  0.27811  Biso   1.000  N
  C1       1.0000 0.74424  0.17828  0.72962  Biso   1.000  C
  C2       1.0000 0.25576  0.67828  0.77038  Biso   1.000  C
  C3       1.0000 0.25576  0.82172  0.27038  Biso   1.000  C
  C4       1.0000 0.74424  0.32172  0.22962  Biso   1.000  C
  C5       1.0000 0.87909  0.18875  0.85019  Biso   1.000  C
  C6       1.0000 0.12091  0.68875  0.64981  Biso   1.000  C
  C7       1.0000 0.12091  0.81125  0.14981  Biso   1.000  C
  C8       1.0000 0.87909  0.31125  0.35019  Biso   1.000  C
  C9       1.0000 0.48448  0.12920  0.72371  Biso   1.000  C
  C10      1.0000 0.51552  0.62920  0.77629  Biso   1.000  C
  C11      1.0000 0.51552  0.87080  0.27629  Biso   1.000  C
  C12      1.0000 0.48448  0.37080  0.22371  Biso   1.000  C
  C13      1.0000 0.41503  0.18559  0.85301  Biso   1.000  C
  C14      1.0000 0.58497  0.68559  0.64699  Biso   1.000  C
  C15      1.0000 0.58497  0.81441  0.14699  Biso   1.000  C
  C16      1.0000 0.41503  0.31441  0.35301  Biso   1.000  C
  C17      1.0000 0.69720  0.02806  0.71795  Biso   1.000  C
  C18      1.0000 0.30280  0.52806  0.78205  Biso   1.000  C
  C19      1.0000 0.30280  0.97194  0.28205  Biso   1.000  C
  C20      1.0000 0.69720  0.47194  0.21795  Biso   1.000  C
  C21      1.0000 0.73656  0.96861  0.86043  Biso   1.000  C
  C22      1.0000 0.26344  0.46861  0.63957  Biso   1.000  C
  C23      1.0000 0.26344  0.03139  0.13957  Biso   1.000  C
  C24      1.0000 0.73656  0.53139  0.36043  Biso   1.000  C
  O25      1.0000 0.06800  0.48796  0.22540  Biso   1.000  O
  O26      1.0000 0.93200  0.98796  0.27460  Biso   1.000  O
  O27      1.0000 0.93200  0.51204  0.77460  Biso   1.000  O
  O28      1.0000 0.06800  0.01204  0.72540  Biso   1.000  O
  O29      1.0000 0.13130  0.36944  0.00500  Biso   1.000  O
  O30      1.0000 0.86870  0.86944  0.49500  Biso   1.000  O
  O31      1.0000 0.86870  0.63056  0.99500  Biso   1.000  O
  O32      1.0000 0.13130  0.13056  0.50500  Biso   1.000  O
  H1       1.0000 0.69300  0.22940  0.73700  Biso   1.000  H
  H2       1.0000 0.30700  0.72940  0.76300  Biso   1.000  H
  H3       1.0000 0.30700  0.77060  0.26300  Biso   1.000  H
  H4       1.0000 0.69300  0.27060  0.23700  Biso   1.000  H
  H5       1.0000 0.78000  0.17130  0.61100  Biso   1.000  H
  H6       1.0000 0.22000  0.67130  0.88900  Biso   1.000  H
  H7       1.0000 0.22000  0.82870  0.38900  Biso   1.000  H
  H8       1.0000 0.78000  0.32870  0.11100  Biso   1.000  H
  H9       1.0000 0.47800  0.15270  0.62400  Biso   1.000  H
  H10      1.0000 0.52200  0.65270  0.87600  Biso   1.000  H
  H11      1.0000 0.52200  0.84730  0.37600  Biso   1.000  H
  H12      1.0000 0.47800  0.34730  0.12400  Biso   1.000  H
  H13      1.0000 0.42400  0.08190  0.72400  Biso   1.000  H
  H14      1.0000 0.57600  0.58190  0.77600  Biso   1.000  H
  H15      1.0000 0.57600  0.91810  0.27600  Biso   1.000  H
  H16      1.0000 0.42400  0.41810  0.22400  Biso   1.000  H
  H17      1.0000 0.62400  0.00580  0.65400  Biso   1.000  H
  H18      1.0000 0.37600  0.50580  0.84600  Biso   1.000  H
  H19      1.0000 0.37600  0.99420  0.34600  Biso   1.000  H
  H20      1.0000 0.62400  0.49420  0.15400  Biso   1.000  H
  H21      1.0000 0.78800  0.03240  0.64900  Biso   1.000  H
  H22      1.0000 0.21200  0.53240  0.85100  Biso   1.000  H
  H23      1.0000 0.21200  0.96760  0.35100  Biso   1.000  H
  H24      1.0000 0.78800  0.46760  0.14900  Biso   1.000  H
  H25      1.0000 0.12400  0.48100  0.31100  Biso   1.000  H
  H26      1.0000 0.87600  0.98100  0.18900  Biso   1.000  H
  H27      1.0000 0.87600  0.51900  0.68900  Biso   1.000  H
  H28      1.0000 0.12400  0.01900  0.81100  Biso   1.000  H
  H29      1.0000 0.09100  0.53300  0.22100  Biso   1.000  H
  H30      1.0000 0.90900  0.03300  0.27900  Biso   1.000  H
  H31      1.0000 0.90900  0.46700  0.77900  Biso   1.000  H
  H32      1.0000 0.09100  0.96700  0.72100  Biso   1.000  H
  H33      1.0000 0.13600  0.37990  0.92200  Biso   1.000  H
  H34      1.0000 0.86400  0.87990  0.57800  Biso   1.000  H
  H35      1.0000 0.86400  0.62010  0.07800  Biso   1.000  H
  H36      1.0000 0.13600  0.12010  0.42200  Biso   1.000  H
  H37      1.0000 0.10800  0.40510  0.06700  Biso   1.000  H
  H38      1.0000 0.89200  0.90510  0.43300  Biso   1.000  H
  H39      1.0000 0.89200  0.59490  0.93300  Biso   1.000  H
  H40      1.0000 0.10800  0.09490  0.56700  Biso   1.000  H
