data_image0
_cell_length_a       7.2422
_cell_length_b       11.0937
_cell_length_c       21.8771
_cell_angle_alpha    90
_cell_angle_beta     90
_cell_angle_gamma    90

_symmetry_space_group_name_H-M    "P 1"
_symmetry_int_tables_number       1

loop_
  _symmetry_equiv_pos_as_xyz
  'x, y, z'

loop_
  _atom_site_label
  _atom_site_occupancy
  _atom_site_fract_x
  _atom_site_fract_y
  _atom_site_fract_z
  _atom_site_thermal_displace_type
  _atom_site_B_iso_or_equiv
  _atom_site_type_symbol
  Cu1      1.0000 0.77999  0.66184  0.92219  Biso   1.000  Cu
  Cu2      1.0000 0.72001  0.33816  0.42219  Biso   1.000  Cu
  Cu3      1.0000 0.22001  0.16184  0.57781  Biso   1.000  Cu
  Cu4      1.0000 0.27999  0.83816  0.07781  Biso   1.000  Cu
  N1       1.0000 0.67650  0.56430  0.99153  Biso   1.000  N
  N2       1.0000 0.82350  0.43570  0.49153  Biso   1.000  N
  N3       1.0000 0.32350  0.06430  0.50847  Biso   1.000  N
  N4       1.0000 0.17650  0.93570  0.00847  Biso   1.000  N
  N5       1.0000 0.72740  0.54460  0.85587  Biso   1.000  N
  N6       1.0000 0.77260  0.45540  0.35587  Biso   1.000  N
  N7       1.0000 0.27260  0.04460  0.64413  Biso   1.000  N
  N8       1.0000 0.22740  0.95540  0.14413  Biso   1.000  N
  O1       1.0000 0.90940  0.74360  0.98955  Biso   1.000  O
  O2       1.0000 0.59060  0.25640  0.48955  Biso   1.000  O
  O3       1.0000 0.09060  0.24360  0.51045  Biso   1.000  O
  O4       1.0000 0.40940  0.75640  0.01045  Biso   1.000  O
  O5       1.0000 0.52580  0.78890  0.91736  Biso   1.000  O
  O6       1.0000 0.97420  0.21110  0.41736  Biso   1.000  O
  O7       1.0000 0.47420  0.28890  0.58264  Biso   1.000  O
  O8       1.0000 0.02580  0.71110  0.08264  Biso   1.000  O
  N9       1.0000 0.92020  0.76010  0.86167  Biso   1.000  N
  N10      1.0000 0.57980  0.23990  0.36167  Biso   1.000  N
  N11      1.0000 0.07980  0.26010  0.63833  Biso   1.000  N
  N12      1.0000 0.42020  0.73990  0.13833  Biso   1.000  N
  H1       1.0000 0.56680  0.59350  0.00230  Biso   1.000  H
  H2       1.0000 0.93320  0.40650  0.50230  Biso   1.000  H
  H3       1.0000 0.43320  0.09350  0.49770  Biso   1.000  H
  H4       1.0000 0.06680  0.90650  0.99770  Biso   1.000  H
  H5       1.0000 0.66140  0.48820  0.97970  Biso   1.000  H
  H6       1.0000 0.83860  0.51180  0.47970  Biso   1.000  H
  H7       1.0000 0.33860  0.98820  0.52030  Biso   1.000  H
  H8       1.0000 0.16140  0.01180  0.02030  Biso   1.000  H
  C1       1.0000 0.80400  0.56890  0.04452  Biso   1.000  C
  C2       1.0000 0.69600  0.43110  0.54452  Biso   1.000  C
  C3       1.0000 0.19600  0.06890  0.45548  Biso   1.000  C
  C4       1.0000 0.30400  0.93110  0.95548  Biso   1.000  C
  C5       1.0000 0.92280  0.68350  0.03954  Biso   1.000  C
  C6       1.0000 0.57720  0.31650  0.53954  Biso   1.000  C
  C7       1.0000 0.07720  0.18350  0.46046  Biso   1.000  C
  C8       1.0000 0.42280  0.81650  0.96046  Biso   1.000  C
  C9       1.0000 0.09560  0.73320  0.85030  Biso   1.000  C
  C10      1.0000 0.40440  0.26680  0.35030  Biso   1.000  C
  C11      1.0000 0.90440  0.23320  0.64970  Biso   1.000  C
  C12      1.0000 0.59560  0.76680  0.14970  Biso   1.000  C
  C13      1.0000 0.83520  0.84080  0.82493  Biso   1.000  C
  C14      1.0000 0.66480  0.15920  0.32493  Biso   1.000  C
  C15      1.0000 0.16480  0.34080  0.67507  Biso   1.000  C
  C16      1.0000 0.33520  0.65920  0.17507  Biso   1.000  C
  C17      1.0000 0.92600  0.45570  0.04684  Biso   1.000  C
  C18      1.0000 0.57400  0.54430  0.54684  Biso   1.000  C
  C19      1.0000 0.07400  0.95570  0.45316  Biso   1.000  C
  C20      1.0000 0.42600  0.04430  0.95316  Biso   1.000  C
  H9       1.0000 0.73090  0.57310  0.08220  Biso   1.000  H
  H10      1.0000 0.76910  0.42690  0.58220  Biso   1.000  H
  H11      1.0000 0.26910  0.07310  0.41780  Biso   1.000  H
  H12      1.0000 0.23090  0.92690  0.91780  Biso   1.000  H
  C21      1.0000 0.19680  0.78620  0.80393  Biso   1.000  C
  C22      1.0000 0.30320  0.21380  0.30393  Biso   1.000  C
  C23      1.0000 0.80320  0.28620  0.69607  Biso   1.000  C
  C24      1.0000 0.69680  0.71380  0.19607  Biso   1.000  C
  H13      1.0000 0.15320  0.67590  0.87470  Biso   1.000  H
  H14      1.0000 0.34680  0.32410  0.37470  Biso   1.000  H
  H15      1.0000 0.84680  0.17590  0.62530  Biso   1.000  H
  H16      1.0000 0.65320  0.82410  0.12530  Biso   1.000  H
  C25      1.0000 0.92880  0.89720  0.77760  Biso   1.000  C
  C26      1.0000 0.57120  0.10280  0.27760  Biso   1.000  C
  C27      1.0000 0.07120  0.39720  0.72240  Biso   1.000  C
  C28      1.0000 0.42880  0.60280  0.22240  Biso   1.000  C
  H17      1.0000 0.71140  0.85890  0.83150  Biso   1.000  H
  H18      1.0000 0.78860  0.14110  0.33150  Biso   1.000  H
  H19      1.0000 0.28860  0.35890  0.66850  Biso   1.000  H
  H20      1.0000 0.21140  0.64110  0.16850  Biso   1.000  H
  C29      1.0000 0.03960  0.43420  0.99023  Biso   1.000  C
  C30      1.0000 0.46040  0.56580  0.49023  Biso   1.000  C
  C31      1.0000 0.96040  0.93420  0.50977  Biso   1.000  C
  C32      1.0000 0.53960  0.06580  0.00977  Biso   1.000  C
  H21      1.0000 0.00860  0.46230  0.08160  Biso   1.000  H
  H22      1.0000 0.49140  0.53770  0.58160  Biso   1.000  H
  H23      1.0000 0.99140  0.96230  0.41840  Biso   1.000  H
  H24      1.0000 0.50860  0.03770  0.91840  Biso   1.000  H
  H25      1.0000 0.84760  0.38610  0.05360  Biso   1.000  H
  H26      1.0000 0.65240  0.61390  0.55360  Biso   1.000  H
  H27      1.0000 0.15240  0.88610  0.44640  Biso   1.000  H
  H28      1.0000 0.34760  0.11390  0.94640  Biso   1.000  H
  C33      1.0000 0.11230  0.87100  0.76703  Biso   1.000  C
  C34      1.0000 0.38770  0.12900  0.26703  Biso   1.000  C
  C35      1.0000 0.88770  0.37100  0.73297  Biso   1.000  C
  C36      1.0000 0.61230  0.62900  0.23297  Biso   1.000  C
  H29      1.0000 0.31960  0.76500  0.79770  Biso   1.000  H
  H30      1.0000 0.18040  0.23500  0.29770  Biso   1.000  H
  H31      1.0000 0.68040  0.26500  0.70230  Biso   1.000  H
  H32      1.0000 0.81960  0.73500  0.20230  Biso   1.000  H
  H33      1.0000 0.86780  0.95270  0.75290  Biso   1.000  H
  H34      1.0000 0.63220  0.04730  0.25290  Biso   1.000  H
  H35      1.0000 0.13220  0.45270  0.74710  Biso   1.000  H
  H36      1.0000 0.36780  0.54730  0.24710  Biso   1.000  H
  C37      1.0000 0.02150  0.33500  0.94804  Biso   1.000  C
  C38      1.0000 0.47850  0.66500  0.44804  Biso   1.000  C
  C39      1.0000 0.97850  0.83500  0.55196  Biso   1.000  C
  C40      1.0000 0.52150  0.16500  0.05196  Biso   1.000  C
  C41      1.0000 0.18510  0.50100  0.97024  Biso   1.000  C
  C42      1.0000 0.31490  0.49900  0.47024  Biso   1.000  C
  C43      1.0000 0.81490  0.00100  0.52976  Biso   1.000  C
  C44      1.0000 0.68510  0.99900  0.02976  Biso   1.000  C
  C45      1.0000 0.21260  0.93050  0.71774  Biso   1.000  C
  C46      1.0000 0.28740  0.06950  0.21774  Biso   1.000  C
  C47      1.0000 0.78740  0.43050  0.78226  Biso   1.000  C
  C48      1.0000 0.71260  0.56950  0.28226  Biso   1.000  C
  C49      1.0000 0.16290  0.34850  0.90449  Biso   1.000  C
  C50      1.0000 0.33710  0.65150  0.40449  Biso   1.000  C
  C51      1.0000 0.83710  0.84850  0.59551  Biso   1.000  C
  C52      1.0000 0.66290  0.15150  0.09551  Biso   1.000  C
  C53      1.0000 0.90310  0.23460  0.94410  Biso   1.000  C
  C54      1.0000 0.59690  0.76540  0.44410  Biso   1.000  C
  C55      1.0000 0.09690  0.73460  0.55590  Biso   1.000  C
  C56      1.0000 0.40310  0.26540  0.05590  Biso   1.000  C
  N13      1.0000 0.25980  0.45050  0.91852  Biso   1.000  N
  N14      1.0000 0.24020  0.54950  0.41852  Biso   1.000  N
  N15      1.0000 0.74020  0.95050  0.58148  Biso   1.000  N
  N16      1.0000 0.75980  0.04950  0.08148  Biso   1.000  N
  H37      1.0000 0.22790  0.57100  0.98890  Biso   1.000  H
  H38      1.0000 0.27210  0.42900  0.48890  Biso   1.000  H
  H39      1.0000 0.77210  0.07100  0.51110  Biso   1.000  H
  H40      1.0000 0.72790  0.92900  0.01110  Biso   1.000  H
  N17      1.0000 0.13260  0.01250  0.68161  Biso   1.000  N
  N18      1.0000 0.36740  0.98750  0.18161  Biso   1.000  N
  N19      1.0000 0.86740  0.51250  0.81839  Biso   1.000  N
  N20      1.0000 0.63260  0.48750  0.31839  Biso   1.000  N
  N21      1.0000 0.38990  0.91300  0.70340  Biso   1.000  N
  N22      1.0000 0.11010  0.08700  0.20340  Biso   1.000  N
  N23      1.0000 0.61010  0.41300  0.79660  Biso   1.000  N
  N24      1.0000 0.88990  0.58700  0.29660  Biso   1.000  N
  C57      1.0000 0.18810  0.26720  0.85610  Biso   1.000  C
  C58      1.0000 0.31190  0.73280  0.35610  Biso   1.000  C
  C59      1.0000 0.81190  0.76720  0.64390  Biso   1.000  C
  C60      1.0000 0.68810  0.23280  0.14390  Biso   1.000  C
  C61      1.0000 0.92760  0.15470  0.89660  Biso   1.000  C
  C62      1.0000 0.57240  0.84530  0.39660  Biso   1.000  C
  C63      1.0000 0.07240  0.65470  0.60340  Biso   1.000  C
  C64      1.0000 0.42760  0.34530  0.10340  Biso   1.000  C
  H41      1.0000 0.81060  0.22250  0.97290  Biso   1.000  H
  H42      1.0000 0.68940  0.77750  0.47290  Biso   1.000  H
  H43      1.0000 0.18940  0.72250  0.52710  Biso   1.000  H
  H44      1.0000 0.31060  0.27750  0.02710  Biso   1.000  H
  H45      1.0000 0.34800  0.47400  0.90400  Biso   1.000  H
  H46      1.0000 0.15200  0.52600  0.40400  Biso   1.000  H
  H47      1.0000 0.65200  0.97400  0.59600  Biso   1.000  H
  H48      1.0000 0.84800  0.02600  0.09600  Biso   1.000  H
  N25      1.0000 0.41890  0.98960  0.65590  Biso   1.000  N
  N26      1.0000 0.08110  0.01040  0.15590  Biso   1.000  N
  N27      1.0000 0.58110  0.48960  0.84410  Biso   1.000  N
  N28      1.0000 0.91890  0.51040  0.34410  Biso   1.000  N
  H49      1.0000 0.28150  0.27780  0.82740  Biso   1.000  H
  H50      1.0000 0.21850  0.72220  0.32740  Biso   1.000  H
  H51      1.0000 0.71850  0.77780  0.67260  Biso   1.000  H
  H52      1.0000 0.78150  0.22220  0.17260  Biso   1.000  H
  C65      1.0000 0.06820  0.17090  0.85290  Biso   1.000  C
  C66      1.0000 0.43180  0.82910  0.35290  Biso   1.000  C
  C67      1.0000 0.93180  0.67090  0.64710  Biso   1.000  C
  C68      1.0000 0.56820  0.32910  0.14710  Biso   1.000  C
  H53      1.0000 0.84940  0.08860  0.89320  Biso   1.000  H
  H54      1.0000 0.65060  0.91140  0.39320  Biso   1.000  H
  H55      1.0000 0.15060  0.58860  0.60680  Biso   1.000  H
  H56      1.0000 0.34940  0.41140  0.10680  Biso   1.000  H
  H57      1.0000 0.08050  0.11550  0.82120  Biso   1.000  H
  H58      1.0000 0.41950  0.88450  0.32120  Biso   1.000  H
  H59      1.0000 0.91950  0.61550  0.67880  Biso   1.000  H
  H60      1.0000 0.58050  0.38450  0.17880  Biso   1.000  H
