data_image0
_cell_length_a       7.2527
_cell_length_b       11.069
_cell_length_c       21.876
_cell_angle_alpha    90
_cell_angle_beta     90
_cell_angle_gamma    90

_symmetry_space_group_name_H-M    "P 1"
_symmetry_int_tables_number       1

loop_
  _symmetry_equiv_pos_as_xyz
  'x, y, z'

loop_
  _atom_site_label
  _atom_site_occupancy
  _atom_site_fract_x
  _atom_site_fract_y
  _atom_site_fract_z
  _atom_site_thermal_displace_type
  _atom_site_B_iso_or_equiv
  _atom_site_type_symbol
  Cu1      1.0000 0.28235  0.66180  0.07770  Biso   1.000  Cu
  Cu2      1.0000 0.21765  0.33820  0.57770  Biso   1.000  Cu
  Cu3      1.0000 0.71765  0.16180  0.42230  Biso   1.000  Cu
  Cu4      1.0000 0.78235  0.83820  0.92230  Biso   1.000  Cu
  O1       1.0000 0.41190  0.74338  0.01058  Biso   1.000  O
  O2       1.0000 0.08810  0.25662  0.51058  Biso   1.000  O
  O3       1.0000 0.58810  0.24338  0.48942  Biso   1.000  O
  O4       1.0000 0.91190  0.75662  0.98942  Biso   1.000  O
  N1       1.0000 0.42060  0.76096  0.13841  Biso   1.000  N
  N2       1.0000 0.07940  0.23904  0.63841  Biso   1.000  N
  N3       1.0000 0.57940  0.26096  0.36159  Biso   1.000  N
  N4       1.0000 0.92060  0.73904  0.86159  Biso   1.000  N
  N5       1.0000 0.17930  0.56406  0.00847  Biso   1.000  N
  N6       1.0000 0.32070  0.43594  0.50847  Biso   1.000  N
  N7       1.0000 0.82070  0.06406  0.49153  Biso   1.000  N
  N8       1.0000 0.67930  0.93594  0.99153  Biso   1.000  N
  H1       1.0000 0.16400  0.48780  0.02030  Biso   1.000  H
  H2       1.0000 0.33600  0.51220  0.52030  Biso   1.000  H
  H3       1.0000 0.83600  0.98780  0.47970  Biso   1.000  H
  H4       1.0000 0.66400  0.01220  0.97970  Biso   1.000  H
  H5       1.0000 0.06980  0.59340  0.99760  Biso   1.000  H
  H6       1.0000 0.43020  0.40660  0.49760  Biso   1.000  H
  H7       1.0000 0.93020  0.09340  0.50240  Biso   1.000  H
  H8       1.0000 0.56980  0.90660  0.00240  Biso   1.000  H
  N9       1.0000 0.76150  0.45033  0.08159  Biso   1.000  N
  N10      1.0000 0.73850  0.54967  0.58159  Biso   1.000  N
  N11      1.0000 0.23850  0.95033  0.41841  Biso   1.000  N
  N12      1.0000 0.26150  0.04967  0.91841  Biso   1.000  N
  H9       1.0000 0.85410  0.47820  0.10170  Biso   1.000  H
  H10      1.0000 0.64590  0.52180  0.60170  Biso   1.000  H
  H11      1.0000 0.14590  0.97820  0.39830  Biso   1.000  H
  H12      1.0000 0.35410  0.02180  0.89830  Biso   1.000  H
  C1       1.0000 0.33680  0.84090  0.17506  Biso   1.000  C
  C2       1.0000 0.16320  0.15910  0.67506  Biso   1.000  C
  C3       1.0000 0.66320  0.34090  0.32494  Biso   1.000  C
  C4       1.0000 0.83680  0.65910  0.82494  Biso   1.000  C
  H13      1.0000 0.21310  0.85870  0.16840  Biso   1.000  H
  H14      1.0000 0.28690  0.14130  0.66840  Biso   1.000  H
  H15      1.0000 0.78690  0.35870  0.33160  Biso   1.000  H
  H16      1.0000 0.71310  0.64130  0.83160  Biso   1.000  H
  C5       1.0000 0.42470  0.68330  0.96082  Biso   1.000  C
  C6       1.0000 0.07530  0.31670  0.46082  Biso   1.000  C
  C7       1.0000 0.57530  0.18330  0.53918  Biso   1.000  C
  C8       1.0000 0.92470  0.81670  0.03918  Biso   1.000  C
  C9       1.0000 0.54080  0.43410  0.00992  Biso   1.000  C
  C10      1.0000 0.95920  0.56590  0.50992  Biso   1.000  C
  C11      1.0000 0.45920  0.93410  0.49008  Biso   1.000  C
  C12      1.0000 0.04080  0.06590  0.99008  Biso   1.000  C
  C13      1.0000 0.66410  0.34840  0.09579  Biso   1.000  C
  C14      1.0000 0.83590  0.65160  0.59579  Biso   1.000  C
  C15      1.0000 0.33590  0.84840  0.40421  Biso   1.000  C
  C16      1.0000 0.16410  0.15160  0.90421  Biso   1.000  C
  C17      1.0000 0.52320  0.33510  0.05178  Biso   1.000  C
  C18      1.0000 0.97680  0.66490  0.55178  Biso   1.000  C
  C19      1.0000 0.47680  0.83510  0.44822  Biso   1.000  C
  C20      1.0000 0.02320  0.16490  0.94822  Biso   1.000  C
  C21      1.0000 0.42860  0.45540  0.95330  Biso   1.000  C
  C22      1.0000 0.07140  0.54460  0.45330  Biso   1.000  C
  C23      1.0000 0.57140  0.95540  0.54670  Biso   1.000  C
  C24      1.0000 0.92860  0.04460  0.04670  Biso   1.000  C
  H17      1.0000 0.35020  0.38570  0.94640  Biso   1.000  H
  H18      1.0000 0.14980  0.61430  0.44640  Biso   1.000  H
  H19      1.0000 0.64980  0.88570  0.55360  Biso   1.000  H
  H20      1.0000 0.85020  0.11430  0.05360  Biso   1.000  H
  H21      1.0000 0.51140  0.46210  0.91870  Biso   1.000  H
  H22      1.0000 0.98860  0.53790  0.41870  Biso   1.000  H
  H23      1.0000 0.48860  0.96210  0.58130  Biso   1.000  H
  H24      1.0000 0.01140  0.03790  0.08130  Biso   1.000  H
  C25      1.0000 0.30740  0.56870  0.95580  Biso   1.000  C
  C26      1.0000 0.19260  0.43130  0.45580  Biso   1.000  C
  C27      1.0000 0.69260  0.06870  0.54420  Biso   1.000  C
  C28      1.0000 0.80740  0.93130  0.04420  Biso   1.000  C
  H25      1.0000 0.23470  0.57310  0.91810  Biso   1.000  H
  H26      1.0000 0.26530  0.42690  0.41810  Biso   1.000  H
  H27      1.0000 0.76530  0.07310  0.58190  Biso   1.000  H
  H28      1.0000 0.73470  0.92690  0.08190  Biso   1.000  H
  C29      1.0000 0.68960  0.26710  0.14381  Biso   1.000  C
  C30      1.0000 0.81040  0.73290  0.64381  Biso   1.000  C
  C31      1.0000 0.31040  0.76710  0.35619  Biso   1.000  C
  C32      1.0000 0.18960  0.23290  0.85619  Biso   1.000  C
  H29      1.0000 0.78300  0.27770  0.17240  Biso   1.000  H
  H30      1.0000 0.71700  0.72230  0.67240  Biso   1.000  H
  H31      1.0000 0.21700  0.77770  0.32760  Biso   1.000  H
  H32      1.0000 0.28300  0.22230  0.82760  Biso   1.000  H
  C33      1.0000 0.68690  0.50100  0.02988  Biso   1.000  C
  C34      1.0000 0.81310  0.49900  0.52988  Biso   1.000  C
  C35      1.0000 0.31310  0.00100  0.47012  Biso   1.000  C
  C36      1.0000 0.18690  0.99900  0.97012  Biso   1.000  C
  H33      1.0000 0.73000  0.57090  0.01110  Biso   1.000  H
  H34      1.0000 0.77000  0.42910  0.51110  Biso   1.000  H
  H35      1.0000 0.27000  0.07090  0.48890  Biso   1.000  H
  H36      1.0000 0.23000  0.92910  0.98890  Biso   1.000  H
  C37      1.0000 0.43010  0.15450  0.10321  Biso   1.000  C
  C38      1.0000 0.06990  0.84550  0.60321  Biso   1.000  C
  C39      1.0000 0.56990  0.65450  0.39679  Biso   1.000  C
  C40      1.0000 0.93010  0.34550  0.89679  Biso   1.000  C
  H37      1.0000 0.35210  0.08810  0.10640  Biso   1.000  H
  H38      1.0000 0.14790  0.91190  0.60640  Biso   1.000  H
  H39      1.0000 0.64790  0.58810  0.39360  Biso   1.000  H
  H40      1.0000 0.85210  0.41190  0.89360  Biso   1.000  H
  C41      1.0000 0.57010  0.17050  0.14700  Biso   1.000  C
  C42      1.0000 0.92990  0.82950  0.64700  Biso   1.000  C
  C43      1.0000 0.42990  0.67050  0.35300  Biso   1.000  C
  C44      1.0000 0.07010  0.32950  0.85300  Biso   1.000  C
  H41      1.0000 0.58230  0.11500  0.17860  Biso   1.000  H
  H42      1.0000 0.91770  0.88500  0.67860  Biso   1.000  H
  H43      1.0000 0.41770  0.61500  0.32140  Biso   1.000  H
  H44      1.0000 0.08230  0.38500  0.82140  Biso   1.000  H
  C45      1.0000 0.42800  0.89760  0.22228  Biso   1.000  C
  C46      1.0000 0.07200  0.10240  0.72228  Biso   1.000  C
  C47      1.0000 0.57200  0.39760  0.27772  Biso   1.000  C
  C48      1.0000 0.92800  0.60240  0.77772  Biso   1.000  C
  H45      1.0000 0.36650  0.95330  0.24670  Biso   1.000  H
  H46      1.0000 0.13350  0.04670  0.74670  Biso   1.000  H
  H47      1.0000 0.63350  0.45330  0.25330  Biso   1.000  H
  H48      1.0000 0.86650  0.54670  0.75330  Biso   1.000  H
  C49      1.0000 0.40560  0.23460  0.05583  Biso   1.000  C
  C50      1.0000 0.09440  0.76540  0.55583  Biso   1.000  C
  C51      1.0000 0.59440  0.73460  0.44417  Biso   1.000  C
  C52      1.0000 0.90560  0.26540  0.94417  Biso   1.000  C
  H49      1.0000 0.31310  0.22250  0.02710  Biso   1.000  H
  H50      1.0000 0.18690  0.77750  0.52710  Biso   1.000  H
  H51      1.0000 0.68690  0.72250  0.47290  Biso   1.000  H
  H52      1.0000 0.81310  0.27750  0.97290  Biso   1.000  H
  C53      1.0000 0.69810  0.78700  0.19582  Biso   1.000  C
  C54      1.0000 0.80190  0.21300  0.69582  Biso   1.000  C
  C55      1.0000 0.30190  0.28700  0.30418  Biso   1.000  C
  C56      1.0000 0.19810  0.71300  0.80418  Biso   1.000  C
  H53      1.0000 0.82110  0.76660  0.20190  Biso   1.000  H
  H54      1.0000 0.67890  0.23340  0.70190  Biso   1.000  H
  H55      1.0000 0.17890  0.26660  0.29810  Biso   1.000  H
  H56      1.0000 0.32110  0.73340  0.79810  Biso   1.000  H
  C57      1.0000 0.59760  0.73410  0.14931  Biso   1.000  C
  C58      1.0000 0.90240  0.26590  0.64931  Biso   1.000  C
  C59      1.0000 0.40240  0.23410  0.35069  Biso   1.000  C
  C60      1.0000 0.09760  0.76590  0.85069  Biso   1.000  C
  H57      1.0000 0.65540  0.67730  0.12450  Biso   1.000  H
  H58      1.0000 0.84460  0.32270  0.62450  Biso   1.000  H
  H59      1.0000 0.34460  0.17730  0.37550  Biso   1.000  H
  H60      1.0000 0.15540  0.82270  0.87550  Biso   1.000  H
  C61      1.0000 0.61240  0.87110  0.23319  Biso   1.000  C
  C62      1.0000 0.88760  0.12890  0.73319  Biso   1.000  C
  C63      1.0000 0.38760  0.37110  0.26681  Biso   1.000  C
  C64      1.0000 0.11240  0.62890  0.76681  Biso   1.000  C
  C65      1.0000 0.71230  0.93110  0.28269  Biso   1.000  C
  C66      1.0000 0.78770  0.06890  0.78269  Biso   1.000  C
  C67      1.0000 0.28770  0.43110  0.21731  Biso   1.000  C
  C68      1.0000 0.21230  0.56890  0.71731  Biso   1.000  C
  N13      1.0000 0.63210  0.01240  0.31876  Biso   1.000  N
  N14      1.0000 0.86790  0.98760  0.81876  Biso   1.000  N
  N15      1.0000 0.36790  0.51240  0.18124  Biso   1.000  N
  N16      1.0000 0.13210  0.48760  0.68124  Biso   1.000  N
  N17      1.0000 0.76870  0.04477  0.35649  Biso   1.000  N
  N18      1.0000 0.73130  0.95523  0.85649  Biso   1.000  N
  N19      1.0000 0.23130  0.54477  0.14351  Biso   1.000  N
  N20      1.0000 0.26870  0.45523  0.64351  Biso   1.000  N
  N21      1.0000 0.91970  0.98810  0.34367  Biso   1.000  N
  N22      1.0000 0.58030  0.01190  0.84367  Biso   1.000  N
  N23      1.0000 0.08030  0.48810  0.15633  Biso   1.000  N
  N24      1.0000 0.41970  0.51190  0.65633  Biso   1.000  N
  N25      1.0000 0.88990  0.91430  0.29645  Biso   1.000  N
  N26      1.0000 0.61010  0.08570  0.79645  Biso   1.000  N
  N27      1.0000 0.11010  0.41430  0.20355  Biso   1.000  N
  N28      1.0000 0.38990  0.58570  0.70355  Biso   1.000  N
  O5       1.0000 0.52720  0.71136  0.91775  Biso   1.000  O
  O6       1.0000 0.97280  0.28864  0.41775  Biso   1.000  O
  O7       1.0000 0.47280  0.21136  0.58225  Biso   1.000  O
  O8       1.0000 0.02720  0.78864  0.08225  Biso   1.000  O
