data_image0
_cell_length_a       8.991
_cell_length_b       9.438
_cell_length_c       14.654
_cell_angle_alpha    89.594
_cell_angle_beta     72.209
_cell_angle_gamma    62.905

_symmetry_space_group_name_H-M    "P 1"
_symmetry_int_tables_number       1

loop_
  _symmetry_equiv_pos_as_xyz
  'x, y, z'

loop_
  _atom_site_label
  _atom_site_occupancy
  _atom_site_fract_x
  _atom_site_fract_y
  _atom_site_fract_z
  _atom_site_thermal_displace_type
  _atom_site_B_iso_or_equiv
  _atom_site_type_symbol
  Cu1      1.0000 0.50000  0.50000  0.50000  Biso   1.000  Cu
  N1       1.0000 0.53380  0.66110  0.56850  Biso   1.000  N
  N2       1.0000 0.46620  0.33890  0.43150  Biso   1.000  N
  C1       1.0000 0.43590  0.81870  0.57860  Biso   1.000  C
  C2       1.0000 0.56410  0.18130  0.42140  Biso   1.000  C
  H1       1.0000 0.34190  0.87060  0.55330  Biso   1.000  H
  H2       1.0000 0.65810  0.12940  0.44670  Biso   1.000  H
  N3       1.0000 0.48620  0.89690  0.62930  Biso   1.000  N
  N4       1.0000 0.51380  0.10310  0.37070  Biso   1.000  N
  C3       1.0000 0.65150  0.64050  0.61440  Biso   1.000  C
  C4       1.0000 0.34850  0.35950  0.38560  Biso   1.000  C
  H3       1.0000 0.74110  0.53900  0.61920  Biso   1.000  H
  H4       1.0000 0.25890  0.46100  0.38080  Biso   1.000  H
  C5       1.0000 0.62340  0.78250  0.65170  Biso   1.000  C
  C6       1.0000 0.37660  0.21750  0.34830  Biso   1.000  C
  H5       1.0000 0.68760  0.79990  0.68730  Biso   1.000  H
  H6       1.0000 0.31240  0.20010  0.31270  Biso   1.000  H
  C7       1.0000 0.39920  0.07170  0.65960  Biso   1.000  C
  C8       1.0000 0.60080  0.92830  0.34040  Biso   1.000  C
  H7       1.0000 0.30990  0.12560  0.62760  Biso   1.000  H
  H8       1.0000 0.69010  0.87440  0.37240  Biso   1.000  H
  H9       1.0000 0.48910  0.10910  0.63770  Biso   1.000  H
  H10      1.0000 0.51090  0.89090  0.36230  Biso   1.000  H
  C9       1.0000 0.31140  0.11970  0.76530  Biso   1.000  C
  C10      1.0000 0.68860  0.88030  0.23470  Biso   1.000  C
  H11      1.0000 0.25880  0.23680  0.78160  Biso   1.000  H
  H12      1.0000 0.74120  0.76320  0.21840  Biso   1.000  H
  H13      1.0000 0.39890  0.06620  0.79760  Biso   1.000  H
  H14      1.0000 0.60110  0.93380  0.20240  Biso   1.000  H
  H15      1.0000 0.21780  0.08820  0.78720  Biso   1.000  H
  H16      1.0000 0.78220  0.91180  0.21280  Biso   1.000  H
  N5       1.0000 0.30870  0.52140  0.62050  Biso   1.000  N
  N6       1.0000 0.69130  0.47860  0.37950  Biso   1.000  N
  C11      1.0000 0.29840  0.55000  0.71110  Biso   1.000  C
  C12      1.0000 0.70160  0.45000  0.28890  Biso   1.000  C
  H17      1.0000 0.38660  0.56020  0.72890  Biso   1.000  H
  H18      1.0000 0.61340  0.43980  0.27110  Biso   1.000  H
  N7       1.0000 0.14990  0.56260  0.77390  Biso   1.000  N
  N8       1.0000 0.85010  0.43740  0.22610  Biso   1.000  N
  C13      1.0000 0.05770  0.54000  0.72370  Biso   1.000  C
  C14      1.0000 0.94230  0.46000  0.27630  Biso   1.000  C
  H19      1.0000 0.94650  0.54110  0.74990  Biso   1.000  H
  H20      1.0000 0.05350  0.45890  0.25010  Biso   1.000  H
  C15      1.0000 0.15510  0.51500  0.62770  Biso   1.000  C
  C16      1.0000 0.84490  0.48500  0.37230  Biso   1.000  C
  H21      1.0000 0.12280  0.49630  0.57480  Biso   1.000  H
  H22      1.0000 0.87720  0.50370  0.42520  Biso   1.000  H
  C17      1.0000 0.09390  0.59470  0.88220  Biso   1.000  C
  C18      1.0000 0.90610  0.40530  0.11780  Biso   1.000  C
  H23      1.0000 0.01740  0.54560  0.91150  Biso   1.000  H
  H24      1.0000 0.98260  0.45440  0.08850  Biso   1.000  H
  H25      1.0000 0.20010  0.54450  0.90220  Biso   1.000  H
  H26      1.0000 0.79990  0.45550  0.09780  Biso   1.000  H
  C19      1.0000 0.99570  0.76960  0.91810  Biso   1.000  C
  C20      1.0000 0.00430  0.23040  0.08190  Biso   1.000  C
  H27      1.0000 0.95810  0.78780  0.98900  Biso   1.000  H
  H28      1.0000 0.04190  0.21220  0.01100  Biso   1.000  H
  H29      1.0000 0.89090  0.81950  0.89790  Biso   1.000  H
  H30      1.0000 0.10910  0.18050  0.10210  Biso   1.000  H
  H31      1.0000 0.07290  0.81770  0.89100  Biso   1.000  H
  H32      1.0000 0.92710  0.18230  0.10900  Biso   1.000  H
  S1       1.0000 0.93550  0.16730  0.56290  Biso   1.000  S
  S2       1.0000 0.06450  0.83270  0.43710  Biso   1.000  S
  O1       1.0000 0.78300  0.22000  0.54150  Biso   1.000  O
  O2       1.0000 0.21700  0.78000  0.45850  Biso   1.000  O
  O3       1.0000 0.99650  0.27650  0.57760  Biso   1.000  O
  O4       1.0000 0.00350  0.72350  0.42240  Biso   1.000  O
  N9       1.0000 0.09530  0.00960  0.49900  Biso   1.000  N
  N10      1.0000 0.90470  0.99040  0.50100  Biso   1.000  N
  O5       1.0000 0.75300  0.27360  0.56330  Biso   1.000  O
  O6       1.0000 0.24700  0.72640  0.43670  Biso   1.000  O
  C21      1.0000 0.87750  0.10670  0.68260  Biso   1.000  C
  C22      1.0000 0.12250  0.89330  0.31740  Biso   1.000  C
  F1       1.0000 0.01070  0.05700  0.71400  Biso   1.000  F
  F2       1.0000 0.98930  0.94300  0.28600  Biso   1.000  F
  F3       1.0000 0.74150  0.23270  0.74080  Biso   1.000  F
  F4       1.0000 0.25850  0.76730  0.25920  Biso   1.000  F
  F5       1.0000 0.83500  0.99260  0.68330  Biso   1.000  F
  F6       1.0000 0.16500  0.00740  0.31670  Biso   1.000  F
  O7       1.0000 0.53860  0.43870  0.12070  Biso   1.000  O
  O8       1.0000 0.46140  0.56130  0.87930  Biso   1.000  O
  O9       1.0000 0.26500  0.45500  0.11300  Biso   1.000  O
  O10      1.0000 0.73500  0.54500  0.88700  Biso   1.000  O
  N11      1.0000 0.43860  0.52150  0.97520  Biso   1.000  N
  N12      1.0000 0.56140  0.47850  0.02480  Biso   1.000  N
  S3       1.0000 0.43700  0.43300  0.06700  Biso   1.000  S
  S4       1.0000 0.56300  0.56700  0.93300  Biso   1.000  S
  C23      1.0000 0.51500  0.21800  0.02220  Biso   1.000  C
  C24      1.0000 0.48500  0.78200  0.97780  Biso   1.000  C
  F7       1.0000 0.49000  0.18500  0.94260  Biso   1.000  F
  F8       1.0000 0.51000  0.81500  0.05740  Biso   1.000  F
  F9       1.0000 0.68600  0.13300  0.00900  Biso   1.000  F
  F10      1.0000 0.31400  0.86700  0.99100  Biso   1.000  F
  F11      1.0000 0.42200  0.17800  0.09560  Biso   1.000  F
  F12      1.0000 0.57800  0.82200  0.90440  Biso   1.000  F
  F13      1.0000 0.57900  0.16900  0.92790  Biso   1.000  F
  F14      1.0000 0.42100  0.83100  0.07210  Biso   1.000  F
  F15      1.0000 0.65000  0.15000  0.05500  Biso   1.000  F
  F16      1.0000 0.35000  0.85000  0.94500  Biso   1.000  F
  F17      1.0000 0.40100  0.16500  0.06270  Biso   1.000  F
  F18      1.0000 0.59900  0.83500  0.93730  Biso   1.000  F
  C25      1.0000 0.45000  0.77600  0.99270  Biso   1.000  C
  C26      1.0000 0.55000  0.22400  0.00730  Biso   1.000  C
  F19      1.0000 0.28300  0.82440  0.04490  Biso   1.000  F
  F20      1.0000 0.71700  0.17560  0.95510  Biso   1.000  F
  F21      1.0000 0.53900  0.77100  0.05060  Biso   1.000  F
  F22      1.0000 0.46100  0.22900  0.94940  Biso   1.000  F
  F23      1.0000 0.45200  0.88450  0.93540  Biso   1.000  F
  F24      1.0000 0.54800  0.11550  0.06460  Biso   1.000  F
  S5       1.0000 0.58000  0.57500  0.92400  Biso   1.000  S
  S6       1.0000 0.42000  0.42500  0.07600  Biso   1.000  S
  O11      1.0000 0.74600  0.49500  0.93510  Biso   1.000  O
  O12      1.0000 0.25400  0.50500  0.06490  Biso   1.000  O
  O13      1.0000 0.58500  0.58340  0.82690  Biso   1.000  O
  O14      1.0000 0.41500  0.41660  0.17310  Biso   1.000  O
  S7       1.0000 0.08740  0.87050  0.44330  Biso   1.000  S
  S8       1.0000 0.91260  0.12950  0.55670  Biso   1.000  S
  F25      1.0000 0.72350  0.08850  0.71720  Biso   1.000  F
  F26      1.0000 0.27650  0.91150  0.28280  Biso   1.000  F
  F27      1.0000 0.87960  0.19160  0.73610  Biso   1.000  F
  F28      1.0000 0.12040  0.80840  0.26390  Biso   1.000  F
  F29      1.0000 0.99930  0.94560  0.68370  Biso   1.000  F
  F30      1.0000 0.00070  0.05440  0.31630  Biso   1.000  F
  C27      1.0000 0.87560  0.08690  0.68140  Biso   1.000  C
  C28      1.0000 0.12440  0.91310  0.31860  Biso   1.000  C
  O15      1.0000 0.08130  0.12750  0.53130  Biso   1.000  O
  O16      1.0000 0.91870  0.87250  0.46870  Biso   1.000  O
