data_image0
_cell_length_a       11.426
_cell_length_b       11.292
_cell_length_c       9.3237
_cell_angle_alpha    90
_cell_angle_beta     91.239
_cell_angle_gamma    90

_symmetry_space_group_name_H-M    "P 1"
_symmetry_int_tables_number       1

loop_
  _symmetry_equiv_pos_as_xyz
  'x, y, z'

loop_
  _atom_site_label
  _atom_site_occupancy
  _atom_site_fract_x
  _atom_site_fract_y
  _atom_site_fract_z
  _atom_site_thermal_displace_type
  _atom_site_B_iso_or_equiv
  _atom_site_type_symbol
  Cu1      1.0000 0.69156  0.44096  0.16419  Biso   1.000  Cu
  Cu2      1.0000 0.30844  0.94096  0.33581  Biso   1.000  Cu
  Cu3      1.0000 0.30844  0.55904  0.83581  Biso   1.000  Cu
  Cu4      1.0000 0.69156  0.05904  0.66419  Biso   1.000  Cu
  S1       1.0000 0.41326  0.42576  0.17291  Biso   1.000  S
  S2       1.0000 0.58674  0.92576  0.32709  Biso   1.000  S
  S3       1.0000 0.58674  0.57424  0.82709  Biso   1.000  S
  S4       1.0000 0.41326  0.07424  0.67291  Biso   1.000  S
  O1       1.0000 0.52924  0.38809  0.12036  Biso   1.000  O
  O2       1.0000 0.47076  0.88809  0.37964  Biso   1.000  O
  O3       1.0000 0.47076  0.61191  0.87964  Biso   1.000  O
  O4       1.0000 0.52924  0.11191  0.62036  Biso   1.000  O
  O5       1.0000 0.37930  0.35852  0.29684  Biso   1.000  O
  O6       1.0000 0.62070  0.85852  0.20316  Biso   1.000  O
  O7       1.0000 0.62070  0.64148  0.70316  Biso   1.000  O
  O8       1.0000 0.37930  0.14148  0.79684  Biso   1.000  O
  O9       1.0000 0.32683  0.42319  0.05598  Biso   1.000  O
  O10      1.0000 0.67317  0.92319  0.44402  Biso   1.000  O
  O11      1.0000 0.67317  0.57681  0.94402  Biso   1.000  O
  O12      1.0000 0.32683  0.07681  0.55598  Biso   1.000  O
  N1       1.0000 0.75849  0.30920  0.05640  Biso   1.000  N
  N2       1.0000 0.24151  0.80920  0.44360  Biso   1.000  N
  N3       1.0000 0.24151  0.69080  0.94360  Biso   1.000  N
  N4       1.0000 0.75849  0.19080  0.55640  Biso   1.000  N
  N5       1.0000 0.71672  0.23415  0.98580  Biso   1.000  N
  N6       1.0000 0.28328  0.73415  0.51420  Biso   1.000  N
  N7       1.0000 0.28328  0.76585  0.01420  Biso   1.000  N
  N8       1.0000 0.71672  0.26585  0.48580  Biso   1.000  N
  N9       1.0000 0.68010  0.15730  0.91690  Biso   1.000  N
  N10      1.0000 0.31990  0.65730  0.58310  Biso   1.000  N
  N11      1.0000 0.31990  0.84270  0.08310  Biso   1.000  N
  N12      1.0000 0.68010  0.34270  0.41690  Biso   1.000  N
  N13      1.0000 0.64604  0.59051  0.26710  Biso   1.000  N
  N14      1.0000 0.35396  0.09051  0.23290  Biso   1.000  N
  N15      1.0000 0.35396  0.40949  0.73290  Biso   1.000  N
  N16      1.0000 0.64604  0.90949  0.76710  Biso   1.000  N
  N17      1.0000 0.85329  0.49761  0.22040  Biso   1.000  N
  N18      1.0000 0.14671  0.99761  0.27960  Biso   1.000  N
  N19      1.0000 0.14671  0.50239  0.77960  Biso   1.000  N
  N20      1.0000 0.85329  0.00239  0.72040  Biso   1.000  N
  C1       1.0000 0.43120  0.57496  0.22680  Biso   1.000  C
  C2       1.0000 0.56880  0.07496  0.27320  Biso   1.000  C
  C3       1.0000 0.56880  0.42504  0.77320  Biso   1.000  C
  C4       1.0000 0.43120  0.92504  0.72680  Biso   1.000  C
  H1       1.0000 0.44660  0.62300  0.14300  Biso   1.000  H
  H2       1.0000 0.55340  0.12300  0.35700  Biso   1.000  H
  H3       1.0000 0.55340  0.37700  0.85700  Biso   1.000  H
  H4       1.0000 0.44660  0.87700  0.64300  Biso   1.000  H
  H5       1.0000 0.35890  0.60280  0.26760  Biso   1.000  H
  H6       1.0000 0.64110  0.10280  0.23240  Biso   1.000  H
  H7       1.0000 0.64110  0.39720  0.73240  Biso   1.000  H
  H8       1.0000 0.35890  0.89720  0.76760  Biso   1.000  H
  C5       1.0000 0.53030  0.59160  0.33590  Biso   1.000  C
  C6       1.0000 0.46970  0.09160  0.16410  Biso   1.000  C
  C7       1.0000 0.46970  0.40840  0.66410  Biso   1.000  C
  C8       1.0000 0.53030  0.90840  0.83590  Biso   1.000  C
  H9       1.0000 0.52000  0.66630  0.38540  Biso   1.000  H
  H10      1.0000 0.48000  0.16630  0.11460  Biso   1.000  H
  H11      1.0000 0.48000  0.33370  0.61460  Biso   1.000  H
  H12      1.0000 0.52000  0.83370  0.88540  Biso   1.000  H
  H13      1.0000 0.52750  0.52860  0.40660  Biso   1.000  H
  H14      1.0000 0.47250  0.02860  0.09340  Biso   1.000  H
  H15      1.0000 0.47250  0.47140  0.59340  Biso   1.000  H
  H16      1.0000 0.52750  0.97140  0.90660  Biso   1.000  H
  C9       1.0000 0.73950  0.62120  0.37300  Biso   1.000  C
  C10      1.0000 0.26050  0.12120  0.12700  Biso   1.000  C
  C11      1.0000 0.26050  0.37880  0.62700  Biso   1.000  C
  C12      1.0000 0.73950  0.87880  0.87300  Biso   1.000  C
  H17      1.0000 0.72470  0.58180  0.46330  Biso   1.000  H
  H18      1.0000 0.27530  0.08180  0.03670  Biso   1.000  H
  H19      1.0000 0.27530  0.41820  0.53670  Biso   1.000  H
  H20      1.0000 0.72470  0.91820  0.96330  Biso   1.000  H
  H21      1.0000 0.73940  0.70600  0.38980  Biso   1.000  H
  H22      1.0000 0.26060  0.20600  0.11020  Biso   1.000  H
  H23      1.0000 0.26060  0.29400  0.61020  Biso   1.000  H
  H24      1.0000 0.73940  0.79400  0.88980  Biso   1.000  H
  C13      1.0000 0.85590  0.58410  0.31930  Biso   1.000  C
  C14      1.0000 0.14410  0.08410  0.18070  Biso   1.000  C
  C15      1.0000 0.14410  0.41590  0.68070  Biso   1.000  C
  C16      1.0000 0.85590  0.91590  0.81930  Biso   1.000  C
  C17      1.0000 0.95460  0.45590  0.17030  Biso   1.000  C
  C18      1.0000 0.04540  0.95590  0.32970  Biso   1.000  C
  C19      1.0000 0.04540  0.54410  0.82970  Biso   1.000  C
  C20      1.0000 0.95460  0.04410  0.67030  Biso   1.000  C
  H25      1.0000 0.95250  0.39570  0.10220  Biso   1.000  H
  H26      1.0000 0.04750  0.89570  0.39780  Biso   1.000  H
  H27      1.0000 0.04750  0.60430  0.89780  Biso   1.000  H
  H28      1.0000 0.95250  0.10430  0.60220  Biso   1.000  H
  C21      1.0000 0.06110  0.49920  0.21630  Biso   1.000  C
  C22      1.0000 0.93890  0.99920  0.28370  Biso   1.000  C
  C23      1.0000 0.93890  0.50080  0.78370  Biso   1.000  C
  C24      1.0000 0.06110  0.00080  0.71630  Biso   1.000  C
  H29      1.0000 0.13010  0.46920  0.17960  Biso   1.000  H
  H30      1.0000 0.86990  0.96920  0.32040  Biso   1.000  H
  H31      1.0000 0.86990  0.53080  0.82040  Biso   1.000  H
  H32      1.0000 0.13010  0.03080  0.67960  Biso   1.000  H
  C25      1.0000 0.06410  0.58650  0.31610  Biso   1.000  C
  C26      1.0000 0.93590  0.08650  0.18390  Biso   1.000  C
  C27      1.0000 0.93590  0.41350  0.68390  Biso   1.000  C
  C28      1.0000 0.06410  0.91350  0.81610  Biso   1.000  C
  H33      1.0000 0.13540  0.61660  0.34920  Biso   1.000  H
  H34      1.0000 0.86460  0.11660  0.15080  Biso   1.000  H
  H35      1.0000 0.86460  0.38340  0.65080  Biso   1.000  H
  H36      1.0000 0.13540  0.88340  0.84920  Biso   1.000  H
  C29      1.0000 0.96100  0.63040  0.36830  Biso   1.000  C
  C30      1.0000 0.03900  0.13040  0.13170  Biso   1.000  C
  C31      1.0000 0.03900  0.36960  0.63170  Biso   1.000  C
  C32      1.0000 0.96100  0.86960  0.86830  Biso   1.000  C
  H37      1.0000 0.96220  0.69080  0.43600  Biso   1.000  H
  H38      1.0000 0.03780  0.19080  0.06400  Biso   1.000  H
  H39      1.0000 0.03780  0.30920  0.56400  Biso   1.000  H
  H40      1.0000 0.96220  0.80920  0.93600  Biso   1.000  H
  H41      1.0000 0.64700  0.65000  0.19600  Biso   1.000  H
  H42      1.0000 0.35300  0.15000  0.30400  Biso   1.000  H
  H43      1.0000 0.35300  0.35000  0.80400  Biso   1.000  H
  H44      1.0000 0.64700  0.85000  0.69600  Biso   1.000  H
