data_image0
_cell_length_a       26.5
_cell_length_b       6.884
_cell_length_c       17.124
_cell_angle_alpha    90
_cell_angle_beta     125.609
_cell_angle_gamma    90

_symmetry_space_group_name_H-M    "P 1"
_symmetry_int_tables_number       1

loop_
  _symmetry_equiv_pos_as_xyz
  'x, y, z'

loop_
  _atom_site_label
  _atom_site_occupancy
  _atom_site_fract_x
  _atom_site_fract_y
  _atom_site_fract_z
  _atom_site_thermal_displace_type
  _atom_site_B_iso_or_equiv
  _atom_site_type_symbol
  Cu1      1.0000 0.24280  0.28673  0.24010  Biso   1.000  Cu
  Cu2      1.0000 0.74280  0.78673  0.24010  Biso   1.000  Cu
  Cu3      1.0000 0.75720  0.28673  0.25990  Biso   1.000  Cu
  Cu4      1.0000 0.25720  0.78673  0.25990  Biso   1.000  Cu
  Cu5      1.0000 0.75720  0.71327  0.75990  Biso   1.000  Cu
  Cu6      1.0000 0.25720  0.21327  0.75990  Biso   1.000  Cu
  Cu7      1.0000 0.24280  0.71327  0.74010  Biso   1.000  Cu
  Cu8      1.0000 0.74280  0.21327  0.74010  Biso   1.000  Cu
  N1       1.0000 0.20056  0.45260  0.12280  Biso   1.000  N
  N2       1.0000 0.70056  0.95260  0.12280  Biso   1.000  N
  N3       1.0000 0.79944  0.45260  0.37720  Biso   1.000  N
  N4       1.0000 0.29944  0.95260  0.37720  Biso   1.000  N
  N5       1.0000 0.79944  0.54740  0.87720  Biso   1.000  N
  N6       1.0000 0.29944  0.04740  0.87720  Biso   1.000  N
  N7       1.0000 0.20056  0.54740  0.62280  Biso   1.000  N
  N8       1.0000 0.70056  0.04740  0.62280  Biso   1.000  N
  N9       1.0000 0.21193  0.64570  0.13270  Biso   1.000  N
  N10      1.0000 0.71193  0.14570  0.13270  Biso   1.000  N
  N11      1.0000 0.78807  0.64570  0.36730  Biso   1.000  N
  N12      1.0000 0.28807  0.14570  0.36730  Biso   1.000  N
  N13      1.0000 0.78807  0.35430  0.86730  Biso   1.000  N
  N14      1.0000 0.28807  0.85430  0.86730  Biso   1.000  N
  N15      1.0000 0.21193  0.35430  0.63270  Biso   1.000  N
  N16      1.0000 0.71193  0.85430  0.63270  Biso   1.000  N
  N17      1.0000 0.18701  0.73730  0.04970  Biso   1.000  N
  N18      1.0000 0.68701  0.23730  0.04970  Biso   1.000  N
  N19      1.0000 0.81299  0.73730  0.45030  Biso   1.000  N
  N20      1.0000 0.31299  0.23730  0.45030  Biso   1.000  N
  N21      1.0000 0.81299  0.26270  0.95030  Biso   1.000  N
  N22      1.0000 0.31299  0.76270  0.95030  Biso   1.000  N
  N23      1.0000 0.18701  0.26270  0.54970  Biso   1.000  N
  N24      1.0000 0.68701  0.76270  0.54970  Biso   1.000  N
  N25      1.0000 0.16883  0.11960  0.19210  Biso   1.000  N
  N26      1.0000 0.66883  0.61960  0.19210  Biso   1.000  N
  N27      1.0000 0.83117  0.11960  0.30790  Biso   1.000  N
  N28      1.0000 0.33117  0.61960  0.30790  Biso   1.000  N
  N29      1.0000 0.83117  0.88040  0.80790  Biso   1.000  N
  N30      1.0000 0.33117  0.38040  0.80790  Biso   1.000  N
  N31      1.0000 0.16883  0.88040  0.69210  Biso   1.000  N
  N32      1.0000 0.66883  0.38040  0.69210  Biso   1.000  N
  N33      1.0000 0.17727  0.92900  0.21010  Biso   1.000  N
  N34      1.0000 0.67727  0.42900  0.21010  Biso   1.000  N
  N35      1.0000 0.82273  0.92900  0.28990  Biso   1.000  N
  N36      1.0000 0.32273  0.42900  0.28990  Biso   1.000  N
  N37      1.0000 0.82273  0.07100  0.78990  Biso   1.000  N
  N38      1.0000 0.32273  0.57100  0.78990  Biso   1.000  N
  N39      1.0000 0.17727  0.07100  0.71010  Biso   1.000  N
  N40      1.0000 0.67727  0.57100  0.71010  Biso   1.000  N
  N41      1.0000 0.12680  0.83390  0.18800  Biso   1.000  N
  N42      1.0000 0.62680  0.33390  0.18800  Biso   1.000  N
  N43      1.0000 0.87320  0.83390  0.31200  Biso   1.000  N
  N44      1.0000 0.37320  0.33390  0.31200  Biso   1.000  N
  N45      1.0000 0.87320  0.16610  0.81200  Biso   1.000  N
  N46      1.0000 0.37320  0.66610  0.81200  Biso   1.000  N
  N47      1.0000 0.12680  0.16610  0.68800  Biso   1.000  N
  N48      1.0000 0.62680  0.66610  0.68800  Biso   1.000  N
  O1       1.0000 0.22200  0.53890  0.32140  Biso   1.000  O
  O2       1.0000 0.72200  0.03890  0.32140  Biso   1.000  O
  O3       1.0000 0.77800  0.53890  0.17860  Biso   1.000  O
  O4       1.0000 0.27800  0.03890  0.17860  Biso   1.000  O
  O5       1.0000 0.77800  0.46110  0.67860  Biso   1.000  O
  O6       1.0000 0.27800  0.96110  0.67860  Biso   1.000  O
  O7       1.0000 0.22200  0.46110  0.82140  Biso   1.000  O
  O8       1.0000 0.72200  0.96110  0.82140  Biso   1.000  O
  H1       1.0000 0.23700  0.47810  0.37380  Biso   1.000  H
  H2       1.0000 0.73700  0.97810  0.37380  Biso   1.000  H
  H3       1.0000 0.76300  0.47810  0.12620  Biso   1.000  H
  H4       1.0000 0.26300  0.97810  0.12620  Biso   1.000  H
  H5       1.0000 0.76300  0.52190  0.62620  Biso   1.000  H
  H6       1.0000 0.26300  0.02190  0.62620  Biso   1.000  H
  H7       1.0000 0.23700  0.52190  0.87380  Biso   1.000  H
  H8       1.0000 0.73700  0.02190  0.87380  Biso   1.000  H
  H9       1.0000 0.18940  0.59730  0.30700  Biso   1.000  H
  H10      1.0000 0.68940  0.09730  0.30700  Biso   1.000  H
  H11      1.0000 0.81060  0.59730  0.19300  Biso   1.000  H
  H12      1.0000 0.31060  0.09730  0.19300  Biso   1.000  H
  H13      1.0000 0.81060  0.40270  0.69300  Biso   1.000  H
  H14      1.0000 0.31060  0.90270  0.69300  Biso   1.000  H
  H15      1.0000 0.18940  0.40270  0.80700  Biso   1.000  H
  H16      1.0000 0.68940  0.90270  0.80700  Biso   1.000  H
  C1       1.0000 0.16533  0.41680  0.02670  Biso   1.000  C
  C2       1.0000 0.66533  0.91680  0.02670  Biso   1.000  C
  C3       1.0000 0.83467  0.41680  0.47330  Biso   1.000  C
  C4       1.0000 0.33467  0.91680  0.47330  Biso   1.000  C
  C5       1.0000 0.83467  0.58320  0.97330  Biso   1.000  C
  C6       1.0000 0.33467  0.08320  0.97330  Biso   1.000  C
  C7       1.0000 0.16533  0.58320  0.52670  Biso   1.000  C
  C8       1.0000 0.66533  0.08320  0.52670  Biso   1.000  C
  C9       1.0000 0.15674  0.59350  0.98100  Biso   1.000  C
  C10      1.0000 0.65674  0.09350  0.98100  Biso   1.000  C
  C11      1.0000 0.84326  0.59350  0.51900  Biso   1.000  C
  C12      1.0000 0.34326  0.09350  0.51900  Biso   1.000  C
  C13      1.0000 0.84326  0.40650  0.01900  Biso   1.000  C
  C14      1.0000 0.34326  0.90650  0.01900  Biso   1.000  C
  C15      1.0000 0.15674  0.40650  0.48100  Biso   1.000  C
  C16      1.0000 0.65674  0.90650  0.48100  Biso   1.000  C
  C17      1.0000 0.12110  0.60540  0.88010  Biso   1.000  C
  C18      1.0000 0.62110  0.10540  0.88010  Biso   1.000  C
  C19      1.0000 0.87890  0.60540  0.61990  Biso   1.000  C
  C20      1.0000 0.37890  0.10540  0.61990  Biso   1.000  C
  C21      1.0000 0.87890  0.39460  0.11990  Biso   1.000  C
  C22      1.0000 0.37890  0.89460  0.11990  Biso   1.000  C
  C23      1.0000 0.12110  0.39460  0.38010  Biso   1.000  C
  C24      1.0000 0.62110  0.89460  0.38010  Biso   1.000  C
  H17      1.0000 0.11510  0.72280  0.84890  Biso   1.000  H
  H18      1.0000 0.61510  0.22280  0.84890  Biso   1.000  H
  H19      1.0000 0.88490  0.72280  0.65110  Biso   1.000  H
  H20      1.0000 0.38490  0.22280  0.65110  Biso   1.000  H
  H21      1.0000 0.88490  0.27720  0.15110  Biso   1.000  H
  H22      1.0000 0.38490  0.77720  0.15110  Biso   1.000  H
  H23      1.0000 0.11510  0.27720  0.34890  Biso   1.000  H
  H24      1.0000 0.61510  0.77720  0.34890  Biso   1.000  H
  C25      1.0000 0.09580  0.43710  0.83030  Biso   1.000  C
  C26      1.0000 0.59580  0.93710  0.83030  Biso   1.000  C
  C27      1.0000 0.90420  0.43710  0.66970  Biso   1.000  C
  C28      1.0000 0.40420  0.93710  0.66970  Biso   1.000  C
  C29      1.0000 0.90420  0.56290  0.16970  Biso   1.000  C
  C30      1.0000 0.40420  0.06290  0.16970  Biso   1.000  C
  C31      1.0000 0.09580  0.56290  0.33030  Biso   1.000  C
  C32      1.0000 0.59580  0.06290  0.33030  Biso   1.000  C
  H25      1.0000 0.07140  0.44070  0.76360  Biso   1.000  H
  H26      1.0000 0.57140  0.94070  0.76360  Biso   1.000  H
  H27      1.0000 0.92860  0.44070  0.73640  Biso   1.000  H
  H28      1.0000 0.42860  0.94070  0.73640  Biso   1.000  H
  H29      1.0000 0.92860  0.55930  0.23640  Biso   1.000  H
  H30      1.0000 0.42860  0.05930  0.23640  Biso   1.000  H
  H31      1.0000 0.07140  0.55930  0.26360  Biso   1.000  H
  H32      1.0000 0.57140  0.05930  0.26360  Biso   1.000  H
  C33      1.0000 0.10550  0.25680  0.87680  Biso   1.000  C
  C34      1.0000 0.60550  0.75680  0.87680  Biso   1.000  C
  C35      1.0000 0.89450  0.25680  0.62320  Biso   1.000  C
  C36      1.0000 0.39450  0.75680  0.62320  Biso   1.000  C
  C37      1.0000 0.89450  0.74320  0.12320  Biso   1.000  C
  C38      1.0000 0.39450  0.24320  0.12320  Biso   1.000  C
  C39      1.0000 0.10550  0.74320  0.37680  Biso   1.000  C
  C40      1.0000 0.60550  0.24320  0.37680  Biso   1.000  C
  H33      1.0000 0.08810  0.14520  0.83980  Biso   1.000  H
  H34      1.0000 0.58810  0.64520  0.83980  Biso   1.000  H
  H35      1.0000 0.91190  0.14520  0.66020  Biso   1.000  H
  H36      1.0000 0.41190  0.64520  0.66020  Biso   1.000  H
  H37      1.0000 0.91190  0.85480  0.16020  Biso   1.000  H
  H38      1.0000 0.41190  0.35480  0.16020  Biso   1.000  H
  H39      1.0000 0.08810  0.85480  0.33980  Biso   1.000  H
  H40      1.0000 0.58810  0.35480  0.33980  Biso   1.000  H
  C41      1.0000 0.13980  0.24190  0.97500  Biso   1.000  C
  C42      1.0000 0.63980  0.74190  0.97500  Biso   1.000  C
  C43      1.0000 0.86020  0.24190  0.52500  Biso   1.000  C
  C44      1.0000 0.36020  0.74190  0.52500  Biso   1.000  C
  C45      1.0000 0.86020  0.75810  0.02500  Biso   1.000  C
  C46      1.0000 0.36020  0.25810  0.02500  Biso   1.000  C
  C47      1.0000 0.13980  0.75810  0.47500  Biso   1.000  C
  C48      1.0000 0.63980  0.25810  0.47500  Biso   1.000  C
  H41      1.0000 0.14590  0.12370  0.00570  Biso   1.000  H
  H42      1.0000 0.64590  0.62370  0.00570  Biso   1.000  H
  H43      1.0000 0.85410  0.12370  0.49430  Biso   1.000  H
  H44      1.0000 0.35410  0.62370  0.49430  Biso   1.000  H
  H45      1.0000 0.85410  0.87630  0.99430  Biso   1.000  H
  H46      1.0000 0.35410  0.37630  0.99430  Biso   1.000  H
  H47      1.0000 0.14590  0.87630  0.50570  Biso   1.000  H
  H48      1.0000 0.64590  0.37630  0.50570  Biso   1.000  H
  C49      1.0000 0.10784  0.15510  0.15520  Biso   1.000  C
  C50      1.0000 0.60784  0.65510  0.15520  Biso   1.000  C
  C51      1.0000 0.89216  0.15510  0.34480  Biso   1.000  C
  C52      1.0000 0.39216  0.65510  0.34480  Biso   1.000  C
  C53      1.0000 0.89216  0.84490  0.84480  Biso   1.000  C
  C54      1.0000 0.39216  0.34490  0.84480  Biso   1.000  C
  C55      1.0000 0.10784  0.84490  0.65520  Biso   1.000  C
  C56      1.0000 0.60784  0.34490  0.65520  Biso   1.000  C
  C57      1.0000 0.08220  0.97600  0.15360  Biso   1.000  C
  C58      1.0000 0.58220  0.47600  0.15360  Biso   1.000  C
  C59      1.0000 0.91780  0.97600  0.34640  Biso   1.000  C
  C60      1.0000 0.41780  0.47600  0.34640  Biso   1.000  C
  C61      1.0000 0.91780  0.02400  0.84640  Biso   1.000  C
  C62      1.0000 0.41780  0.52400  0.84640  Biso   1.000  C
  C63      1.0000 0.08220  0.02400  0.65360  Biso   1.000  C
  C64      1.0000 0.58220  0.52400  0.65360  Biso   1.000  C
  C65      1.0000 0.01927  0.96020  0.11920  Biso   1.000  C
  C66      1.0000 0.51927  0.46020  0.11920  Biso   1.000  C
  C67      1.0000 0.98073  0.96020  0.38080  Biso   1.000  C
  C68      1.0000 0.48073  0.46020  0.38080  Biso   1.000  C
  C69      1.0000 0.98073  0.03980  0.88080  Biso   1.000  C
  C70      1.0000 0.48073  0.53980  0.88080  Biso   1.000  C
  C71      1.0000 0.01927  0.03980  0.61920  Biso   1.000  C
  C72      1.0000 0.51927  0.53980  0.61920  Biso   1.000  C
  H49      1.0000 0.00190  0.84190  0.11810  Biso   1.000  H
  H50      1.0000 0.50190  0.34190  0.11810  Biso   1.000  H
  H51      1.0000 0.99810  0.84190  0.38190  Biso   1.000  H
  H52      1.0000 0.49810  0.34190  0.38190  Biso   1.000  H
  H53      1.0000 0.99810  0.15810  0.88190  Biso   1.000  H
  H54      1.0000 0.49810  0.65810  0.88190  Biso   1.000  H
  H55      1.0000 0.00190  0.15810  0.61810  Biso   1.000  H
  H56      1.0000 0.50190  0.65810  0.61810  Biso   1.000  H
  C73      1.0000 0.98540  0.12710  0.08790  Biso   1.000  C
  C74      1.0000 0.48540  0.62710  0.08790  Biso   1.000  C
  C75      1.0000 0.01460  0.12710  0.41210  Biso   1.000  C
  C76      1.0000 0.51460  0.62710  0.41210  Biso   1.000  C
  C77      1.0000 0.01460  0.87290  0.91210  Biso   1.000  C
  C78      1.0000 0.51460  0.37290  0.91210  Biso   1.000  C
  C79      1.0000 0.98540  0.87290  0.58790  Biso   1.000  C
  C80      1.0000 0.48540  0.37290  0.58790  Biso   1.000  C
  H57      1.0000 0.94380  0.12220  0.06460  Biso   1.000  H
  H58      1.0000 0.44380  0.62220  0.06460  Biso   1.000  H
  H59      1.0000 0.05620  0.12220  0.43540  Biso   1.000  H
  H60      1.0000 0.55620  0.62220  0.43540  Biso   1.000  H
  H61      1.0000 0.05620  0.87780  0.93540  Biso   1.000  H
  H62      1.0000 0.55620  0.37780  0.93540  Biso   1.000  H
  H63      1.0000 0.94380  0.87780  0.56460  Biso   1.000  H
  H64      1.0000 0.44380  0.37780  0.56460  Biso   1.000  H
  C81      1.0000 0.01133  0.30700  0.08960  Biso   1.000  C
  C82      1.0000 0.51133  0.80700  0.08960  Biso   1.000  C
  C83      1.0000 0.98867  0.30700  0.41040  Biso   1.000  C
  C84      1.0000 0.48867  0.80700  0.41040  Biso   1.000  C
  C85      1.0000 0.98867  0.69300  0.91040  Biso   1.000  C
  C86      1.0000 0.48867  0.19300  0.91040  Biso   1.000  C
  C87      1.0000 0.01133  0.69300  0.58960  Biso   1.000  C
  C88      1.0000 0.51133  0.19300  0.58960  Biso   1.000  C
  H65      1.0000 0.98620  0.41690  0.06740  Biso   1.000  H
  H66      1.0000 0.48620  0.91690  0.06740  Biso   1.000  H
  H67      1.0000 0.01380  0.41690  0.43260  Biso   1.000  H
  H68      1.0000 0.51380  0.91690  0.43260  Biso   1.000  H
  H69      1.0000 0.01380  0.58310  0.93260  Biso   1.000  H
  H70      1.0000 0.51380  0.08310  0.93260  Biso   1.000  H
  H71      1.0000 0.98620  0.58310  0.56740  Biso   1.000  H
  H72      1.0000 0.48620  0.08310  0.56740  Biso   1.000  H
  C89      1.0000 0.07238  0.32560  0.12290  Biso   1.000  C
  C90      1.0000 0.57238  0.82560  0.12290  Biso   1.000  C
  C91      1.0000 0.92762  0.32560  0.37710  Biso   1.000  C
  C92      1.0000 0.42762  0.82560  0.37710  Biso   1.000  C
  C93      1.0000 0.92762  0.67440  0.87710  Biso   1.000  C
  C94      1.0000 0.42762  0.17440  0.87710  Biso   1.000  C
  C95      1.0000 0.07238  0.67440  0.62290  Biso   1.000  C
  C96      1.0000 0.57238  0.17440  0.62290  Biso   1.000  C
  H73      1.0000 0.08930  0.44480  0.12400  Biso   1.000  H
  H74      1.0000 0.58930  0.94480  0.12400  Biso   1.000  H
  H75      1.0000 0.91070  0.44480  0.37600  Biso   1.000  H
  H76      1.0000 0.41070  0.94480  0.37600  Biso   1.000  H
  H77      1.0000 0.91070  0.55520  0.87600  Biso   1.000  H
  H78      1.0000 0.41070  0.05520  0.87600  Biso   1.000  H
  H79      1.0000 0.08930  0.55520  0.62400  Biso   1.000  H
  H80      1.0000 0.58930  0.05520  0.62400  Biso   1.000  H
