data_image0
_cell_length_a       9.5237
_cell_length_b       9.8364
_cell_length_c       20.8937
_cell_angle_alpha    90
_cell_angle_beta     96.181
_cell_angle_gamma    90

_symmetry_space_group_name_H-M    "P 1"
_symmetry_int_tables_number       1

loop_
  _symmetry_equiv_pos_as_xyz
  'x, y, z'

loop_
  _atom_site_label
  _atom_site_occupancy
  _atom_site_fract_x
  _atom_site_fract_y
  _atom_site_fract_z
  _atom_site_thermal_displace_type
  _atom_site_B_iso_or_equiv
  _atom_site_type_symbol
  Mo1      1.0000 0.45992  0.19884  0.32852  Biso   1.000  Mo
  Mo2      1.0000 0.54008  0.69884  0.17148  Biso   1.000  Mo
  Mo3      1.0000 0.54008  0.80116  0.67148  Biso   1.000  Mo
  Mo4      1.0000 0.45992  0.30116  0.82852  Biso   1.000  Mo
  Cu1      1.0000 0.19036  0.12937  0.10410  Biso   1.000  Cu
  Cu2      1.0000 0.80964  0.62937  0.39590  Biso   1.000  Cu
  Cu3      1.0000 0.80964  0.87063  0.89590  Biso   1.000  Cu
  Cu4      1.0000 0.19036  0.37063  0.60410  Biso   1.000  Cu
  P1       1.0000 0.15781  0.12529  0.25329  Biso   1.000  P
  P2       1.0000 0.84219  0.62529  0.24671  Biso   1.000  P
  P3       1.0000 0.84219  0.87471  0.74671  Biso   1.000  P
  P4       1.0000 0.15781  0.37471  0.75329  Biso   1.000  P
  P5       1.0000 0.40864  0.99864  0.20537  Biso   1.000  P
  P6       1.0000 0.59136  0.49864  0.29463  Biso   1.000  P
  P7       1.0000 0.59136  0.00136  0.79463  Biso   1.000  P
  P8       1.0000 0.40864  0.50136  0.70537  Biso   1.000  P
  O1       1.0000 0.09390  0.13470  0.18423  Biso   1.000  O
  O2       1.0000 0.90610  0.63470  0.31577  Biso   1.000  O
  O3       1.0000 0.90610  0.86530  0.81577  Biso   1.000  O
  O4       1.0000 0.09390  0.36530  0.68423  Biso   1.000  O
  O5       1.0000 0.32960  0.99900  0.13828  Biso   1.000  O
  O6       1.0000 0.67040  0.49900  0.36172  Biso   1.000  O
  O7       1.0000 0.67040  0.00100  0.86172  Biso   1.000  O
  O8       1.0000 0.32960  0.50100  0.63828  Biso   1.000  O
  O9       1.0000 0.36850  0.02080  0.32545  Biso   1.000  O
  O10      1.0000 0.63150  0.52080  0.17455  Biso   1.000  O
  O11      1.0000 0.63150  0.97920  0.67455  Biso   1.000  O
  O12      1.0000 0.36850  0.47920  0.82545  Biso   1.000  O
  H1       1.0000 0.31510  0.01770  0.35550  Biso   1.000  H
  H2       1.0000 0.68490  0.51770  0.14450  Biso   1.000  H
  H3       1.0000 0.68490  0.98230  0.64450  Biso   1.000  H
  H4       1.0000 0.31510  0.48230  0.85550  Biso   1.000  H
  O13      1.0000 0.04160  0.10490  0.29981  Biso   1.000  O
  O14      1.0000 0.95840  0.60490  0.20019  Biso   1.000  O
  O15      1.0000 0.95840  0.89510  0.70019  Biso   1.000  O
  O16      1.0000 0.04160  0.39510  0.79981  Biso   1.000  O
  O17      1.0000 0.48520  0.12937  0.22547  Biso   1.000  O
  O18      1.0000 0.51480  0.62937  0.27453  Biso   1.000  O
  O19      1.0000 0.51480  0.87063  0.77453  Biso   1.000  O
  O20      1.0000 0.48520  0.37063  0.72547  Biso   1.000  O
  O21      1.0000 0.24800  0.24640  0.27772  Biso   1.000  O
  O22      1.0000 0.75200  0.74640  0.22228  Biso   1.000  O
  O23      1.0000 0.75200  0.75360  0.72228  Biso   1.000  O
  O24      1.0000 0.24800  0.25360  0.77772  Biso   1.000  O
  O25      1.0000 0.50940  0.87613  0.21367  Biso   1.000  O
  O26      1.0000 0.49060  0.37613  0.28633  Biso   1.000  O
  O27      1.0000 0.49060  0.12387  0.78633  Biso   1.000  O
  O28      1.0000 0.50940  0.62387  0.71367  Biso   1.000  O
  O29      1.0000 0.41310  0.25440  0.40004  Biso   1.000  O
  O30      1.0000 0.58690  0.75440  0.09996  Biso   1.000  O
  O31      1.0000 0.58690  0.74560  0.59996  Biso   1.000  O
  O32      1.0000 0.41310  0.24560  0.90004  Biso   1.000  O
  O33      1.0000 0.34160  0.30730  0.12948  Biso   1.000  O
  O34      1.0000 0.65840  0.80730  0.37052  Biso   1.000  O
  O35      1.0000 0.65840  0.69270  0.87052  Biso   1.000  O
  O36      1.0000 0.34160  0.19270  0.62948  Biso   1.000  O
  H5       1.0000 0.33260  0.33450  0.16740  Biso   1.000  H
  H6       1.0000 0.66740  0.83450  0.33260  Biso   1.000  H
  H7       1.0000 0.66740  0.66550  0.83260  Biso   1.000  H
  H8       1.0000 0.33260  0.16550  0.66740  Biso   1.000  H
  H9       1.0000 0.42610  0.28120  0.12740  Biso   1.000  H
  H10      1.0000 0.57390  0.78120  0.37260  Biso   1.000  H
  H11      1.0000 0.57390  0.71880  0.87260  Biso   1.000  H
  H12      1.0000 0.42610  0.21880  0.62740  Biso   1.000  H
  N1       1.0000 0.04770  0.24790  0.05575  Biso   1.000  N
  N2       1.0000 0.95230  0.74790  0.44425  Biso   1.000  N
  N3       1.0000 0.95230  0.75210  0.94425  Biso   1.000  N
  N4       1.0000 0.04770  0.25210  0.55575  Biso   1.000  N
  N5       1.0000 0.21070  0.06440  0.01453  Biso   1.000  N
  N6       1.0000 0.78930  0.56440  0.48547  Biso   1.000  N
  N7       1.0000 0.78930  0.93560  0.98547  Biso   1.000  N
  N8       1.0000 0.21070  0.43560  0.51453  Biso   1.000  N
  C1       1.0000 0.28490  0.98470  0.26616  Biso   1.000  C
  C2       1.0000 0.71510  0.48470  0.23384  Biso   1.000  C
  C3       1.0000 0.71510  0.01530  0.73384  Biso   1.000  C
  C4       1.0000 0.28490  0.51530  0.76616  Biso   1.000  C
  O37      1.0000 0.63100  0.15250  0.34801  Biso   1.000  O
  O38      1.0000 0.36900  0.65250  0.15199  Biso   1.000  O
  O39      1.0000 0.36900  0.84750  0.65199  Biso   1.000  O
  O40      1.0000 0.63100  0.34750  0.84801  Biso   1.000  O
  C5       1.0000 0.30120  0.96890  0.99874  Biso   1.000  C
  C6       1.0000 0.69880  0.46890  0.50126  Biso   1.000  C
  C7       1.0000 0.69880  0.03110  0.00126  Biso   1.000  C
  C8       1.0000 0.30120  0.53110  0.49874  Biso   1.000  C
  H13      1.0000 0.36660  0.93000  0.03190  Biso   1.000  H
  H14      1.0000 0.63340  0.43000  0.46810  Biso   1.000  H
  H15      1.0000 0.63340  0.07000  0.96810  Biso   1.000  H
  H16      1.0000 0.36660  0.57000  0.53190  Biso   1.000  H
  C9       1.0000 0.02440  0.22360  0.99185  Biso   1.000  C
  C10      1.0000 0.97560  0.72360  0.50815  Biso   1.000  C
  C11      1.0000 0.97560  0.77640  0.00815  Biso   1.000  C
  C12      1.0000 0.02440  0.27640  0.49185  Biso   1.000  C
  C13      1.0000 0.11860  0.11980  0.96815  Biso   1.000  C
  C14      1.0000 0.88140  0.61980  0.53185  Biso   1.000  C
  C15      1.0000 0.88140  0.88020  0.03185  Biso   1.000  C
  C16      1.0000 0.11860  0.38020  0.46815  Biso   1.000  C
  C17      1.0000 0.11700  0.08020  0.90473  Biso   1.000  C
  C18      1.0000 0.88300  0.58020  0.59527  Biso   1.000  C
  C19      1.0000 0.88300  0.91980  0.09527  Biso   1.000  C
  C20      1.0000 0.11700  0.41980  0.40473  Biso   1.000  C
  H17      1.0000 0.05130  0.12070  0.87210  Biso   1.000  H
  H18      1.0000 0.94870  0.62070  0.62790  Biso   1.000  H
  H19      1.0000 0.94870  0.87930  0.12790  Biso   1.000  H
  H20      1.0000 0.05130  0.37930  0.37210  Biso   1.000  H
  C21      1.0000 0.22020  0.84430  0.27022  Biso   1.000  C
  C22      1.0000 0.77980  0.34430  0.22978  Biso   1.000  C
  C23      1.0000 0.77980  0.15570  0.72978  Biso   1.000  C
  C24      1.0000 0.22020  0.65570  0.77022  Biso   1.000  C
  H21      1.0000 0.29430  0.77800  0.27690  Biso   1.000  H
  H22      1.0000 0.70570  0.27800  0.22310  Biso   1.000  H
  H23      1.0000 0.70570  0.22200  0.72310  Biso   1.000  H
  H24      1.0000 0.29430  0.72200  0.77690  Biso   1.000  H
  H25      1.0000 0.16340  0.84150  0.30550  Biso   1.000  H
  H26      1.0000 0.83660  0.34150  0.19450  Biso   1.000  H
  H27      1.0000 0.83660  0.15850  0.69450  Biso   1.000  H
  H28      1.0000 0.16340  0.65850  0.80550  Biso   1.000  H
  H29      1.0000 0.16230  0.82460  0.23080  Biso   1.000  H
  H30      1.0000 0.83770  0.32460  0.26920  Biso   1.000  H
  H31      1.0000 0.83770  0.17540  0.76920  Biso   1.000  H
  H32      1.0000 0.16230  0.67540  0.73080  Biso   1.000  H
  C25      1.0000 0.97140  0.34150  0.08238  Biso   1.000  C
  C26      1.0000 0.02860  0.84150  0.41762  Biso   1.000  C
  C27      1.0000 0.02860  0.65850  0.91762  Biso   1.000  C
  C28      1.0000 0.97140  0.15850  0.58238  Biso   1.000  C
  H33      1.0000 0.99200  0.36040  0.12750  Biso   1.000  H
  H34      1.0000 0.00800  0.86040  0.37250  Biso   1.000  H
  H35      1.0000 0.00800  0.63960  0.87250  Biso   1.000  H
  H36      1.0000 0.99200  0.13960  0.62750  Biso   1.000  H
  C29      1.0000 0.21010  0.98120  0.88876  Biso   1.000  C
  C30      1.0000 0.78990  0.48120  0.61124  Biso   1.000  C
  C31      1.0000 0.78990  0.01880  0.11124  Biso   1.000  C
  C32      1.0000 0.21010  0.51880  0.38876  Biso   1.000  C
  H37      1.0000 0.20960  0.95170  0.84490  Biso   1.000  H
  H38      1.0000 0.79040  0.45170  0.65510  Biso   1.000  H
  H39      1.0000 0.79040  0.04830  0.15510  Biso   1.000  H
  H40      1.0000 0.20960  0.54830  0.34490  Biso   1.000  H
  C33      1.0000 0.91810  0.29180  0.95382  Biso   1.000  C
  C34      1.0000 0.08190  0.79180  0.54618  Biso   1.000  C
  C35      1.0000 0.08190  0.70820  0.04618  Biso   1.000  C
  C36      1.0000 0.91810  0.20820  0.45382  Biso   1.000  C
  H41      1.0000 0.90160  0.27340  0.90850  Biso   1.000  H
  H42      1.0000 0.09840  0.77340  0.59150  Biso   1.000  H
  H43      1.0000 0.09840  0.72660  0.09150  Biso   1.000  H
  H44      1.0000 0.90160  0.22660  0.40850  Biso   1.000  H
  C37      1.0000 0.83610  0.38600  0.98218  Biso   1.000  C
  C38      1.0000 0.16390  0.88600  0.51782  Biso   1.000  C
  C39      1.0000 0.16390  0.61400  0.01782  Biso   1.000  C
  C40      1.0000 0.83610  0.11400  0.48218  Biso   1.000  C
  H45      1.0000 0.76070  0.43230  0.95680  Biso   1.000  H
  H46      1.0000 0.23930  0.93230  0.54320  Biso   1.000  H
  H47      1.0000 0.23930  0.56770  0.04320  Biso   1.000  H
  H48      1.0000 0.76070  0.06770  0.45680  Biso   1.000  H
  C41      1.0000 0.30340  0.92530  0.93595  Biso   1.000  C
  C42      1.0000 0.69660  0.42530  0.56405  Biso   1.000  C
  C43      1.0000 0.69660  0.07470  0.06405  Biso   1.000  C
  C44      1.0000 0.30340  0.57470  0.43595  Biso   1.000  C
  H49      1.0000 0.36940  0.85720  0.92550  Biso   1.000  H
  H50      1.0000 0.63060  0.35720  0.57450  Biso   1.000  H
  H51      1.0000 0.63060  0.14280  0.07450  Biso   1.000  H
  H52      1.0000 0.36940  0.64280  0.42550  Biso   1.000  H
  C45      1.0000 0.86340  0.41300  0.04698  Biso   1.000  C
  C46      1.0000 0.13660  0.91300  0.45302  Biso   1.000  C
  C47      1.0000 0.13660  0.58700  0.95302  Biso   1.000  C
  C48      1.0000 0.86340  0.08700  0.54698  Biso   1.000  C
  H53      1.0000 0.80920  0.47950  0.06730  Biso   1.000  H
  H54      1.0000 0.19080  0.97950  0.43270  Biso   1.000  H
  H55      1.0000 0.19080  0.52050  0.93270  Biso   1.000  H
  H56      1.0000 0.80920  0.02050  0.56730  Biso   1.000  H
  O41      1.0000 0.80380  0.99450  0.27416  Biso   1.000  O
  O42      1.0000 0.19620  0.49450  0.22584  Biso   1.000  O
  O43      1.0000 0.19620  0.00550  0.72584  Biso   1.000  O
  O44      1.0000 0.80380  0.50550  0.77416  Biso   1.000  O
  H57      1.0000 0.76630  0.03160  0.30490  Biso   1.000  H
  H58      1.0000 0.23370  0.53160  0.19510  Biso   1.000  H
  H59      1.0000 0.23370  0.96840  0.69510  Biso   1.000  H
  H60      1.0000 0.76630  0.46840  0.80490  Biso   1.000  H
  H61      1.0000 0.88730  0.96930  0.28740  Biso   1.000  H
  H62      1.0000 0.11270  0.46930  0.21260  Biso   1.000  H
  H63      1.0000 0.11270  0.03070  0.71260  Biso   1.000  H
  H64      1.0000 0.88730  0.53070  0.78740  Biso   1.000  H
  O45      1.0000 0.46220  0.37300  0.02051  Biso   1.000  O
  O46      1.0000 0.53780  0.87300  0.47949  Biso   1.000  O
  O47      1.0000 0.53780  0.62700  0.97949  Biso   1.000  O
  O48      1.0000 0.46220  0.12700  0.52051  Biso   1.000  O
  H65      1.0000 0.46220  0.35120  0.98110  Biso   1.000  H
  H66      1.0000 0.53780  0.85120  0.51890  Biso   1.000  H
  H67      1.0000 0.53780  0.64880  0.01890  Biso   1.000  H
  H68      1.0000 0.46220  0.14880  0.48110  Biso   1.000  H
  H69      1.0000 0.43600  0.45520  0.02310  Biso   1.000  H
  H70      1.0000 0.56400  0.95520  0.47690  Biso   1.000  H
  H71      1.0000 0.56400  0.54480  0.97690  Biso   1.000  H
  H72      1.0000 0.43600  0.04480  0.52310  Biso   1.000  H
