data_image0
_cell_length_a       18.5961
_cell_length_b       18.5961
_cell_length_c       38.21
_cell_angle_alpha    90
_cell_angle_beta     90
_cell_angle_gamma    120

_symmetry_space_group_name_H-M    "P 1"
_symmetry_int_tables_number       1

loop_
  _symmetry_equiv_pos_as_xyz
  'x, y, z'

loop_
  _atom_site_label
  _atom_site_occupancy
  _atom_site_fract_x
  _atom_site_fract_y
  _atom_site_fract_z
  _atom_site_thermal_displace_type
  _atom_site_B_iso_or_equiv
  _atom_site_type_symbol
  Cu1      1.0000 0.19030  0.38060  0.30475  Biso   1.000  Cu
  Cu2      1.0000 0.61940  0.80970  0.30475  Biso   1.000  Cu
  Cu3      1.0000 0.19030  0.80970  0.30475  Biso   1.000  Cu
  Cu4      1.0000 0.38060  0.19030  0.69525  Biso   1.000  Cu
  Cu5      1.0000 0.80970  0.61940  0.69525  Biso   1.000  Cu
  Cu6      1.0000 0.80970  0.19030  0.69525  Biso   1.000  Cu
  Cu7      1.0000 0.85696  0.71393  0.63809  Biso   1.000  Cu
  Cu8      1.0000 0.28607  0.14303  0.63809  Biso   1.000  Cu
  Cu9      1.0000 0.85697  0.14304  0.63809  Biso   1.000  Cu
  Cu10     1.0000 0.04727  0.52363  0.02858  Biso   1.000  Cu
  Cu11     1.0000 0.47636  0.95273  0.02858  Biso   1.000  Cu
  Cu12     1.0000 0.47637  0.52364  0.02858  Biso   1.000  Cu
  Cu13     1.0000 0.52363  0.04727  0.97142  Biso   1.000  Cu
  Cu14     1.0000 0.95273  0.47636  0.97142  Biso   1.000  Cu
  Cu15     1.0000 0.52364  0.47637  0.97142  Biso   1.000  Cu
  Cu16     1.0000 0.71393  0.85696  0.36191  Biso   1.000  Cu
  Cu17     1.0000 0.14303  0.28607  0.36191  Biso   1.000  Cu
  Cu18     1.0000 0.14304  0.85697  0.36191  Biso   1.000  Cu
  O1       1.0000 0.22510  0.45020  0.25732  Biso   1.000  O
  O2       1.0000 0.54980  0.77490  0.25732  Biso   1.000  O
  O3       1.0000 0.22510  0.77490  0.25732  Biso   1.000  O
  O4       1.0000 0.45020  0.22510  0.74268  Biso   1.000  O
  O5       1.0000 0.77490  0.54980  0.74268  Biso   1.000  O
  O6       1.0000 0.77490  0.22510  0.74268  Biso   1.000  O
  O7       1.0000 0.89177  0.78353  0.59065  Biso   1.000  O
  O8       1.0000 0.21647  0.10823  0.59065  Biso   1.000  O
  O9       1.0000 0.89177  0.10823  0.59065  Biso   1.000  O
  O10      1.0000 0.11687  0.55843  0.07601  Biso   1.000  O
  O11      1.0000 0.44157  0.88313  0.07601  Biso   1.000  O
  O12      1.0000 0.44157  0.55843  0.07601  Biso   1.000  O
  O13      1.0000 0.55843  0.11687  0.92399  Biso   1.000  O
  O14      1.0000 0.88313  0.44157  0.92399  Biso   1.000  O
  O15      1.0000 0.55843  0.44157  0.92399  Biso   1.000  O
  O16      1.0000 0.78353  0.89177  0.40935  Biso   1.000  O
  O17      1.0000 0.10823  0.21647  0.40935  Biso   1.000  O
  O18      1.0000 0.10823  0.89177  0.40935  Biso   1.000  O
  H1       1.0000 0.20470  0.40900  0.24300  Biso   1.000  H
  H2       1.0000 0.59100  0.79570  0.24300  Biso   1.000  H
  H3       1.0000 0.20430  0.79530  0.24300  Biso   1.000  H
  H4       1.0000 0.40900  0.20470  0.75700  Biso   1.000  H
  H5       1.0000 0.79570  0.59100  0.75700  Biso   1.000  H
  H6       1.0000 0.79530  0.20430  0.75700  Biso   1.000  H
  H7       1.0000 0.87137  0.74233  0.57633  Biso   1.000  H
  H8       1.0000 0.25767  0.12903  0.57633  Biso   1.000  H
  H9       1.0000 0.87097  0.12863  0.57633  Biso   1.000  H
  H10      1.0000 0.07567  0.53803  0.09033  Biso   1.000  H
  H11      1.0000 0.46237  0.92433  0.09033  Biso   1.000  H
  H12      1.0000 0.46197  0.53763  0.09033  Biso   1.000  H
  H13      1.0000 0.53803  0.07567  0.90967  Biso   1.000  H
  H14      1.0000 0.92433  0.46237  0.90967  Biso   1.000  H
  H15      1.0000 0.53763  0.46197  0.90967  Biso   1.000  H
  H16      1.0000 0.74233  0.87137  0.42367  Biso   1.000  H
  H17      1.0000 0.12903  0.25767  0.42367  Biso   1.000  H
  H18      1.0000 0.12863  0.87097  0.42367  Biso   1.000  H
  H19      1.0000 0.25070  0.50140  0.25100  Biso   1.000  H
  H20      1.0000 0.49860  0.74930  0.25100  Biso   1.000  H
  H21      1.0000 0.25070  0.74930  0.25100  Biso   1.000  H
  H22      1.0000 0.50140  0.25070  0.74900  Biso   1.000  H
  H23      1.0000 0.74930  0.49860  0.74900  Biso   1.000  H
  H24      1.0000 0.74930  0.25070  0.74900  Biso   1.000  H
  H25      1.0000 0.91737  0.83473  0.58433  Biso   1.000  H
  H26      1.0000 0.16527  0.08263  0.58433  Biso   1.000  H
  H27      1.0000 0.91737  0.08263  0.58433  Biso   1.000  H
  H28      1.0000 0.16807  0.58403  0.08233  Biso   1.000  H
  H29      1.0000 0.41597  0.83193  0.08233  Biso   1.000  H
  H30      1.0000 0.41597  0.58403  0.08233  Biso   1.000  H
  H31      1.0000 0.58403  0.16807  0.91767  Biso   1.000  H
  H32      1.0000 0.83193  0.41597  0.91767  Biso   1.000  H
  H33      1.0000 0.58403  0.41597  0.91767  Biso   1.000  H
  H34      1.0000 0.83473  0.91737  0.41567  Biso   1.000  H
  H35      1.0000 0.08263  0.16527  0.41567  Biso   1.000  H
  H36      1.0000 0.08263  0.91737  0.41567  Biso   1.000  H
  O19      1.0000 0.10906  0.36408  0.37783  Biso   1.000  O
  O20      1.0000 0.63592  0.74498  0.37783  Biso   1.000  O
  O21      1.0000 0.25502  0.89094  0.37783  Biso   1.000  O
  O22      1.0000 0.36408  0.10906  0.62217  Biso   1.000  O
  O23      1.0000 0.74498  0.63592  0.62217  Biso   1.000  O
  O24      1.0000 0.89094  0.25502  0.62217  Biso   1.000  O
  O25      1.0000 0.77573  0.69741  0.71116  Biso   1.000  O
  O26      1.0000 0.30259  0.07831  0.71116  Biso   1.000  O
  O27      1.0000 0.92169  0.22427  0.71116  Biso   1.000  O
  O28      1.0000 0.03075  0.44239  0.95550  Biso   1.000  O
  O29      1.0000 0.41165  0.96925  0.95550  Biso   1.000  O
  O30      1.0000 0.55761  0.58835  0.95550  Biso   1.000  O
  O31      1.0000 0.44239  0.03075  0.04450  Biso   1.000  O
  O32      1.0000 0.96925  0.41165  0.04450  Biso   1.000  O
  O33      1.0000 0.58835  0.55761  0.04450  Biso   1.000  O
  O34      1.0000 0.69741  0.77573  0.28884  Biso   1.000  O
  O35      1.0000 0.07831  0.30259  0.28884  Biso   1.000  O
  O36      1.0000 0.22427  0.92169  0.28884  Biso   1.000  O
  O37      1.0000 0.89094  0.63592  0.62217  Biso   1.000  O
  O38      1.0000 0.36408  0.25502  0.62217  Biso   1.000  O
  O39      1.0000 0.74498  0.10906  0.62217  Biso   1.000  O
  O40      1.0000 0.63592  0.89094  0.37783  Biso   1.000  O
  O41      1.0000 0.25502  0.36408  0.37783  Biso   1.000  O
  O42      1.0000 0.10906  0.74498  0.37783  Biso   1.000  O
  O43      1.0000 0.55761  0.96925  0.95550  Biso   1.000  O
  O44      1.0000 0.03075  0.58835  0.95550  Biso   1.000  O
  O45      1.0000 0.41165  0.44239  0.95550  Biso   1.000  O
  O46      1.0000 0.30259  0.22427  0.71116  Biso   1.000  O
  O47      1.0000 0.92169  0.69741  0.71116  Biso   1.000  O
  O48      1.0000 0.77573  0.07831  0.71116  Biso   1.000  O
  O49      1.0000 0.22427  0.30259  0.28884  Biso   1.000  O
  O50      1.0000 0.69741  0.92169  0.28884  Biso   1.000  O
  O51      1.0000 0.07831  0.77573  0.28884  Biso   1.000  O
  O52      1.0000 0.96925  0.55761  0.04450  Biso   1.000  O
  O53      1.0000 0.58835  0.03075  0.04450  Biso   1.000  O
  O54      1.0000 0.44239  0.41165  0.04450  Biso   1.000  O
  O55      1.0000 0.14880  0.44416  0.32968  Biso   1.000  O
  O56      1.0000 0.55584  0.70464  0.32968  Biso   1.000  O
  O57      1.0000 0.29536  0.85120  0.32968  Biso   1.000  O
  O58      1.0000 0.44416  0.14880  0.67032  Biso   1.000  O
  O59      1.0000 0.70464  0.55584  0.67032  Biso   1.000  O
  O60      1.0000 0.85120  0.29536  0.67032  Biso   1.000  O
  O61      1.0000 0.81547  0.77749  0.66301  Biso   1.000  O
  O62      1.0000 0.22251  0.03797  0.66301  Biso   1.000  O
  O63      1.0000 0.96203  0.18453  0.66301  Biso   1.000  O
  O64      1.0000 0.11083  0.48213  0.00365  Biso   1.000  O
  O65      1.0000 0.37131  0.88917  0.00365  Biso   1.000  O
  O66      1.0000 0.51787  0.62869  0.00365  Biso   1.000  O
  O67      1.0000 0.48213  0.11083  0.99635  Biso   1.000  O
  O68      1.0000 0.88917  0.37131  0.99635  Biso   1.000  O
  O69      1.0000 0.62869  0.51787  0.99635  Biso   1.000  O
  O70      1.0000 0.77749  0.81547  0.33699  Biso   1.000  O
  O71      1.0000 0.03797  0.22251  0.33699  Biso   1.000  O
  O72      1.0000 0.18453  0.96203  0.33699  Biso   1.000  O
  O73      1.0000 0.85120  0.55584  0.67032  Biso   1.000  O
  O74      1.0000 0.44416  0.29536  0.67032  Biso   1.000  O
  O75      1.0000 0.70464  0.14880  0.67032  Biso   1.000  O
  O76      1.0000 0.55584  0.85120  0.32968  Biso   1.000  O
  O77      1.0000 0.29536  0.44416  0.32968  Biso   1.000  O
  O78      1.0000 0.14880  0.70464  0.32968  Biso   1.000  O
  O79      1.0000 0.51787  0.88917  0.00365  Biso   1.000  O
  O80      1.0000 0.11083  0.62869  0.00365  Biso   1.000  O
  O81      1.0000 0.37131  0.48213  0.00365  Biso   1.000  O
  O82      1.0000 0.22251  0.18453  0.66301  Biso   1.000  O
  O83      1.0000 0.96203  0.77749  0.66301  Biso   1.000  O
  O84      1.0000 0.81547  0.03797  0.66301  Biso   1.000  O
  O85      1.0000 0.18453  0.22251  0.33699  Biso   1.000  O
  O86      1.0000 0.77749  0.96203  0.33699  Biso   1.000  O
  O87      1.0000 0.03797  0.81547  0.33699  Biso   1.000  O
  O88      1.0000 0.88917  0.51787  0.99635  Biso   1.000  O
  O89      1.0000 0.62869  0.11083  0.99635  Biso   1.000  O
  O90      1.0000 0.48213  0.37131  0.99635  Biso   1.000  O
  C1       1.0000 0.12030  0.42650  0.36028  Biso   1.000  C
  C2       1.0000 0.57350  0.69380  0.36028  Biso   1.000  C
  C3       1.0000 0.30620  0.87970  0.36028  Biso   1.000  C
  C4       1.0000 0.42650  0.12030  0.63972  Biso   1.000  C
  C5       1.0000 0.69380  0.57350  0.63972  Biso   1.000  C
  C6       1.0000 0.87970  0.30620  0.63972  Biso   1.000  C
  C7       1.0000 0.78697  0.75983  0.69361  Biso   1.000  C
  C8       1.0000 0.24017  0.02713  0.69361  Biso   1.000  C
  C9       1.0000 0.97287  0.21303  0.69361  Biso   1.000  C
  C10      1.0000 0.09317  0.45363  0.97305  Biso   1.000  C
  C11      1.0000 0.36047  0.90683  0.97305  Biso   1.000  C
  C12      1.0000 0.54637  0.63953  0.97305  Biso   1.000  C
  C13      1.0000 0.45363  0.09317  0.02695  Biso   1.000  C
  C14      1.0000 0.90683  0.36047  0.02695  Biso   1.000  C
  C15      1.0000 0.63953  0.54637  0.02695  Biso   1.000  C
  C16      1.0000 0.75983  0.78697  0.30639  Biso   1.000  C
  C17      1.0000 0.02713  0.24017  0.30639  Biso   1.000  C
  C18      1.0000 0.21303  0.97287  0.30639  Biso   1.000  C
  C19      1.0000 0.87970  0.57350  0.63972  Biso   1.000  C
  C20      1.0000 0.42650  0.30620  0.63972  Biso   1.000  C
  C21      1.0000 0.69380  0.12030  0.63972  Biso   1.000  C
  C22      1.0000 0.57350  0.87970  0.36028  Biso   1.000  C
  C23      1.0000 0.30620  0.42650  0.36028  Biso   1.000  C
  C24      1.0000 0.12030  0.69380  0.36028  Biso   1.000  C
  C25      1.0000 0.54637  0.90683  0.97305  Biso   1.000  C
  C26      1.0000 0.09317  0.63953  0.97305  Biso   1.000  C
  C27      1.0000 0.36047  0.45363  0.97305  Biso   1.000  C
  C28      1.0000 0.24017  0.21303  0.69361  Biso   1.000  C
  C29      1.0000 0.97287  0.75983  0.69361  Biso   1.000  C
  C30      1.0000 0.78697  0.02713  0.69361  Biso   1.000  C
  C31      1.0000 0.21303  0.24017  0.30639  Biso   1.000  C
  C32      1.0000 0.75983  0.97287  0.30639  Biso   1.000  C
  C33      1.0000 0.02713  0.78697  0.30639  Biso   1.000  C
  C34      1.0000 0.90683  0.54637  0.02695  Biso   1.000  C
  C35      1.0000 0.63953  0.09317  0.02695  Biso   1.000  C
  C36      1.0000 0.45363  0.36047  0.02695  Biso   1.000  C
  C37      1.0000 0.09880  0.48490  0.37756  Biso   1.000  C
  C38      1.0000 0.51510  0.61390  0.37756  Biso   1.000  C
  C39      1.0000 0.38610  0.90120  0.37756  Biso   1.000  C
  C40      1.0000 0.48490  0.09880  0.62244  Biso   1.000  C
  C41      1.0000 0.61390  0.51510  0.62244  Biso   1.000  C
  C42      1.0000 0.90120  0.38610  0.62244  Biso   1.000  C
  C43      1.0000 0.76547  0.81823  0.71089  Biso   1.000  C
  C44      1.0000 0.18177  0.94723  0.71089  Biso   1.000  C
  C45      1.0000 0.05277  0.23453  0.71089  Biso   1.000  C
  C46      1.0000 0.15157  0.43213  0.95577  Biso   1.000  C
  C47      1.0000 0.28057  0.84843  0.95577  Biso   1.000  C
  C48      1.0000 0.56787  0.71943  0.95577  Biso   1.000  C
  C49      1.0000 0.43213  0.15157  0.04423  Biso   1.000  C
  C50      1.0000 0.84843  0.28057  0.04423  Biso   1.000  C
  C51      1.0000 0.71943  0.56787  0.04423  Biso   1.000  C
  C52      1.0000 0.81823  0.76547  0.28911  Biso   1.000  C
  C53      1.0000 0.94723  0.18177  0.28911  Biso   1.000  C
  C54      1.0000 0.23453  0.05277  0.28911  Biso   1.000  C
  C55      1.0000 0.90120  0.51510  0.62244  Biso   1.000  C
  C56      1.0000 0.48490  0.38610  0.62244  Biso   1.000  C
  C57      1.0000 0.61390  0.09880  0.62244  Biso   1.000  C
  C58      1.0000 0.51510  0.90120  0.37756  Biso   1.000  C
  C59      1.0000 0.38610  0.48490  0.37756  Biso   1.000  C
  C60      1.0000 0.09880  0.61390  0.37756  Biso   1.000  C
  C61      1.0000 0.56787  0.84843  0.95577  Biso   1.000  C
  C62      1.0000 0.15157  0.71943  0.95577  Biso   1.000  C
  C63      1.0000 0.28057  0.43213  0.95577  Biso   1.000  C
  C64      1.0000 0.18177  0.23453  0.71089  Biso   1.000  C
  C65      1.0000 0.05277  0.81823  0.71089  Biso   1.000  C
  C66      1.0000 0.76547  0.94723  0.71089  Biso   1.000  C
  C67      1.0000 0.23453  0.18177  0.28911  Biso   1.000  C
  C68      1.0000 0.81823  0.05277  0.28911  Biso   1.000  C
  C69      1.0000 0.94723  0.76547  0.28911  Biso   1.000  C
  C70      1.0000 0.84843  0.56787  0.04423  Biso   1.000  C
  C71      1.0000 0.71943  0.15157  0.04423  Biso   1.000  C
  C72      1.0000 0.43213  0.28057  0.04423  Biso   1.000  C
  C73      1.0000 0.11440  0.55722  0.36091  Biso   1.000  C
  C74      1.0000 0.44278  0.55718  0.36091  Biso   1.000  C
  C75      1.0000 0.44282  0.88560  0.36091  Biso   1.000  C
  C76      1.0000 0.55722  0.11440  0.63909  Biso   1.000  C
  C77      1.0000 0.55718  0.44278  0.63909  Biso   1.000  C
  C78      1.0000 0.88560  0.44282  0.63909  Biso   1.000  C
  C79      1.0000 0.78107  0.89055  0.69424  Biso   1.000  C
  C80      1.0000 0.10945  0.89051  0.69424  Biso   1.000  C
  C81      1.0000 0.10949  0.21893  0.69424  Biso   1.000  C
  C82      1.0000 0.22389  0.44773  0.97242  Biso   1.000  C
  C83      1.0000 0.22385  0.77611  0.97242  Biso   1.000  C
  C84      1.0000 0.55227  0.77615  0.97242  Biso   1.000  C
  C85      1.0000 0.44773  0.22389  0.02758  Biso   1.000  C
  C86      1.0000 0.77611  0.22385  0.02758  Biso   1.000  C
  C87      1.0000 0.77615  0.55227  0.02758  Biso   1.000  C
  C88      1.0000 0.89055  0.78107  0.30576  Biso   1.000  C
  C89      1.0000 0.89051  0.10945  0.30576  Biso   1.000  C
  C90      1.0000 0.21893  0.10949  0.30576  Biso   1.000  C
  H37      1.0000 0.13570  0.56790  0.33830  Biso   1.000  H
  H38      1.0000 0.43210  0.56780  0.33830  Biso   1.000  H
  H39      1.0000 0.43220  0.86430  0.33830  Biso   1.000  H
  H40      1.0000 0.56790  0.13570  0.66170  Biso   1.000  H
  H41      1.0000 0.56780  0.43210  0.66170  Biso   1.000  H
  H42      1.0000 0.86430  0.43220  0.66170  Biso   1.000  H
  H43      1.0000 0.80237  0.90123  0.67163  Biso   1.000  H
  H44      1.0000 0.09877  0.90113  0.67163  Biso   1.000  H
  H45      1.0000 0.09887  0.19763  0.67163  Biso   1.000  H
  H46      1.0000 0.23457  0.46903  0.99503  Biso   1.000  H
  H47      1.0000 0.23447  0.76543  0.99503  Biso   1.000  H
  H48      1.0000 0.53097  0.76553  0.99503  Biso   1.000  H
  H49      1.0000 0.46903  0.23457  0.00497  Biso   1.000  H
  H50      1.0000 0.76543  0.23447  0.00497  Biso   1.000  H
  H51      1.0000 0.76553  0.53097  0.00497  Biso   1.000  H
  H52      1.0000 0.90123  0.80237  0.32837  Biso   1.000  H
  H53      1.0000 0.90113  0.09877  0.32837  Biso   1.000  H
  H54      1.0000 0.19763  0.09887  0.32837  Biso   1.000  H
  C91      1.0000 0.06830  0.47010  0.41161  Biso   1.000  C
  C92      1.0000 0.52990  0.59820  0.41161  Biso   1.000  C
  C93      1.0000 0.40180  0.93170  0.41161  Biso   1.000  C
  C94      1.0000 0.47010  0.06830  0.58839  Biso   1.000  C
  C95      1.0000 0.59820  0.52990  0.58839  Biso   1.000  C
  C96      1.0000 0.93170  0.40180  0.58839  Biso   1.000  C
  C97      1.0000 0.73497  0.80343  0.74494  Biso   1.000  C
  C98      1.0000 0.19657  0.93153  0.74494  Biso   1.000  C
  C99      1.0000 0.06847  0.26503  0.74494  Biso   1.000  C
  C100     1.0000 0.13677  0.40163  0.92172  Biso   1.000  C
  C101     1.0000 0.26487  0.86323  0.92172  Biso   1.000  C
  C102     1.0000 0.59837  0.73513  0.92172  Biso   1.000  C
  C103     1.0000 0.40163  0.13677  0.07828  Biso   1.000  C
  C104     1.0000 0.86323  0.26487  0.07828  Biso   1.000  C
  C105     1.0000 0.73513  0.59837  0.07828  Biso   1.000  C
  C106     1.0000 0.80343  0.73497  0.25506  Biso   1.000  C
  C107     1.0000 0.93153  0.19657  0.25506  Biso   1.000  C
  C108     1.0000 0.26503  0.06847  0.25506  Biso   1.000  C
  C109     1.0000 0.93170  0.52990  0.58839  Biso   1.000  C
  C110     1.0000 0.47010  0.40180  0.58839  Biso   1.000  C
  C111     1.0000 0.59820  0.06830  0.58839  Biso   1.000  C
  C112     1.0000 0.52990  0.93170  0.41161  Biso   1.000  C
  C113     1.0000 0.40180  0.47010  0.41161  Biso   1.000  C
  C114     1.0000 0.06830  0.59820  0.41161  Biso   1.000  C
  C115     1.0000 0.59837  0.86323  0.92172  Biso   1.000  C
  C116     1.0000 0.13677  0.73513  0.92172  Biso   1.000  C
  C117     1.0000 0.26487  0.40163  0.92172  Biso   1.000  C
  C118     1.0000 0.19657  0.26503  0.74494  Biso   1.000  C
  C119     1.0000 0.06847  0.80343  0.74494  Biso   1.000  C
  C120     1.0000 0.73497  0.93153  0.74494  Biso   1.000  C
  C121     1.0000 0.26503  0.19657  0.25506  Biso   1.000  C
  C122     1.0000 0.80343  0.06847  0.25506  Biso   1.000  C
  C123     1.0000 0.93153  0.73497  0.25506  Biso   1.000  C
  C124     1.0000 0.86323  0.59837  0.07828  Biso   1.000  C
  C125     1.0000 0.73513  0.13677  0.07828  Biso   1.000  C
  C126     1.0000 0.40163  0.26487  0.07828  Biso   1.000  C
  H55      1.0000 0.05800  0.42160  0.42290  Biso   1.000  H
  H56      1.0000 0.57840  0.63640  0.42290  Biso   1.000  H
  H57      1.0000 0.36360  0.94200  0.42290  Biso   1.000  H
  H58      1.0000 0.42160  0.05800  0.57710  Biso   1.000  H
  H59      1.0000 0.63640  0.57840  0.57710  Biso   1.000  H
  H60      1.0000 0.94200  0.36360  0.57710  Biso   1.000  H
  H61      1.0000 0.72467  0.75493  0.75623  Biso   1.000  H
  H62      1.0000 0.24507  0.96973  0.75623  Biso   1.000  H
  H63      1.0000 0.03027  0.27533  0.75623  Biso   1.000  H
  H64      1.0000 0.08827  0.39133  0.91043  Biso   1.000  H
  H65      1.0000 0.30307  0.91173  0.91043  Biso   1.000  H
  H66      1.0000 0.60867  0.69693  0.91043  Biso   1.000  H
  H67      1.0000 0.39133  0.08827  0.08957  Biso   1.000  H
  H68      1.0000 0.91173  0.30307  0.08957  Biso   1.000  H
  H69      1.0000 0.69693  0.60867  0.08957  Biso   1.000  H
  H70      1.0000 0.75493  0.72467  0.24377  Biso   1.000  H
  H71      1.0000 0.96973  0.24507  0.24377  Biso   1.000  H
  H72      1.0000 0.27533  0.03027  0.24377  Biso   1.000  H
  H73      1.0000 0.94200  0.57840  0.57710  Biso   1.000  H
  H74      1.0000 0.42160  0.36360  0.57710  Biso   1.000  H
  H75      1.0000 0.63640  0.05800  0.57710  Biso   1.000  H
  H76      1.0000 0.57840  0.94200  0.42290  Biso   1.000  H
  H77      1.0000 0.36360  0.42160  0.42290  Biso   1.000  H
  H78      1.0000 0.05800  0.63640  0.42290  Biso   1.000  H
  H79      1.0000 0.60867  0.91173  0.91043  Biso   1.000  H
  H80      1.0000 0.08827  0.69693  0.91043  Biso   1.000  H
  H81      1.0000 0.30307  0.39133  0.91043  Biso   1.000  H
  H82      1.0000 0.24507  0.27533  0.75623  Biso   1.000  H
  H83      1.0000 0.03027  0.75493  0.75623  Biso   1.000  H
  H84      1.0000 0.72467  0.96973  0.75623  Biso   1.000  H
  H85      1.0000 0.27533  0.24507  0.24377  Biso   1.000  H
  H86      1.0000 0.75493  0.03027  0.24377  Biso   1.000  H
  H87      1.0000 0.96973  0.72467  0.24377  Biso   1.000  H
  H88      1.0000 0.91173  0.60867  0.08957  Biso   1.000  H
  H89      1.0000 0.69693  0.08827  0.08957  Biso   1.000  H
  H90      1.0000 0.39133  0.30307  0.08957  Biso   1.000  H
  C127     1.0000 0.05330  0.52670  0.42886  Biso   1.000  C
  C128     1.0000 0.47330  0.52660  0.42886  Biso   1.000  C
  C129     1.0000 0.47340  0.94670  0.42886  Biso   1.000  C
  C130     1.0000 0.52670  0.05330  0.57114  Biso   1.000  C
  C131     1.0000 0.52660  0.47330  0.57114  Biso   1.000  C
  C132     1.0000 0.94670  0.47340  0.57114  Biso   1.000  C
  C133     1.0000 0.71997  0.86003  0.76219  Biso   1.000  C
  C134     1.0000 0.13997  0.85993  0.76219  Biso   1.000  C
  C135     1.0000 0.14007  0.28003  0.76219  Biso   1.000  C
  C136     1.0000 0.19337  0.38663  0.90447  Biso   1.000  C
  C137     1.0000 0.19327  0.80663  0.90447  Biso   1.000  C
  C138     1.0000 0.61337  0.80673  0.90447  Biso   1.000  C
  C139     1.0000 0.38663  0.19337  0.09553  Biso   1.000  C
  C140     1.0000 0.80663  0.19327  0.09553  Biso   1.000  C
  C141     1.0000 0.80673  0.61337  0.09553  Biso   1.000  C
  C142     1.0000 0.86003  0.71997  0.23781  Biso   1.000  C
  C143     1.0000 0.85993  0.13997  0.23781  Biso   1.000  C
  C144     1.0000 0.28003  0.14007  0.23781  Biso   1.000  C
  C145     1.0000 0.02640  0.51320  0.46610  Biso   1.000  C
  C146     1.0000 0.48680  0.51320  0.46610  Biso   1.000  C
  C147     1.0000 0.48680  0.97360  0.46610  Biso   1.000  C
  C148     1.0000 0.51320  0.02640  0.53390  Biso   1.000  C
  C149     1.0000 0.51320  0.48680  0.53390  Biso   1.000  C
  C150     1.0000 0.97360  0.48680  0.53390  Biso   1.000  C
  C151     1.0000 0.69307  0.84653  0.79943  Biso   1.000  C
  C152     1.0000 0.15347  0.84653  0.79943  Biso   1.000  C
  C153     1.0000 0.15347  0.30693  0.79943  Biso   1.000  C
  C154     1.0000 0.17987  0.35973  0.86723  Biso   1.000  C
  C155     1.0000 0.17987  0.82013  0.86723  Biso   1.000  C
  C156     1.0000 0.64027  0.82013  0.86723  Biso   1.000  C
  C157     1.0000 0.35973  0.17987  0.13277  Biso   1.000  C
  C158     1.0000 0.82013  0.17987  0.13277  Biso   1.000  C
  C159     1.0000 0.82013  0.64027  0.13277  Biso   1.000  C
  C160     1.0000 0.84653  0.69307  0.20057  Biso   1.000  C
  C161     1.0000 0.84653  0.15347  0.20057  Biso   1.000  C
  C162     1.0000 0.30693  0.15347  0.20057  Biso   1.000  C
  N1       1.0000 0.05820  0.57670  0.48890  Biso   1.000  N
  N2       1.0000 0.42330  0.48150  0.48890  Biso   1.000  N
  N3       1.0000 0.51850  0.94180  0.48890  Biso   1.000  N
  N4       1.0000 0.57670  0.05820  0.51110  Biso   1.000  N
  N5       1.0000 0.48150  0.42330  0.51110  Biso   1.000  N
  N6       1.0000 0.94180  0.51850  0.51110  Biso   1.000  N
  N7       1.0000 0.72487  0.91003  0.82223  Biso   1.000  N
  N8       1.0000 0.08997  0.81483  0.82223  Biso   1.000  N
  N9       1.0000 0.18517  0.27513  0.82223  Biso   1.000  N
  N10      1.0000 0.24337  0.39153  0.84443  Biso   1.000  N
  N11      1.0000 0.14817  0.75663  0.84443  Biso   1.000  N
  N12      1.0000 0.60847  0.85183  0.84443  Biso   1.000  N
  N13      1.0000 0.39153  0.24337  0.15557  Biso   1.000  N
  N14      1.0000 0.75663  0.14817  0.15557  Biso   1.000  N
  N15      1.0000 0.85183  0.60847  0.15557  Biso   1.000  N
  N16      1.0000 0.91003  0.72487  0.17777  Biso   1.000  N
  N17      1.0000 0.81483  0.08997  0.17777  Biso   1.000  N
  N18      1.0000 0.27513  0.18517  0.17777  Biso   1.000  N
  N19      1.0000 0.94180  0.42330  0.51110  Biso   1.000  N
  N20      1.0000 0.57670  0.51850  0.51110  Biso   1.000  N
  N21      1.0000 0.48150  0.05820  0.51110  Biso   1.000  N
  N22      1.0000 0.42330  0.94180  0.48890  Biso   1.000  N
  N23      1.0000 0.51850  0.57670  0.48890  Biso   1.000  N
  N24      1.0000 0.05820  0.48150  0.48890  Biso   1.000  N
  N25      1.0000 0.60847  0.75663  0.84443  Biso   1.000  N
  N26      1.0000 0.24337  0.85183  0.84443  Biso   1.000  N
  N27      1.0000 0.14817  0.39153  0.84443  Biso   1.000  N
  N28      1.0000 0.08997  0.27513  0.82223  Biso   1.000  N
  N29      1.0000 0.18517  0.91003  0.82223  Biso   1.000  N
  N30      1.0000 0.72487  0.81483  0.82223  Biso   1.000  N
  N31      1.0000 0.27513  0.08997  0.17777  Biso   1.000  N
  N32      1.0000 0.91003  0.18517  0.17777  Biso   1.000  N
  N33      1.0000 0.81483  0.72487  0.17777  Biso   1.000  N
  N34      1.0000 0.75663  0.60847  0.15557  Biso   1.000  N
  N35      1.0000 0.85183  0.24337  0.15557  Biso   1.000  N
  N36      1.0000 0.39153  0.14817  0.15557  Biso   1.000  N
  C163     1.0000 0.97600  0.53630  0.47750  Biso   1.000  C
  C164     1.0000 0.46370  0.43970  0.47750  Biso   1.000  C
  C165     1.0000 0.56030  0.02400  0.47750  Biso   1.000  C
  C166     1.0000 0.53630  0.97600  0.52250  Biso   1.000  C
  C167     1.0000 0.43970  0.46370  0.52250  Biso   1.000  C
  C168     1.0000 0.02400  0.56030  0.52250  Biso   1.000  C
  C169     1.0000 0.64267  0.86963  0.81083  Biso   1.000  C
  C170     1.0000 0.13037  0.77303  0.81083  Biso   1.000  C
  C171     1.0000 0.22697  0.35733  0.81083  Biso   1.000  C
  C172     1.0000 0.20297  0.30933  0.85583  Biso   1.000  C
  C173     1.0000 0.10637  0.79703  0.85583  Biso   1.000  C
  C174     1.0000 0.69067  0.89363  0.85583  Biso   1.000  C
  C175     1.0000 0.30933  0.20297  0.14417  Biso   1.000  C
  C176     1.0000 0.79703  0.10637  0.14417  Biso   1.000  C
  C177     1.0000 0.89363  0.69067  0.14417  Biso   1.000  C
  C178     1.0000 0.86963  0.64267  0.18917  Biso   1.000  C
  C179     1.0000 0.77303  0.13037  0.18917  Biso   1.000  C
  C180     1.0000 0.35733  0.22697  0.18917  Biso   1.000  C
  C181     1.0000 0.02400  0.46370  0.52250  Biso   1.000  C
  C182     1.0000 0.53630  0.56030  0.52250  Biso   1.000  C
  C183     1.0000 0.43970  0.97600  0.52250  Biso   1.000  C
  C184     1.0000 0.46370  0.02400  0.47750  Biso   1.000  C
  C185     1.0000 0.56030  0.53630  0.47750  Biso   1.000  C
  C186     1.0000 0.97600  0.43970  0.47750  Biso   1.000  C
  C187     1.0000 0.69067  0.79703  0.85583  Biso   1.000  C
  C188     1.0000 0.20297  0.89363  0.85583  Biso   1.000  C
  C189     1.0000 0.10637  0.30933  0.85583  Biso   1.000  C
  C190     1.0000 0.13037  0.35733  0.81083  Biso   1.000  C
  C191     1.0000 0.22697  0.86963  0.81083  Biso   1.000  C
  C192     1.0000 0.64267  0.77303  0.81083  Biso   1.000  C
  C193     1.0000 0.35733  0.13037  0.18917  Biso   1.000  C
  C194     1.0000 0.86963  0.22697  0.18917  Biso   1.000  C
  C195     1.0000 0.77303  0.64267  0.18917  Biso   1.000  C
  C196     1.0000 0.79703  0.69067  0.14417  Biso   1.000  C
  C197     1.0000 0.89363  0.20297  0.14417  Biso   1.000  C
  C198     1.0000 0.30933  0.10637  0.14417  Biso   1.000  C
  C199     1.0000 0.90770  0.54400  0.45290  Biso   1.000  C
  C200     1.0000 0.45600  0.36370  0.45290  Biso   1.000  C
  C201     1.0000 0.63630  0.09230  0.45290  Biso   1.000  C
  C202     1.0000 0.54400  0.90770  0.54710  Biso   1.000  C
  C203     1.0000 0.36370  0.45600  0.54710  Biso   1.000  C
  C204     1.0000 0.09230  0.63630  0.54710  Biso   1.000  C
  C205     1.0000 0.57437  0.87733  0.78623  Biso   1.000  C
  C206     1.0000 0.12267  0.69703  0.78623  Biso   1.000  C
  C207     1.0000 0.30297  0.42563  0.78623  Biso   1.000  C
  C208     1.0000 0.21067  0.24103  0.88043  Biso   1.000  C
  C209     1.0000 0.03037  0.78933  0.88043  Biso   1.000  C
  C210     1.0000 0.75897  0.96963  0.88043  Biso   1.000  C
  C211     1.0000 0.24103  0.21067  0.11957  Biso   1.000  C
  C212     1.0000 0.78933  0.03037  0.11957  Biso   1.000  C
  C213     1.0000 0.96963  0.75897  0.11957  Biso   1.000  C
  C214     1.0000 0.87733  0.57437  0.21377  Biso   1.000  C
  C215     1.0000 0.69703  0.12267  0.21377  Biso   1.000  C
  C216     1.0000 0.42563  0.30297  0.21377  Biso   1.000  C
  C217     1.0000 0.09230  0.45600  0.54710  Biso   1.000  C
  C218     1.0000 0.54400  0.63630  0.54710  Biso   1.000  C
  C219     1.0000 0.36370  0.90770  0.54710  Biso   1.000  C
  C220     1.0000 0.45600  0.09230  0.45290  Biso   1.000  C
  C221     1.0000 0.63630  0.54400  0.45290  Biso   1.000  C
  C222     1.0000 0.90770  0.36370  0.45290  Biso   1.000  C
  C223     1.0000 0.75897  0.78933  0.88043  Biso   1.000  C
  C224     1.0000 0.21067  0.96963  0.88043  Biso   1.000  C
  C225     1.0000 0.03037  0.24103  0.88043  Biso   1.000  C
  C226     1.0000 0.12267  0.42563  0.78623  Biso   1.000  C
  C227     1.0000 0.30297  0.87733  0.78623  Biso   1.000  C
  C228     1.0000 0.57437  0.69703  0.78623  Biso   1.000  C
  C229     1.0000 0.42563  0.12267  0.21377  Biso   1.000  C
  C230     1.0000 0.87733  0.30297  0.21377  Biso   1.000  C
  C231     1.0000 0.69703  0.57437  0.21377  Biso   1.000  C
  C232     1.0000 0.78933  0.75897  0.11957  Biso   1.000  C
  C233     1.0000 0.96963  0.21067  0.11957  Biso   1.000  C
  C234     1.0000 0.24103  0.03037  0.11957  Biso   1.000  C
  O91      1.0000 0.85570  0.51240  0.42800  Biso   1.000  O
  O92      1.0000 0.48760  0.34330  0.42800  Biso   1.000  O
  O93      1.0000 0.65670  0.14430  0.42800  Biso   1.000  O
  O94      1.0000 0.51240  0.85570  0.57200  Biso   1.000  O
  O95      1.0000 0.34330  0.48760  0.57200  Biso   1.000  O
  O96      1.0000 0.14430  0.65670  0.57200  Biso   1.000  O
  O97      1.0000 0.52237  0.84573  0.76133  Biso   1.000  O
  O98      1.0000 0.15427  0.67663  0.76133  Biso   1.000  O
  O99      1.0000 0.32337  0.47763  0.76133  Biso   1.000  O
  O100     1.0000 0.17907  0.18903  0.90533  Biso   1.000  O
  O101     1.0000 0.00997  0.82093  0.90533  Biso   1.000  O
  O102     1.0000 0.81097  0.99003  0.90533  Biso   1.000  O
  O103     1.0000 0.18903  0.17907  0.09467  Biso   1.000  O
  O104     1.0000 0.82093  0.00997  0.09467  Biso   1.000  O
  O105     1.0000 0.99003  0.81097  0.09467  Biso   1.000  O
  O106     1.0000 0.84573  0.52237  0.23867  Biso   1.000  O
  O107     1.0000 0.67663  0.15427  0.23867  Biso   1.000  O
  O108     1.0000 0.47763  0.32337  0.23867  Biso   1.000  O
  O109     1.0000 0.14430  0.48760  0.57200  Biso   1.000  O
  O110     1.0000 0.51240  0.65670  0.57200  Biso   1.000  O
  O111     1.0000 0.34330  0.85570  0.57200  Biso   1.000  O
  O112     1.0000 0.48760  0.14430  0.42800  Biso   1.000  O
  O113     1.0000 0.65670  0.51240  0.42800  Biso   1.000  O
  O114     1.0000 0.85570  0.34330  0.42800  Biso   1.000  O
  O115     1.0000 0.81097  0.82093  0.90533  Biso   1.000  O
  O116     1.0000 0.17907  0.99003  0.90533  Biso   1.000  O
  O117     1.0000 0.00997  0.18903  0.90533  Biso   1.000  O
  O118     1.0000 0.15427  0.47763  0.76133  Biso   1.000  O
  O119     1.0000 0.32337  0.84573  0.76133  Biso   1.000  O
  O120     1.0000 0.52237  0.67663  0.76133  Biso   1.000  O
  O121     1.0000 0.47763  0.15427  0.23867  Biso   1.000  O
  O122     1.0000 0.84573  0.32337  0.23867  Biso   1.000  O
  O123     1.0000 0.67663  0.52237  0.23867  Biso   1.000  O
  O124     1.0000 0.82093  0.81097  0.09467  Biso   1.000  O
  O125     1.0000 0.99003  0.17907  0.09467  Biso   1.000  O
  O126     1.0000 0.18903  0.00997  0.09467  Biso   1.000  O
  O127     1.0000 0.89040  0.60700  0.45460  Biso   1.000  O
  O128     1.0000 0.39300  0.28340  0.45460  Biso   1.000  O
  O129     1.0000 0.71660  0.10960  0.45460  Biso   1.000  O
  O130     1.0000 0.60700  0.89040  0.54540  Biso   1.000  O
  O131     1.0000 0.28340  0.39300  0.54540  Biso   1.000  O
  O132     1.0000 0.10960  0.71660  0.54540  Biso   1.000  O
  O133     1.0000 0.55707  0.94033  0.78793  Biso   1.000  O
  O134     1.0000 0.05967  0.61673  0.78793  Biso   1.000  O
  O135     1.0000 0.38327  0.44293  0.78793  Biso   1.000  O
  O136     1.0000 0.27367  0.22373  0.87873  Biso   1.000  O
  O137     1.0000 0.95007  0.72633  0.87873  Biso   1.000  O
  O138     1.0000 0.77627  0.04993  0.87873  Biso   1.000  O
  O139     1.0000 0.22373  0.27367  0.12127  Biso   1.000  O
  O140     1.0000 0.72633  0.95007  0.12127  Biso   1.000  O
  O141     1.0000 0.04993  0.77627  0.12127  Biso   1.000  O
  O142     1.0000 0.94033  0.55707  0.21207  Biso   1.000  O
  O143     1.0000 0.61673  0.05967  0.21207  Biso   1.000  O
  O144     1.0000 0.44293  0.38327  0.21207  Biso   1.000  O
  O145     1.0000 0.10960  0.39300  0.54540  Biso   1.000  O
  O146     1.0000 0.60700  0.71660  0.54540  Biso   1.000  O
  O147     1.0000 0.28340  0.89040  0.54540  Biso   1.000  O
  O148     1.0000 0.39300  0.10960  0.45460  Biso   1.000  O
  O149     1.0000 0.71660  0.60700  0.45460  Biso   1.000  O
  O150     1.0000 0.89040  0.28340  0.45460  Biso   1.000  O
  O151     1.0000 0.77627  0.72633  0.87873  Biso   1.000  O
  O152     1.0000 0.27367  0.04993  0.87873  Biso   1.000  O
  O153     1.0000 0.95007  0.22373  0.87873  Biso   1.000  O
  O154     1.0000 0.05967  0.44293  0.78793  Biso   1.000  O
  O155     1.0000 0.38327  0.94033  0.78793  Biso   1.000  O
  O156     1.0000 0.55707  0.61673  0.78793  Biso   1.000  O
  O157     1.0000 0.44293  0.05967  0.21207  Biso   1.000  O
  O158     1.0000 0.94033  0.38327  0.21207  Biso   1.000  O
  O159     1.0000 0.61673  0.55707  0.21207  Biso   1.000  O
  O160     1.0000 0.72633  0.77627  0.12127  Biso   1.000  O
  O161     1.0000 0.04993  0.27367  0.12127  Biso   1.000  O
  O162     1.0000 0.22373  0.95007  0.12127  Biso   1.000  O
