data_image0
_cell_length_a       17.2577
_cell_length_b       11.8391
_cell_length_c       19.102
_cell_angle_alpha    90
_cell_angle_beta     105.811
_cell_angle_gamma    90

_symmetry_space_group_name_H-M    "P 1"
_symmetry_int_tables_number       1

loop_
  _symmetry_equiv_pos_as_xyz
  'x, y, z'

loop_
  _atom_site_label
  _atom_site_occupancy
  _atom_site_fract_x
  _atom_site_fract_y
  _atom_site_fract_z
  _atom_site_thermal_displace_type
  _atom_site_B_iso_or_equiv
  _atom_site_type_symbol
  Mo1      1.0000 0.22839  0.42551  0.20981  Biso   1.000  Mo
  Mo2      1.0000 0.77161  0.92551  0.29019  Biso   1.000  Mo
  Mo3      1.0000 0.77161  0.57449  0.79019  Biso   1.000  Mo
  Mo4      1.0000 0.22839  0.07449  0.70981  Biso   1.000  Mo
  Cu1      1.0000 0.21770  0.70207  0.08001  Biso   1.000  Cu
  Cu2      1.0000 0.78230  0.20207  0.41999  Biso   1.000  Cu
  Cu3      1.0000 0.78230  0.29793  0.91999  Biso   1.000  Cu
  Cu4      1.0000 0.21770  0.79793  0.58001  Biso   1.000  Cu
  Cu5      1.0000 0.27230  0.13298  0.37976  Biso   1.000  Cu
  Cu6      1.0000 0.72770  0.63298  0.12024  Biso   1.000  Cu
  Cu7      1.0000 0.72770  0.86702  0.62024  Biso   1.000  Cu
  Cu8      1.0000 0.27230  0.36702  0.87976  Biso   1.000  Cu
  P1       1.0000 0.37355  0.60258  0.18000  Biso   1.000  P
  P2       1.0000 0.62645  0.10258  0.32000  Biso   1.000  P
  P3       1.0000 0.62645  0.39742  0.82000  Biso   1.000  P
  P4       1.0000 0.37355  0.89742  0.68000  Biso   1.000  P
  P5       1.0000 0.38786  0.28265  0.32743  Biso   1.000  P
  P6       1.0000 0.61214  0.78265  0.17257  Biso   1.000  P
  P7       1.0000 0.61214  0.71735  0.67257  Biso   1.000  P
  P8       1.0000 0.38786  0.21735  0.82743  Biso   1.000  P
  P9       1.0000 0.27232  0.40315  0.38542  Biso   1.000  P
  P10      1.0000 0.72768  0.90315  0.11458  Biso   1.000  P
  P11      1.0000 0.72768  0.59685  0.61458  Biso   1.000  P
  P12      1.0000 0.27232  0.09685  0.88542  Biso   1.000  P
  O1       1.0000 0.23700  0.28750  0.38540  Biso   1.000  O
  O2       1.0000 0.76300  0.78750  0.11460  Biso   1.000  O
  O3       1.0000 0.76300  0.71250  0.61460  Biso   1.000  O
  O4       1.0000 0.23700  0.21250  0.88540  Biso   1.000  O
  O5       1.0000 0.37240  0.16980  0.35840  Biso   1.000  O
  O6       1.0000 0.62760  0.66980  0.14160  Biso   1.000  O
  O7       1.0000 0.62760  0.83020  0.64160  Biso   1.000  O
  O8       1.0000 0.37240  0.33020  0.85840  Biso   1.000  O
  O9       1.0000 0.25980  0.47460  0.44830  Biso   1.000  O
  O10      1.0000 0.74020  0.97460  0.05170  Biso   1.000  O
  O11      1.0000 0.74020  0.52540  0.55170  Biso   1.000  O
  O12      1.0000 0.25980  0.02540  0.94830  Biso   1.000  O
  H1       1.0000 0.20960  0.48050  0.44380  Biso   1.000  H
  H2       1.0000 0.79040  0.98050  0.05620  Biso   1.000  H
  H3       1.0000 0.79040  0.51950  0.55620  Biso   1.000  H
  H4       1.0000 0.20960  0.01950  0.94380  Biso   1.000  H
  O13      1.0000 0.23760  0.46920  0.31470  Biso   1.000  O
  O14      1.0000 0.76240  0.96920  0.18530  Biso   1.000  O
  O15      1.0000 0.76240  0.53080  0.68530  Biso   1.000  O
  O16      1.0000 0.23760  0.03080  0.81470  Biso   1.000  O
  O17      1.0000 0.32300  0.31100  0.25770  Biso   1.000  O
  O18      1.0000 0.67700  0.81100  0.24230  Biso   1.000  O
  O19      1.0000 0.67700  0.68900  0.74230  Biso   1.000  O
  O20      1.0000 0.32300  0.18900  0.75770  Biso   1.000  O
  O21      1.0000 0.47260  0.29210  0.31740  Biso   1.000  O
  O22      1.0000 0.52740  0.79210  0.18260  Biso   1.000  O
  O23      1.0000 0.52740  0.70790  0.68260  Biso   1.000  O
  O24      1.0000 0.47260  0.20790  0.81740  Biso   1.000  O
  H5       1.0000 0.47800  0.24310  0.28650  Biso   1.000  H
  H6       1.0000 0.52200  0.74310  0.21350  Biso   1.000  H
  H7       1.0000 0.52200  0.75690  0.71350  Biso   1.000  H
  H8       1.0000 0.47800  0.25690  0.78650  Biso   1.000  H
  P13      1.0000 0.28173  0.45692  0.05906  Biso   1.000  P
  P14      1.0000 0.71827  0.95692  0.44094  Biso   1.000  P
  P15      1.0000 0.71827  0.54308  0.94094  Biso   1.000  P
  P16      1.0000 0.28173  0.04308  0.55906  Biso   1.000  P
  O25      1.0000 0.22890  0.55800  0.03400  Biso   1.000  O
  O26      1.0000 0.77110  0.05800  0.46600  Biso   1.000  O
  O27      1.0000 0.77110  0.44200  0.96600  Biso   1.000  O
  O28      1.0000 0.22890  0.94200  0.53400  Biso   1.000  O
  O29      1.0000 0.33610  0.53290  0.22920  Biso   1.000  O
  O30      1.0000 0.66390  0.03290  0.27080  Biso   1.000  O
  O31      1.0000 0.66390  0.46710  0.77080  Biso   1.000  O
  O32      1.0000 0.33610  0.96710  0.72920  Biso   1.000  O
  O33      1.0000 0.45830  0.63830  0.22380  Biso   1.000  O
  O34      1.0000 0.54170  0.13830  0.27620  Biso   1.000  O
  O35      1.0000 0.54170  0.36170  0.77620  Biso   1.000  O
  O36      1.0000 0.45830  0.86170  0.72380  Biso   1.000  O
  O37      1.0000 0.25340  0.38900  0.11780  Biso   1.000  O
  O38      1.0000 0.74660  0.88900  0.38220  Biso   1.000  O
  O39      1.0000 0.74660  0.61100  0.88220  Biso   1.000  O
  O40      1.0000 0.25340  0.11100  0.61780  Biso   1.000  O
  O41      1.0000 0.32480  0.70310  0.14500  Biso   1.000  O
  O42      1.0000 0.67520  0.20310  0.35500  Biso   1.000  O
  O43      1.0000 0.67520  0.29690  0.85500  Biso   1.000  O
  O44      1.0000 0.32480  0.79690  0.64500  Biso   1.000  O
  N1       1.0000 0.29190  0.96990  0.36250  Biso   1.000  N
  N2       1.0000 0.70810  0.46990  0.13750  Biso   1.000  N
  N3       1.0000 0.70810  0.03010  0.63750  Biso   1.000  N
  N4       1.0000 0.29190  0.53010  0.86250  Biso   1.000  N
  N5       1.0000 0.19230  0.84950  0.12230  Biso   1.000  N
  N6       1.0000 0.80770  0.34950  0.37770  Biso   1.000  N
  N7       1.0000 0.80770  0.15050  0.87770  Biso   1.000  N
  N8       1.0000 0.19230  0.65050  0.62230  Biso   1.000  N
  N9       1.0000 0.15690  0.08040  0.35460  Biso   1.000  N
  N10      1.0000 0.84310  0.58040  0.14540  Biso   1.000  N
  N11      1.0000 0.84310  0.91960  0.64540  Biso   1.000  N
  N12      1.0000 0.15690  0.41960  0.85460  Biso   1.000  N
  N13      1.0000 0.09770  0.70680  0.03370  Biso   1.000  N
  N14      1.0000 0.90230  0.20680  0.46630  Biso   1.000  N
  N15      1.0000 0.90230  0.29320  0.96630  Biso   1.000  N
  N16      1.0000 0.09770  0.79320  0.53370  Biso   1.000  N
  C1       1.0000 0.37960  0.38980  0.39430  Biso   1.000  C
  C2       1.0000 0.62040  0.88980  0.10570  Biso   1.000  C
  C3       1.0000 0.62040  0.61020  0.60570  Biso   1.000  C
  C4       1.0000 0.37960  0.11020  0.89430  Biso   1.000  C
  O45      1.0000 0.28620  0.37540  0.00010  Biso   1.000  O
  O46      1.0000 0.71380  0.87540  0.49990  Biso   1.000  O
  O47      1.0000 0.71380  0.62460  0.99990  Biso   1.000  O
  O48      1.0000 0.28620  0.12460  0.50010  Biso   1.000  O
  O49      1.0000 0.41300  0.49710  0.37890  Biso   1.000  O
  O50      1.0000 0.58700  0.99710  0.12110  Biso   1.000  O
  O51      1.0000 0.58700  0.50290  0.62110  Biso   1.000  O
  O52      1.0000 0.41300  0.00290  0.87890  Biso   1.000  O
  H9       1.0000 0.40870  0.54540  0.41060  Biso   1.000  H
  H10      1.0000 0.59130  0.04540  0.08940  Biso   1.000  H
  H11      1.0000 0.59130  0.45460  0.58940  Biso   1.000  H
  H12      1.0000 0.40870  0.95460  0.91060  Biso   1.000  H
  O53      1.0000 0.43090  0.40960  0.14020  Biso   1.000  O
  O54      1.0000 0.56910  0.90960  0.35980  Biso   1.000  O
  O55      1.0000 0.56910  0.59040  0.85980  Biso   1.000  O
  O56      1.0000 0.43090  0.09040  0.64020  Biso   1.000  O
  H13      1.0000 0.47770  0.43230  0.16310  Biso   1.000  H
  H14      1.0000 0.52230  0.93230  0.33690  Biso   1.000  H
  H15      1.0000 0.52230  0.56770  0.83690  Biso   1.000  H
  H16      1.0000 0.47770  0.06770  0.66310  Biso   1.000  H
  C5       1.0000 0.11230  0.87580  0.10200  Biso   1.000  C
  C6       1.0000 0.88770  0.37580  0.39800  Biso   1.000  C
  C7       1.0000 0.88770  0.12420  0.89800  Biso   1.000  C
  C8       1.0000 0.11230  0.62420  0.60200  Biso   1.000  C
  C9       1.0000 0.06100  0.79810  0.05450  Biso   1.000  C
  C10      1.0000 0.93900  0.29810  0.44550  Biso   1.000  C
  C11      1.0000 0.93900  0.20190  0.94550  Biso   1.000  C
  C12      1.0000 0.06100  0.70190  0.55450  Biso   1.000  C
  C13      1.0000 0.38240  0.50610  0.10840  Biso   1.000  C
  C14      1.0000 0.61760  0.00610  0.39160  Biso   1.000  C
  C15      1.0000 0.61760  0.49390  0.89160  Biso   1.000  C
  C16      1.0000 0.38240  0.99390  0.60840  Biso   1.000  C
  C17      1.0000 0.15040  0.96750  0.34010  Biso   1.000  C
  C18      1.0000 0.84960  0.46750  0.15990  Biso   1.000  C
  C19      1.0000 0.84960  0.03250  0.65990  Biso   1.000  C
  C20      1.0000 0.15040  0.53250  0.84010  Biso   1.000  C
  C21      1.0000 0.22280  0.90830  0.34410  Biso   1.000  C
  C22      1.0000 0.77720  0.40830  0.15590  Biso   1.000  C
  C23      1.0000 0.77720  0.09170  0.65590  Biso   1.000  C
  C24      1.0000 0.22280  0.59170  0.84410  Biso   1.000  C
  C25      1.0000 0.08060  0.97480  0.12220  Biso   1.000  C
  C26      1.0000 0.91940  0.47480  0.37780  Biso   1.000  C
  C27      1.0000 0.91940  0.02520  0.87780  Biso   1.000  C
  C28      1.0000 0.08060  0.52520  0.62220  Biso   1.000  C
  C29      1.0000 0.07560  0.91220  0.31890  Biso   1.000  C
  C30      1.0000 0.92440  0.41220  0.18110  Biso   1.000  C
  C31      1.0000 0.92440  0.08780  0.68110  Biso   1.000  C
  C32      1.0000 0.07560  0.58780  0.81890  Biso   1.000  C
  C33      1.0000 0.42600  0.35380  0.47020  Biso   1.000  C
  C34      1.0000 0.57400  0.85380  0.02980  Biso   1.000  C
  C35      1.0000 0.57400  0.64620  0.52980  Biso   1.000  C
  C36      1.0000 0.42600  0.14620  0.97020  Biso   1.000  C
  H17      1.0000 0.42110  0.41070  0.50460  Biso   1.000  H
  H18      1.0000 0.57890  0.91070  0.99540  Biso   1.000  H
  H19      1.0000 0.57890  0.58930  0.49540  Biso   1.000  H
  H20      1.0000 0.42110  0.08930  0.00460  Biso   1.000  H
  H21      1.0000 0.40410  0.28390  0.48180  Biso   1.000  H
  H22      1.0000 0.59590  0.78390  0.01820  Biso   1.000  H
  H23      1.0000 0.59590  0.71610  0.51820  Biso   1.000  H
  H24      1.0000 0.40410  0.21610  0.98180  Biso   1.000  H
  H25      1.0000 0.48180  0.34340  0.47250  Biso   1.000  H
  H26      1.0000 0.51820  0.84340  0.02750  Biso   1.000  H
  H27      1.0000 0.51820  0.65660  0.52750  Biso   1.000  H
  H28      1.0000 0.48180  0.15660  0.97250  Biso   1.000  H
  C37      1.0000 0.97930  0.81770  0.03100  Biso   1.000  C
  C38      1.0000 0.02070  0.31770  0.46900  Biso   1.000  C
  C39      1.0000 0.02070  0.18230  0.96900  Biso   1.000  C
  C40      1.0000 0.97930  0.68230  0.53100  Biso   1.000  C
  C41      1.0000 0.42300  0.56220  0.05610  Biso   1.000  C
  C42      1.0000 0.57700  0.06220  0.44390  Biso   1.000  C
  C43      1.0000 0.57700  0.43780  0.94390  Biso   1.000  C
  C44      1.0000 0.42300  0.93780  0.55610  Biso   1.000  C
  H29      1.0000 0.47560  0.58780  0.08260  Biso   1.000  H
  H30      1.0000 0.52440  0.08780  0.41740  Biso   1.000  H
  H31      1.0000 0.52440  0.41220  0.91740  Biso   1.000  H
  H32      1.0000 0.47560  0.91220  0.58260  Biso   1.000  H
  H33      1.0000 0.42790  0.50910  0.01950  Biso   1.000  H
  H34      1.0000 0.57210  0.00910  0.48050  Biso   1.000  H
  H35      1.0000 0.57210  0.49090  0.98050  Biso   1.000  H
  H36      1.0000 0.42790  0.99090  0.51950  Biso   1.000  H
  H37      1.0000 0.39140  0.62560  0.03320  Biso   1.000  H
  H38      1.0000 0.60860  0.12560  0.46680  Biso   1.000  H
  H39      1.0000 0.60860  0.37440  0.96680  Biso   1.000  H
  H40      1.0000 0.39140  0.87440  0.53320  Biso   1.000  H
  C45      1.0000 0.09060  0.13840  0.34800  Biso   1.000  C
  C46      1.0000 0.90940  0.63840  0.15200  Biso   1.000  C
  C47      1.0000 0.90940  0.86160  0.65200  Biso   1.000  C
  C48      1.0000 0.09060  0.36160  0.84800  Biso   1.000  C
  H41      1.0000 0.09520  0.21820  0.35710  Biso   1.000  H
  H42      1.0000 0.90480  0.71820  0.14290  Biso   1.000  H
  H43      1.0000 0.90480  0.78180  0.64290  Biso   1.000  H
  H44      1.0000 0.09520  0.28180  0.85710  Biso   1.000  H
  C49      1.0000 0.24370  0.92360  0.16330  Biso   1.000  C
  C50      1.0000 0.75630  0.42360  0.33670  Biso   1.000  C
  C51      1.0000 0.75630  0.07640  0.83670  Biso   1.000  C
  C52      1.0000 0.24370  0.57640  0.66330  Biso   1.000  C
  H45      1.0000 0.30020  0.90680  0.17710  Biso   1.000  H
  H46      1.0000 0.69980  0.40680  0.32290  Biso   1.000  H
  H47      1.0000 0.69980  0.09320  0.82290  Biso   1.000  H
  H48      1.0000 0.30020  0.59320  0.67710  Biso   1.000  H
  C53      1.0000 0.05280  0.63310  0.98840  Biso   1.000  C
  C54      1.0000 0.94720  0.13310  0.51160  Biso   1.000  C
  C55      1.0000 0.94720  0.36690  0.01160  Biso   1.000  C
  C56      1.0000 0.05280  0.86690  0.48840  Biso   1.000  C
  H49      1.0000 0.07810  0.56880  0.97340  Biso   1.000  H
  H50      1.0000 0.92190  0.06880  0.52660  Biso   1.000  H
  H51      1.0000 0.92190  0.43120  0.02660  Biso   1.000  H
  H52      1.0000 0.07810  0.93120  0.47340  Biso   1.000  H
  O57      1.0000 0.17140  0.54090  0.17890  Biso   1.000  O
  O58      1.0000 0.82860  0.04090  0.32110  Biso   1.000  O
  O59      1.0000 0.82860  0.45910  0.82110  Biso   1.000  O
  O60      1.0000 0.17140  0.95910  0.67890  Biso   1.000  O
  O61      1.0000 0.15840  0.32350  0.20410  Biso   1.000  O
  O62      1.0000 0.84160  0.82350  0.29590  Biso   1.000  O
  O63      1.0000 0.84160  0.67650  0.79590  Biso   1.000  O
  O64      1.0000 0.15840  0.17650  0.70410  Biso   1.000  O
  C57      1.0000 0.36540  0.80400  0.34980  Biso   1.000  C
  C58      1.0000 0.63460  0.30400  0.15020  Biso   1.000  C
  C59      1.0000 0.63460  0.19600  0.65020  Biso   1.000  C
  C60      1.0000 0.36540  0.69600  0.84980  Biso   1.000  C
  H53      1.0000 0.41640  0.76960  0.35230  Biso   1.000  H
  H54      1.0000 0.58360  0.26960  0.14770  Biso   1.000  H
  H55      1.0000 0.58360  0.23040  0.64770  Biso   1.000  H
  H56      1.0000 0.41640  0.73040  0.85230  Biso   1.000  H
  C61      1.0000 0.22230  0.79360  0.32980  Biso   1.000  C
  C62      1.0000 0.77770  0.29360  0.17020  Biso   1.000  C
  C63      1.0000 0.77770  0.20640  0.67020  Biso   1.000  C
  C64      1.0000 0.22230  0.70640  0.82980  Biso   1.000  C
  C65      1.0000 0.01460  0.09000  0.32920  Biso   1.000  C
  C66      1.0000 0.98540  0.59000  0.17080  Biso   1.000  C
  C67      1.0000 0.98540  0.91000  0.67080  Biso   1.000  C
  C68      1.0000 0.01460  0.41000  0.82920  Biso   1.000  C
  H57      1.0000 0.96780  0.13530  0.32710  Biso   1.000  H
  H58      1.0000 0.03220  0.63530  0.17290  Biso   1.000  H
  H59      1.0000 0.03220  0.86470  0.67290  Biso   1.000  H
  H60      1.0000 0.96780  0.36470  0.82710  Biso   1.000  H
  C69      1.0000 0.00630  0.97520  0.31290  Biso   1.000  C
  C70      1.0000 0.99370  0.47520  0.18710  Biso   1.000  C
  C71      1.0000 0.99370  0.02480  0.68710  Biso   1.000  C
  C72      1.0000 0.00630  0.52480  0.81290  Biso   1.000  C
  H61      1.0000 0.95420  0.94020  0.29820  Biso   1.000  H
  H62      1.0000 0.04580  0.44020  0.20180  Biso   1.000  H
  H63      1.0000 0.04580  0.05980  0.70180  Biso   1.000  H
  H64      1.0000 0.95420  0.55980  0.79820  Biso   1.000  H
  C73      1.0000 0.14540  0.73620  0.30980  Biso   1.000  C
  C74      1.0000 0.85460  0.23620  0.19020  Biso   1.000  C
  C75      1.0000 0.85460  0.26380  0.69020  Biso   1.000  C
  C76      1.0000 0.14540  0.76380  0.80980  Biso   1.000  C
  H65      1.0000 0.14370  0.65680  0.29920  Biso   1.000  H
  H66      1.0000 0.85630  0.15680  0.20080  Biso   1.000  H
  H67      1.0000 0.85630  0.34320  0.70080  Biso   1.000  H
  H68      1.0000 0.14370  0.84320  0.79920  Biso   1.000  H
  C77      1.0000 0.96870  0.64700  0.96270  Biso   1.000  C
  C78      1.0000 0.03130  0.14700  0.53730  Biso   1.000  C
  C79      1.0000 0.03130  0.35300  0.03730  Biso   1.000  C
  C80      1.0000 0.96870  0.85300  0.46270  Biso   1.000  C
  H69      1.0000 0.93750  0.59180  0.93010  Biso   1.000  H
  H70      1.0000 0.06250  0.09180  0.56990  Biso   1.000  H
  H71      1.0000 0.06250  0.40820  0.06990  Biso   1.000  H
  H72      1.0000 0.93750  0.90820  0.43010  Biso   1.000  H
  C81      1.0000 0.99550  0.99080  0.09850  Biso   1.000  C
  C82      1.0000 0.00450  0.49080  0.40150  Biso   1.000  C
  C83      1.0000 0.00450  0.00920  0.90150  Biso   1.000  C
  C84      1.0000 0.99550  0.50920  0.59850  Biso   1.000  C
  H73      1.0000 0.97270  0.05660  0.11460  Biso   1.000  H
  H74      1.0000 0.02730  0.55660  0.38540  Biso   1.000  H
  H75      1.0000 0.02730  0.94340  0.88540  Biso   1.000  H
  H76      1.0000 0.97270  0.44340  0.61460  Biso   1.000  H
  C85      1.0000 0.35960  0.91870  0.36420  Biso   1.000  C
  C86      1.0000 0.64040  0.41870  0.13580  Biso   1.000  C
  C87      1.0000 0.64040  0.08130  0.63580  Biso   1.000  C
  C88      1.0000 0.35960  0.58130  0.86420  Biso   1.000  C
  H77      1.0000 0.40810  0.96280  0.37620  Biso   1.000  H
  H78      1.0000 0.59190  0.46280  0.12380  Biso   1.000  H
  H79      1.0000 0.59190  0.03720  0.62380  Biso   1.000  H
  H80      1.0000 0.40810  0.53720  0.87620  Biso   1.000  H
  C89      1.0000 0.94820  0.91700  0.05600  Biso   1.000  C
  C90      1.0000 0.05180  0.41700  0.44400  Biso   1.000  C
  C91      1.0000 0.05180  0.08300  0.94400  Biso   1.000  C
  C92      1.0000 0.94820  0.58300  0.55600  Biso   1.000  C
  H81      1.0000 0.89110  0.93000  0.04140  Biso   1.000  H
  H82      1.0000 0.10890  0.43000  0.45860  Biso   1.000  H
  H83      1.0000 0.10890  0.07000  0.95860  Biso   1.000  H
  H84      1.0000 0.89110  0.57000  0.54140  Biso   1.000  H
  C93      1.0000 0.93180  0.73620  0.98280  Biso   1.000  C
  C94      1.0000 0.06820  0.23620  0.51720  Biso   1.000  C
  C95      1.0000 0.06820  0.26380  0.01720  Biso   1.000  C
  C96      1.0000 0.93180  0.76380  0.48280  Biso   1.000  C
  H85      1.0000 0.87450  0.74550  0.96520  Biso   1.000  H
  H86      1.0000 0.12550  0.24550  0.53480  Biso   1.000  H
  H87      1.0000 0.12550  0.25450  0.03480  Biso   1.000  H
  H88      1.0000 0.87450  0.75450  0.46520  Biso   1.000  H
  C97      1.0000 0.29400  0.74130  0.33130  Biso   1.000  C
  C98      1.0000 0.70600  0.24130  0.16870  Biso   1.000  C
  C99      1.0000 0.70600  0.25870  0.66870  Biso   1.000  C
  C100     1.0000 0.29400  0.75870  0.83130  Biso   1.000  C
  H89      1.0000 0.29510  0.66230  0.32010  Biso   1.000  H
  H90      1.0000 0.70490  0.16230  0.17990  Biso   1.000  H
  H91      1.0000 0.70490  0.33770  0.67990  Biso   1.000  H
  H92      1.0000 0.29510  0.83770  0.82010  Biso   1.000  H
  C101     1.0000 0.13550  0.05170  0.16530  Biso   1.000  C
  C102     1.0000 0.86450  0.55170  0.33470  Biso   1.000  C
  C103     1.0000 0.86450  0.94830  0.83470  Biso   1.000  C
  C104     1.0000 0.13550  0.44830  0.66530  Biso   1.000  C
  H93      1.0000 0.11640  0.12090  0.18090  Biso   1.000  H
  H94      1.0000 0.88360  0.62090  0.31910  Biso   1.000  H
  H95      1.0000 0.88360  0.87910  0.81910  Biso   1.000  H
  H96      1.0000 0.11640  0.37910  0.68090  Biso   1.000  H
  C105     1.0000 0.21660  0.02710  0.18560  Biso   1.000  C
  C106     1.0000 0.78340  0.52710  0.31440  Biso   1.000  C
  C107     1.0000 0.78340  0.97290  0.81440  Biso   1.000  C
  C108     1.0000 0.21660  0.47290  0.68560  Biso   1.000  C
  H97      1.0000 0.25450  0.07900  0.21510  Biso   1.000  H
  H98      1.0000 0.74550  0.57900  0.28490  Biso   1.000  H
  H99      1.0000 0.74550  0.92100  0.78490  Biso   1.000  H
  H100     1.0000 0.25450  0.42100  0.71510  Biso   1.000  H
  C109     1.0000 0.07610  0.79150  0.30550  Biso   1.000  C
  C110     1.0000 0.92390  0.29150  0.19450  Biso   1.000  C
  C111     1.0000 0.92390  0.20850  0.69450  Biso   1.000  C
  C112     1.0000 0.07610  0.70850  0.80550  Biso   1.000  C
  H101     1.0000 0.02590  0.75120  0.29370  Biso   1.000  H
  H102     1.0000 0.97410  0.25120  0.20630  Biso   1.000  H
  H103     1.0000 0.97410  0.24880  0.70630  Biso   1.000  H
  H104     1.0000 0.02590  0.74880  0.79370  Biso   1.000  H
  O65      1.0000 0.26800  0.80300  0.99860  Biso   1.000  O
  O66      1.0000 0.73200  0.30300  0.50140  Biso   1.000  O
  O67      1.0000 0.73200  0.19700  0.00140  Biso   1.000  O
  O68      1.0000 0.26800  0.69700  0.49860  Biso   1.000  O
  H105     1.0000 0.31910  0.80530  0.01410  Biso   1.000  H
  H106     1.0000 0.68090  0.30530  0.48590  Biso   1.000  H
  H107     1.0000 0.68090  0.19470  0.98590  Biso   1.000  H
  H108     1.0000 0.31910  0.69470  0.51410  Biso   1.000  H
  H109     1.0000 0.25450  0.77070  0.95730  Biso   1.000  H
  H110     1.0000 0.74550  0.27070  0.54270  Biso   1.000  H
  H111     1.0000 0.74550  0.22930  0.04270  Biso   1.000  H
  H112     1.0000 0.25450  0.72930  0.45730  Biso   1.000  H
  O69      1.0000 0.27060  0.34030  0.55020  Biso   1.000  O
  O70      1.0000 0.72940  0.84030  0.94980  Biso   1.000  O
  O71      1.0000 0.72940  0.65970  0.44980  Biso   1.000  O
  O72      1.0000 0.27060  0.15970  0.05020  Biso   1.000  O
  H113     1.0000 0.25860  0.30210  0.58340  Biso   1.000  H
  H114     1.0000 0.74140  0.80210  0.91660  Biso   1.000  H
  H115     1.0000 0.74140  0.69790  0.41660  Biso   1.000  H
  H116     1.0000 0.25860  0.19790  0.08340  Biso   1.000  H
  H117     1.0000 0.31700  0.36950  0.56680  Biso   1.000  H
  H118     1.0000 0.68300  0.86950  0.93320  Biso   1.000  H
  H119     1.0000 0.68300  0.63050  0.43320  Biso   1.000  H
  H120     1.0000 0.31700  0.13050  0.06680  Biso   1.000  H
