data_image0
_cell_length_a       14.8561
_cell_length_b       16.435
_cell_length_c       8.8988
_cell_angle_alpha    90
_cell_angle_beta     93.399
_cell_angle_gamma    90

_symmetry_space_group_name_H-M    "P 1"
_symmetry_int_tables_number       1

loop_
  _symmetry_equiv_pos_as_xyz
  'x, y, z'

loop_
  _atom_site_label
  _atom_site_occupancy
  _atom_site_fract_x
  _atom_site_fract_y
  _atom_site_fract_z
  _atom_site_thermal_displace_type
  _atom_site_B_iso_or_equiv
  _atom_site_type_symbol
  Mo1      1.0000 0.26165  0.14125  0.05200  Biso   1.000  Mo
  Mo2      1.0000 0.73835  0.64125  0.44800  Biso   1.000  Mo
  Mo3      1.0000 0.73835  0.85875  0.94800  Biso   1.000  Mo
  Mo4      1.0000 0.26165  0.35875  0.55200  Biso   1.000  Mo
  Mo5      1.0000 0.15523  0.99799  0.85220  Biso   1.000  Mo
  Mo6      1.0000 0.84477  0.49799  0.64780  Biso   1.000  Mo
  Mo7      1.0000 0.84477  0.00201  0.14780  Biso   1.000  Mo
  Mo8      1.0000 0.15523  0.50201  0.35220  Biso   1.000  Mo
  Cu1      1.0000 0.22148  0.01401  0.42177  Biso   1.000  Cu
  Cu2      1.0000 0.77852  0.51401  0.07823  Biso   1.000  Cu
  Cu3      1.0000 0.77852  0.98599  0.57823  Biso   1.000  Cu
  Cu4      1.0000 0.22148  0.48599  0.92177  Biso   1.000  Cu
  P1       1.0000 0.16633  0.19334  0.36383  Biso   1.000  P
  P2       1.0000 0.83367  0.69334  0.13617  Biso   1.000  P
  P3       1.0000 0.83367  0.80666  0.63617  Biso   1.000  P
  P4       1.0000 0.16633  0.30666  0.86383  Biso   1.000  P
  P5       1.0000 0.06608  0.06112  0.19404  Biso   1.000  P
  P6       1.0000 0.93392  0.56112  0.30596  Biso   1.000  P
  P7       1.0000 0.93392  0.93888  0.80596  Biso   1.000  P
  P8       1.0000 0.06608  0.43888  0.69404  Biso   1.000  P
  O1       1.0000 0.20360  0.12754  0.46750  Biso   1.000  O
  O2       1.0000 0.79640  0.62754  0.03250  Biso   1.000  O
  O3       1.0000 0.79640  0.87246  0.53250  Biso   1.000  O
  O4       1.0000 0.20360  0.37246  0.96750  Biso   1.000  O
  O5       1.0000 0.21969  0.20587  0.22350  Biso   1.000  O
  O6       1.0000 0.78031  0.70587  0.27650  Biso   1.000  O
  O7       1.0000 0.78031  0.79413  0.77650  Biso   1.000  O
  O8       1.0000 0.21969  0.29413  0.72350  Biso   1.000  O
  O9       1.0000 0.15741  0.27506  0.44090  Biso   1.000  O
  O10      1.0000 0.84259  0.77506  0.05910  Biso   1.000  O
  O11      1.0000 0.84259  0.72494  0.55910  Biso   1.000  O
  O12      1.0000 0.15741  0.22494  0.94090  Biso   1.000  O
  O13      1.0000 0.10771  0.00099  0.30540  Biso   1.000  O
  O14      1.0000 0.89229  0.50099  0.19460  Biso   1.000  O
  O15      1.0000 0.89229  0.99901  0.69460  Biso   1.000  O
  O16      1.0000 0.10771  0.49901  0.80540  Biso   1.000  O
  O17      1.0000 0.12323  0.07599  0.05810  Biso   1.000  O
  O18      1.0000 0.87677  0.57599  0.44190  Biso   1.000  O
  O19      1.0000 0.87677  0.92401  0.94190  Biso   1.000  O
  O20      1.0000 0.12323  0.42401  0.55810  Biso   1.000  O
  O21      1.0000 0.97105  0.03727  0.13530  Biso   1.000  O
  O22      1.0000 0.02895  0.53727  0.36470  Biso   1.000  O
  O23      1.0000 0.02895  0.96273  0.86470  Biso   1.000  O
  O24      1.0000 0.97105  0.46273  0.63530  Biso   1.000  O
  O25      1.0000 0.02070  0.21989  0.17440  Biso   1.000  O
  O26      1.0000 0.97930  0.71989  0.32560  Biso   1.000  O
  O27      1.0000 0.97930  0.78011  0.82560  Biso   1.000  O
  O28      1.0000 0.02070  0.28011  0.67440  Biso   1.000  O
  H1       1.0000 0.01520  0.26580  0.21700  Biso   1.000  H
  H2       1.0000 0.98480  0.76580  0.28300  Biso   1.000  H
  H3       1.0000 0.98480  0.73420  0.78300  Biso   1.000  H
  H4       1.0000 0.01520  0.23420  0.71700  Biso   1.000  H
  O29      1.0000 0.30580  0.06807  0.17040  Biso   1.000  O
  O30      1.0000 0.69420  0.56807  0.32960  Biso   1.000  O
  O31      1.0000 0.69420  0.93193  0.82960  Biso   1.000  O
  O32      1.0000 0.30580  0.43193  0.67040  Biso   1.000  O
  O33      1.0000 0.35068  0.19891  0.01030  Biso   1.000  O
  O34      1.0000 0.64932  0.69891  0.48970  Biso   1.000  O
  O35      1.0000 0.64932  0.80109  0.98970  Biso   1.000  O
  O36      1.0000 0.35068  0.30109  0.51030  Biso   1.000  O
  O37      1.0000 0.24581  0.07903  0.87240  Biso   1.000  O
  O38      1.0000 0.75419  0.57903  0.62760  Biso   1.000  O
  O39      1.0000 0.75419  0.92097  0.12760  Biso   1.000  O
  O40      1.0000 0.24581  0.42097  0.37240  Biso   1.000  O
  O41      1.0000 0.20080  0.92493  0.96590  Biso   1.000  O
  O42      1.0000 0.79920  0.42493  0.53410  Biso   1.000  O
  O43      1.0000 0.79920  0.07507  0.03410  Biso   1.000  O
  O44      1.0000 0.20080  0.57507  0.46590  Biso   1.000  O
  O45      1.0000 0.08050  0.10490  0.74140  Biso   1.000  O
  O46      1.0000 0.91950  0.60490  0.75860  Biso   1.000  O
  O47      1.0000 0.91950  0.89510  0.25860  Biso   1.000  O
  O48      1.0000 0.08050  0.39510  0.24140  Biso   1.000  O
  H5       1.0000 0.10890  0.14860  0.76350  Biso   1.000  H
  H6       1.0000 0.89110  0.64860  0.73650  Biso   1.000  H
  H7       1.0000 0.89110  0.85140  0.23650  Biso   1.000  H
  H8       1.0000 0.10890  0.35140  0.26350  Biso   1.000  H
  H9       1.0000 0.02780  0.10750  0.77350  Biso   1.000  H
  H10      1.0000 0.97220  0.60750  0.72650  Biso   1.000  H
  H11      1.0000 0.97220  0.89250  0.22650  Biso   1.000  H
  H12      1.0000 0.02780  0.39250  0.27350  Biso   1.000  H
  O49      1.0000 0.17320  0.96360  0.67600  Biso   1.000  O
  O50      1.0000 0.82680  0.46360  0.82400  Biso   1.000  O
  O51      1.0000 0.82680  0.03640  0.32400  Biso   1.000  O
  O52      1.0000 0.17320  0.53640  0.17600  Biso   1.000  O
  N1       1.0000 0.33760  0.01540  0.54840  Biso   1.000  N
  N2       1.0000 0.66240  0.51540  0.95160  Biso   1.000  N
  N3       1.0000 0.66240  0.98460  0.45160  Biso   1.000  N
  N4       1.0000 0.33760  0.48460  0.04840  Biso   1.000  N
  N5       1.0000 0.25620  0.89850  0.38700  Biso   1.000  N
  N6       1.0000 0.74380  0.39850  0.11300  Biso   1.000  N
  N7       1.0000 0.74380  0.10150  0.61300  Biso   1.000  N
  N8       1.0000 0.25620  0.60150  0.88700  Biso   1.000  N
  C1       1.0000 0.05490  0.15970  0.28830  Biso   1.000  C
  C2       1.0000 0.94510  0.65970  0.21170  Biso   1.000  C
  C3       1.0000 0.94510  0.84030  0.71170  Biso   1.000  C
  C4       1.0000 0.05490  0.34030  0.78830  Biso   1.000  C
  C5       1.0000 0.37770  0.94060  0.55390  Biso   1.000  C
  C6       1.0000 0.62230  0.44060  0.94610  Biso   1.000  C
  C7       1.0000 0.62230  0.05940  0.44610  Biso   1.000  C
  C8       1.0000 0.37770  0.55940  0.05390  Biso   1.000  C
  C9       1.0000 0.37310  0.07460  0.63210  Biso   1.000  C
  C10      1.0000 0.62690  0.57460  0.86790  Biso   1.000  C
  C11      1.0000 0.62690  0.92540  0.36790  Biso   1.000  C
  C12      1.0000 0.37310  0.42540  0.13210  Biso   1.000  C
  H13      1.0000 0.34410  0.12690  0.62880  Biso   1.000  H
  H14      1.0000 0.65590  0.62690  0.87120  Biso   1.000  H
  H15      1.0000 0.65590  0.87310  0.37120  Biso   1.000  H
  H16      1.0000 0.34410  0.37310  0.12880  Biso   1.000  H
  C13      1.0000 0.21320  0.84190  0.30580  Biso   1.000  C
  C14      1.0000 0.78680  0.34190  0.19420  Biso   1.000  C
  C15      1.0000 0.78680  0.15810  0.69420  Biso   1.000  C
  C16      1.0000 0.21320  0.65810  0.80580  Biso   1.000  C
  H17      1.0000 0.15800  0.85630  0.25060  Biso   1.000  H
  H18      1.0000 0.84200  0.35630  0.24940  Biso   1.000  H
  H19      1.0000 0.84200  0.14370  0.74940  Biso   1.000  H
  H20      1.0000 0.15800  0.64370  0.75060  Biso   1.000  H
  C17      1.0000 0.33470  0.87830  0.46590  Biso   1.000  C
  C18      1.0000 0.66530  0.37830  0.03410  Biso   1.000  C
  C19      1.0000 0.66530  0.12170  0.53410  Biso   1.000  C
  C20      1.0000 0.33470  0.62170  0.96590  Biso   1.000  C
  C21      1.0000 0.45700  0.92490  0.64200  Biso   1.000  C
  C22      1.0000 0.54300  0.42490  0.85800  Biso   1.000  C
  C23      1.0000 0.54300  0.07510  0.35800  Biso   1.000  C
  C24      1.0000 0.45700  0.57510  0.14200  Biso   1.000  C
  C25      1.0000 0.45150  0.06330  0.72530  Biso   1.000  C
  C26      1.0000 0.54850  0.56330  0.77470  Biso   1.000  C
  C27      1.0000 0.54850  0.93670  0.27470  Biso   1.000  C
  C28      1.0000 0.45150  0.43670  0.22530  Biso   1.000  C
  H21      1.0000 0.47590  0.10740  0.78570  Biso   1.000  H
  H22      1.0000 0.52410  0.60740  0.71430  Biso   1.000  H
  H23      1.0000 0.52410  0.89260  0.21430  Biso   1.000  H
  H24      1.0000 0.47590  0.39260  0.28570  Biso   1.000  H
  C29      1.0000 0.37200  0.79940  0.46370  Biso   1.000  C
  C30      1.0000 0.62800  0.29940  0.03630  Biso   1.000  C
  C31      1.0000 0.62800  0.20060  0.53630  Biso   1.000  C
  C32      1.0000 0.37200  0.70060  0.96370  Biso   1.000  C
  C33      1.0000 0.99410  0.14980  0.41390  Biso   1.000  C
  C34      1.0000 0.00590  0.64980  0.08610  Biso   1.000  C
  C35      1.0000 0.00590  0.85020  0.58610  Biso   1.000  C
  C36      1.0000 0.99410  0.35020  0.91390  Biso   1.000  C
  H25      1.0000 0.98700  0.20060  0.46510  Biso   1.000  H
  H26      1.0000 0.01300  0.70060  0.03490  Biso   1.000  H
  H27      1.0000 0.01300  0.79940  0.53490  Biso   1.000  H
  H28      1.0000 0.98700  0.29940  0.96510  Biso   1.000  H
  H29      1.0000 0.93620  0.13030  0.37630  Biso   1.000  H
  H30      1.0000 0.06380  0.63030  0.12370  Biso   1.000  H
  H31      1.0000 0.06380  0.86970  0.62370  Biso   1.000  H
  H32      1.0000 0.93620  0.36970  0.87630  Biso   1.000  H
  H33      1.0000 0.02130  0.11070  0.48280  Biso   1.000  H
  H34      1.0000 0.97870  0.61070  0.01720  Biso   1.000  H
  H35      1.0000 0.97870  0.88930  0.51720  Biso   1.000  H
  H36      1.0000 0.02130  0.38930  0.98280  Biso   1.000  H
  C37      1.0000 0.49480  0.84460  0.63410  Biso   1.000  C
  C38      1.0000 0.50520  0.34460  0.86590  Biso   1.000  C
  C39      1.0000 0.50520  0.15540  0.36590  Biso   1.000  C
  C40      1.0000 0.49480  0.65540  0.13410  Biso   1.000  C
  H37      1.0000 0.54990  0.83290  0.69180  Biso   1.000  H
  H38      1.0000 0.45010  0.33290  0.80820  Biso   1.000  H
  H39      1.0000 0.45010  0.16710  0.30820  Biso   1.000  H
  H40      1.0000 0.54990  0.66710  0.19180  Biso   1.000  H
  C41      1.0000 0.24520  0.76240  0.29890  Biso   1.000  C
  C42      1.0000 0.75480  0.26240  0.20110  Biso   1.000  C
  C43      1.0000 0.75480  0.23760  0.70110  Biso   1.000  C
  C44      1.0000 0.24520  0.73760  0.79890  Biso   1.000  C
  H41      1.0000 0.21190  0.72240  0.24010  Biso   1.000  H
  H42      1.0000 0.78810  0.22240  0.25990  Biso   1.000  H
  H43      1.0000 0.78810  0.27760  0.75990  Biso   1.000  H
  H44      1.0000 0.21190  0.77760  0.74010  Biso   1.000  H
  C45      1.0000 0.32440  0.74140  0.37730  Biso   1.000  C
  C46      1.0000 0.67560  0.24140  0.12270  Biso   1.000  C
  C47      1.0000 0.67560  0.25860  0.62270  Biso   1.000  C
  C48      1.0000 0.32440  0.75860  0.87730  Biso   1.000  C
  H45      1.0000 0.34730  0.68690  0.37160  Biso   1.000  H
  H46      1.0000 0.65270  0.18690  0.12840  Biso   1.000  H
  H47      1.0000 0.65270  0.31310  0.62840  Biso   1.000  H
  H48      1.0000 0.34730  0.81310  0.87160  Biso   1.000  H
  C49      1.0000 0.49270  0.98980  0.73000  Biso   1.000  C
  C50      1.0000 0.50730  0.48980  0.77000  Biso   1.000  C
  C51      1.0000 0.50730  0.01020  0.27000  Biso   1.000  C
  C52      1.0000 0.49270  0.51020  0.23000  Biso   1.000  C
  H49      1.0000 0.54650  0.98160  0.79330  Biso   1.000  H
  H50      1.0000 0.45350  0.48160  0.70670  Biso   1.000  H
  H51      1.0000 0.45350  0.01840  0.20670  Biso   1.000  H
  H52      1.0000 0.54650  0.51840  0.29330  Biso   1.000  H
  C53      1.0000 0.45520  0.78570  0.54920  Biso   1.000  C
  C54      1.0000 0.54480  0.28570  0.95080  Biso   1.000  C
  C55      1.0000 0.54480  0.21430  0.45080  Biso   1.000  C
  C56      1.0000 0.45520  0.71430  0.04920  Biso   1.000  C
  H53      1.0000 0.48330  0.73330  0.54500  Biso   1.000  H
  H54      1.0000 0.51670  0.23330  0.95500  Biso   1.000  H
  H55      1.0000 0.51670  0.26670  0.45500  Biso   1.000  H
  H56      1.0000 0.48330  0.76670  0.04500  Biso   1.000  H
