data_image0
_cell_length_a       8.0745
_cell_length_b       8.0745
_cell_length_c       21.173
_cell_angle_alpha    90
_cell_angle_beta     90
_cell_angle_gamma    90

_symmetry_space_group_name_H-M    "P 1"
_symmetry_int_tables_number       1

loop_
  _symmetry_equiv_pos_as_xyz
  'x, y, z'

loop_
  _atom_site_label
  _atom_site_occupancy
  _atom_site_fract_x
  _atom_site_fract_y
  _atom_site_fract_z
  _atom_site_thermal_displace_type
  _atom_site_B_iso_or_equiv
  _atom_site_type_symbol
  O1       1.0000 0.34940  0.05300  0.07650  Biso   1.000  O
  O2       1.0000 0.65060  0.94700  0.57650  Biso   1.000  O
  O3       1.0000 0.94700  0.34940  0.32650  Biso   1.000  O
  O4       1.0000 0.05300  0.65060  0.82650  Biso   1.000  O
  O5       1.0000 0.62860  0.99520  0.06540  Biso   1.000  O
  O6       1.0000 0.37140  0.00480  0.56540  Biso   1.000  O
  O7       1.0000 0.00480  0.62860  0.31540  Biso   1.000  O
  O8       1.0000 0.99520  0.37140  0.81540  Biso   1.000  O
  O9       1.0000 0.48030  0.11640  0.98420  Biso   1.000  O
  O10      1.0000 0.51970  0.88360  0.48420  Biso   1.000  O
  O11      1.0000 0.88360  0.48030  0.23420  Biso   1.000  O
  O12      1.0000 0.11640  0.51970  0.73420  Biso   1.000  O
  O13      1.0000 0.43430  0.84260  0.01070  Biso   1.000  O
  O14      1.0000 0.56570  0.15740  0.51070  Biso   1.000  O
  O15      1.0000 0.15740  0.43430  0.26070  Biso   1.000  O
  O16      1.0000 0.84260  0.56570  0.76070  Biso   1.000  O
  Cl1      1.0000 0.47506  0.00392  0.03415  Biso   1.000  Cl
  Cl2      1.0000 0.52494  0.99608  0.53415  Biso   1.000  Cl
  Cl3      1.0000 0.99608  0.47506  0.28415  Biso   1.000  Cl
  Cl4      1.0000 0.00392  0.52494  0.78415  Biso   1.000  Cl
  Cu1      1.0000 0.48986  0.52899  0.07276  Biso   1.000  Cu
  Cu2      1.0000 0.51014  0.47101  0.57276  Biso   1.000  Cu
  Cu3      1.0000 0.47101  0.48986  0.32276  Biso   1.000  Cu
  Cu4      1.0000 0.52899  0.51014  0.82276  Biso   1.000  Cu
  N1       1.0000 0.50850  0.50780  0.98380  Biso   1.000  N
  N2       1.0000 0.49150  0.49220  0.48380  Biso   1.000  N
  N3       1.0000 0.49220  0.50850  0.23380  Biso   1.000  N
  N4       1.0000 0.50780  0.49150  0.73380  Biso   1.000  N
  N5       1.0000 0.26810  0.42270  0.05767  Biso   1.000  N
  N6       1.0000 0.73190  0.57730  0.55767  Biso   1.000  N
  N7       1.0000 0.57730  0.26810  0.30767  Biso   1.000  N
  N8       1.0000 0.42270  0.73190  0.80767  Biso   1.000  N
  O17      1.0000 0.66710  0.58520  0.89759  Biso   1.000  O
  O18      1.0000 0.33290  0.41480  0.39759  Biso   1.000  O
  O19      1.0000 0.41480  0.66710  0.14759  Biso   1.000  O
  O20      1.0000 0.58520  0.33290  0.64759  Biso   1.000  O
  C1       1.0000 0.24100  0.39150  0.99600  Biso   1.000  C
  C2       1.0000 0.75900  0.60850  0.49600  Biso   1.000  C
  C3       1.0000 0.60850  0.24100  0.24600  Biso   1.000  C
  C4       1.0000 0.39150  0.75900  0.74600  Biso   1.000  C
  C5       1.0000 0.76040  0.63880  0.00150  Biso   1.000  C
  C6       1.0000 0.23960  0.36120  0.50150  Biso   1.000  C
  C7       1.0000 0.36120  0.76040  0.25150  Biso   1.000  C
  C8       1.0000 0.63880  0.23960  0.75150  Biso   1.000  C
  O21      1.0000 0.35540  0.42050  0.89509  Biso   1.000  O
  O22      1.0000 0.64460  0.57950  0.39509  Biso   1.000  O
  O23      1.0000 0.57950  0.35540  0.14509  Biso   1.000  O
  O24      1.0000 0.42050  0.64460  0.64509  Biso   1.000  O
  N9       1.0000 0.71640  0.62880  0.06190  Biso   1.000  N
  N10      1.0000 0.28360  0.37120  0.56190  Biso   1.000  N
  N11      1.0000 0.37120  0.71640  0.31190  Biso   1.000  N
  N12      1.0000 0.62880  0.28360  0.81190  Biso   1.000  N
  C9       1.0000 0.97900  0.27110  0.02080  Biso   1.000  C
  C10      1.0000 0.02100  0.72890  0.52080  Biso   1.000  C
  C11      1.0000 0.72890  0.97900  0.27080  Biso   1.000  C
  C12      1.0000 0.27110  0.02100  0.77080  Biso   1.000  C
  H1       1.0000 0.88100  0.21950  0.00860  Biso   1.000  H
  H2       1.0000 0.11900  0.78050  0.50860  Biso   1.000  H
  H3       1.0000 0.78050  0.88100  0.25860  Biso   1.000  H
  H4       1.0000 0.21950  0.11900  0.75860  Biso   1.000  H
  C13      1.0000 0.00950  0.30290  0.08330  Biso   1.000  C
  C14      1.0000 0.99050  0.69710  0.58330  Biso   1.000  C
  C15      1.0000 0.69710  0.00950  0.33330  Biso   1.000  C
  C16      1.0000 0.30290  0.99050  0.83330  Biso   1.000  C
  H5       1.0000 0.93340  0.27220  0.11410  Biso   1.000  H
  H6       1.0000 0.06660  0.72780  0.61410  Biso   1.000  H
  H7       1.0000 0.72780  0.93340  0.36410  Biso   1.000  H
  H8       1.0000 0.27220  0.06660  0.86410  Biso   1.000  H
  C17      1.0000 0.64030  0.57010  0.95540  Biso   1.000  C
  C18      1.0000 0.35970  0.42990  0.45540  Biso   1.000  C
  C19      1.0000 0.42990  0.64030  0.20540  Biso   1.000  C
  C20      1.0000 0.57010  0.35970  0.70540  Biso   1.000  C
  C21      1.0000 0.37270  0.43730  0.95230  Biso   1.000  C
  C22      1.0000 0.62730  0.56270  0.45230  Biso   1.000  C
  C23      1.0000 0.56270  0.37270  0.20230  Biso   1.000  C
  C24      1.0000 0.43730  0.62730  0.70230  Biso   1.000  C
  C25      1.0000 0.90640  0.70760  0.98220  Biso   1.000  C
  C26      1.0000 0.09360  0.29240  0.48220  Biso   1.000  C
  C27      1.0000 0.29240  0.90640  0.23220  Biso   1.000  C
  C28      1.0000 0.70760  0.09360  0.73220  Biso   1.000  C
  H9       1.0000 0.93390  0.71220  0.93960  Biso   1.000  H
  H10      1.0000 0.06610  0.28780  0.43960  Biso   1.000  H
  H11      1.0000 0.28780  0.93390  0.18960  Biso   1.000  H
  H12      1.0000 0.71220  0.06610  0.68960  Biso   1.000  H
  C29      1.0000 0.96720  0.75980  0.08970  Biso   1.000  C
  C30      1.0000 0.03280  0.24020  0.58970  Biso   1.000  C
  C31      1.0000 0.24020  0.96720  0.33970  Biso   1.000  C
  C32      1.0000 0.75980  0.03280  0.83970  Biso   1.000  C
  H13      1.0000 0.03580  0.80130  0.12120  Biso   1.000  H
  H14      1.0000 0.96420  0.19870  0.62120  Biso   1.000  H
  H15      1.0000 0.19870  0.03580  0.37120  Biso   1.000  H
  H16      1.0000 0.80130  0.96420  0.87120  Biso   1.000  H
  C33      1.0000 0.09480  0.31620  0.97610  Biso   1.000  C
  C34      1.0000 0.90520  0.68380  0.47610  Biso   1.000  C
  C35      1.0000 0.68380  0.09480  0.22610  Biso   1.000  C
  C36      1.0000 0.31620  0.90520  0.72610  Biso   1.000  C
  H17      1.0000 0.07560  0.29660  0.93340  Biso   1.000  H
  H18      1.0000 0.92440  0.70340  0.43340  Biso   1.000  H
  H19      1.0000 0.70340  0.07560  0.18340  Biso   1.000  H
  H20      1.0000 0.29660  0.92440  0.68340  Biso   1.000  H
  C37      1.0000 0.81720  0.68650  0.10530  Biso   1.000  C
  C38      1.0000 0.18280  0.31350  0.60530  Biso   1.000  C
  C39      1.0000 0.31350  0.81720  0.35530  Biso   1.000  C
  C40      1.0000 0.68650  0.18280  0.85530  Biso   1.000  C
  H21      1.0000 0.78730  0.67820  0.14750  Biso   1.000  H
  H22      1.0000 0.21270  0.32180  0.64750  Biso   1.000  H
  H23      1.0000 0.32180  0.78730  0.39750  Biso   1.000  H
  H24      1.0000 0.67820  0.21270  0.89750  Biso   1.000  H
  C41      1.0000 0.01340  0.77070  0.02830  Biso   1.000  C
  C42      1.0000 0.98660  0.22930  0.52830  Biso   1.000  C
  C43      1.0000 0.22930  0.01340  0.27830  Biso   1.000  C
  C44      1.0000 0.77070  0.98660  0.77830  Biso   1.000  C
  H25      1.0000 0.11370  0.81890  0.01700  Biso   1.000  H
  H26      1.0000 0.88630  0.18110  0.51700  Biso   1.000  H
  H27      1.0000 0.18110  0.11370  0.26700  Biso   1.000  H
  H28      1.0000 0.81890  0.88630  0.76700  Biso   1.000  H
  C45      1.0000 0.15380  0.38070  0.09960  Biso   1.000  C
  C46      1.0000 0.84620  0.61930  0.59960  Biso   1.000  C
  C47      1.0000 0.61930  0.15380  0.34960  Biso   1.000  C
  C48      1.0000 0.38070  0.84620  0.84960  Biso   1.000  C
  H29      1.0000 0.17260  0.40510  0.14200  Biso   1.000  H
  H30      1.0000 0.82740  0.59490  0.64200  Biso   1.000  H
  H31      1.0000 0.59490  0.17260  0.39200  Biso   1.000  H
  H32      1.0000 0.40510  0.82740  0.89200  Biso   1.000  H
