data_image0
_cell_length_a       8.071
_cell_length_b       8.071
_cell_length_c       21.291
_cell_angle_alpha    90
_cell_angle_beta     90
_cell_angle_gamma    90

_symmetry_space_group_name_H-M    "P 1"
_symmetry_int_tables_number       1

loop_
  _symmetry_equiv_pos_as_xyz
  'x, y, z'

loop_
  _atom_site_label
  _atom_site_occupancy
  _atom_site_fract_x
  _atom_site_fract_y
  _atom_site_fract_z
  _atom_site_thermal_displace_type
  _atom_site_B_iso_or_equiv
  _atom_site_type_symbol
  Cu1      1.0000 0.96940  0.98950  0.26210  Biso   1.000  Cu
  Cu2      1.0000 0.01050  0.96940  0.51210  Biso   1.000  Cu
  Cu3      1.0000 0.03060  0.01050  0.76210  Biso   1.000  Cu
  Cu4      1.0000 0.98950  0.03060  0.01210  Biso   1.000  Cu
  O1       1.0000 0.08270  0.85700  0.08450  Biso   1.000  O
  O2       1.0000 0.14300  0.08270  0.33450  Biso   1.000  O
  O3       1.0000 0.91730  0.14300  0.58450  Biso   1.000  O
  O4       1.0000 0.85700  0.91730  0.83450  Biso   1.000  O
  N1       1.0000 0.07450  0.76860  0.24810  Biso   1.000  N
  N2       1.0000 0.23140  0.07450  0.49810  Biso   1.000  N
  N3       1.0000 0.92550  0.23140  0.74810  Biso   1.000  N
  N4       1.0000 0.76860  0.92550  0.99810  Biso   1.000  N
  C1       1.0000 0.19630  0.50510  0.27380  Biso   1.000  C
  C2       1.0000 0.49490  0.19630  0.52380  Biso   1.000  C
  C3       1.0000 0.80370  0.49490  0.77380  Biso   1.000  C
  C4       1.0000 0.50510  0.80370  0.02380  Biso   1.000  C
  C5       1.0000 0.11060  0.74100  0.18620  Biso   1.000  C
  C6       1.0000 0.25900  0.11060  0.43620  Biso   1.000  C
  C7       1.0000 0.88940  0.25900  0.68620  Biso   1.000  C
  C8       1.0000 0.74100  0.88940  0.93620  Biso   1.000  C
  C9       1.0000 0.92980  0.13950  0.14410  Biso   1.000  C
  C10      1.0000 0.86050  0.92980  0.39410  Biso   1.000  C
  C11      1.0000 0.07020  0.86050  0.64410  Biso   1.000  C
  C12      1.0000 0.13950  0.07020  0.89410  Biso   1.000  C
  C13      1.0000 0.23100  0.47850  0.20960  Biso   1.000  C
  C14      1.0000 0.52150  0.23100  0.45960  Biso   1.000  C
  C15      1.0000 0.76900  0.52150  0.70960  Biso   1.000  C
  C16      1.0000 0.47850  0.76900  0.95960  Biso   1.000  C
  C17      1.0000 0.06280  0.87350  0.14090  Biso   1.000  C
  C18      1.0000 0.12650  0.06280  0.39090  Biso   1.000  C
  C19      1.0000 0.93720  0.12650  0.64090  Biso   1.000  C
  C20      1.0000 0.87350  0.93720  0.89090  Biso   1.000  C
  N5       1.0000 0.86980  0.21590  0.25180  Biso   1.000  N
  N6       1.0000 0.78410  0.86980  0.50180  Biso   1.000  N
  N7       1.0000 0.13020  0.78410  0.75180  Biso   1.000  N
  N8       1.0000 0.21590  0.13020  0.00180  Biso   1.000  N
  O5       1.0000 0.91420  0.16760  0.08750  Biso   1.000  O
  O6       1.0000 0.83240  0.91420  0.33750  Biso   1.000  O
  O7       1.0000 0.08580  0.83240  0.58750  Biso   1.000  O
  O8       1.0000 0.16760  0.08580  0.83750  Biso   1.000  O
  C21      1.0000 0.86200  0.26130  0.19090  Biso   1.000  C
  C22      1.0000 0.73870  0.86200  0.44090  Biso   1.000  C
  C23      1.0000 0.13800  0.73870  0.69090  Biso   1.000  C
  C24      1.0000 0.26130  0.13800  0.94090  Biso   1.000  C
  C25      1.0000 0.11770  0.65440  0.28970  Biso   1.000  C
  C26      1.0000 0.34560  0.11770  0.53970  Biso   1.000  C
  C27      1.0000 0.88230  0.34560  0.78970  Biso   1.000  C
  C28      1.0000 0.65440  0.88230  0.03970  Biso   1.000  C
  N9       1.0000 0.99850  0.00820  0.17170  Biso   1.000  N
  N10      1.0000 0.99180  0.99850  0.42170  Biso   1.000  N
  N11      1.0000 0.00150  0.99180  0.67170  Biso   1.000  N
  N12      1.0000 0.00820  0.00150  0.92170  Biso   1.000  N
  C29      1.0000 0.72890  0.51560  0.21820  Biso   1.000  C
  C30      1.0000 0.48440  0.72890  0.46820  Biso   1.000  C
  C31      1.0000 0.27110  0.48440  0.71820  Biso   1.000  C
  C32      1.0000 0.51560  0.27110  0.96820  Biso   1.000  C
  C33      1.0000 0.78990  0.41000  0.17090  Biso   1.000  C
  C34      1.0000 0.59000  0.78990  0.42090  Biso   1.000  C
  C35      1.0000 0.21010  0.59000  0.67090  Biso   1.000  C
  C36      1.0000 0.41000  0.21010  0.92090  Biso   1.000  C
  C37      1.0000 0.18550  0.59590  0.16600  Biso   1.000  C
  C38      1.0000 0.40410  0.18550  0.41600  Biso   1.000  C
  C39      1.0000 0.81450  0.40410  0.66600  Biso   1.000  C
  C40      1.0000 0.59590  0.81450  0.91600  Biso   1.000  C
  C41      1.0000 0.74090  0.46890  0.27920  Biso   1.000  C
  C42      1.0000 0.53110  0.74090  0.52920  Biso   1.000  C
  C43      1.0000 0.25910  0.53110  0.77920  Biso   1.000  C
  C44      1.0000 0.46890  0.25910  0.02920  Biso   1.000  C
  C45      1.0000 0.81380  0.31540  0.29520  Biso   1.000  C
  C46      1.0000 0.68460  0.81380  0.54520  Biso   1.000  C
  C47      1.0000 0.18620  0.68460  0.79520  Biso   1.000  C
  C48      1.0000 0.31540  0.18620  0.04520  Biso   1.000  C
  Cl1      1.0000 0.50440  0.02370  0.72380  Biso   1.000  Cl
  Cl2      1.0000 0.97630  0.50440  0.97380  Biso   1.000  Cl
  Cl3      1.0000 0.49560  0.97630  0.22380  Biso   1.000  Cl
  Cl4      1.0000 0.02370  0.49560  0.47380  Biso   1.000  Cl
  O9       1.0000 0.55430  0.15000  0.76600  Biso   1.000  O
  O10      1.0000 0.85000  0.55430  0.01600  Biso   1.000  O
  O11      1.0000 0.44570  0.85000  0.26600  Biso   1.000  O
  O12      1.0000 0.15000  0.44570  0.51600  Biso   1.000  O
  O13      1.0000 0.49350  0.87040  0.75730  Biso   1.000  O
  O14      1.0000 0.12960  0.49350  0.00730  Biso   1.000  O
  O15      1.0000 0.50650  0.12960  0.25730  Biso   1.000  O
  O16      1.0000 0.87040  0.50650  0.50730  Biso   1.000  O
  O17      1.0000 0.34190  0.06190  0.69870  Biso   1.000  O
  O18      1.0000 0.93810  0.34190  0.94870  Biso   1.000  O
  O19      1.0000 0.65810  0.93810  0.19870  Biso   1.000  O
  O20      1.0000 0.06190  0.65810  0.44870  Biso   1.000  O
  O21      1.0000 0.61870  0.01500  0.67260  Biso   1.000  O
  O22      1.0000 0.98500  0.61870  0.92260  Biso   1.000  O
  O23      1.0000 0.38130  0.98500  0.17260  Biso   1.000  O
  O24      1.0000 0.01500  0.38130  0.42260  Biso   1.000  O
  H1       1.0000 0.68100  0.52700  0.31610  Biso   1.000  H
  H2       1.0000 0.47300  0.68100  0.56610  Biso   1.000  H
  H3       1.0000 0.31900  0.47300  0.81610  Biso   1.000  H
  H4       1.0000 0.52700  0.31900  0.06610  Biso   1.000  H
  H5       1.0000 0.21100  0.58000  0.13800  Biso   1.000  H
  H6       1.0000 0.42000  0.21100  0.38800  Biso   1.000  H
  H7       1.0000 0.78900  0.42000  0.63800  Biso   1.000  H
  H8       1.0000 0.58000  0.78900  0.88800  Biso   1.000  H
  H9       1.0000 0.27200  0.38900  0.18940  Biso   1.000  H
  H10      1.0000 0.61100  0.27200  0.43940  Biso   1.000  H
  H11      1.0000 0.72800  0.61100  0.68940  Biso   1.000  H
  H12      1.0000 0.38900  0.72800  0.93940  Biso   1.000  H
  H13      1.0000 0.80900  0.24800  0.34930  Biso   1.000  H
  H14      1.0000 0.75200  0.80900  0.59930  Biso   1.000  H
  H15      1.0000 0.19100  0.75200  0.84930  Biso   1.000  H
  H16      1.0000 0.24800  0.19100  0.09930  Biso   1.000  H
  H17      1.0000 0.08700  0.68100  0.33000  Biso   1.000  H
  H18      1.0000 0.31900  0.08700  0.58000  Biso   1.000  H
  H19      1.0000 0.91300  0.31900  0.83000  Biso   1.000  H
  H20      1.0000 0.68100  0.91300  0.08000  Biso   1.000  H
  H21      1.0000 0.81200  0.44700  0.14630  Biso   1.000  H
  H22      1.0000 0.55300  0.81200  0.39630  Biso   1.000  H
  H23      1.0000 0.18800  0.55300  0.64630  Biso   1.000  H
  H24      1.0000 0.44700  0.18800  0.89630  Biso   1.000  H
  H25      1.0000 0.73800  0.62000  0.19250  Biso   1.000  H
  H26      1.0000 0.38000  0.73800  0.44250  Biso   1.000  H
  H27      1.0000 0.26200  0.38000  0.69250  Biso   1.000  H
  H28      1.0000 0.62000  0.26200  0.94250  Biso   1.000  H
