data_image0
_cell_length_a       25.417
_cell_length_b       13.905
_cell_length_c       10.677
_cell_angle_alpha    90
_cell_angle_beta     97.61
_cell_angle_gamma    90

_symmetry_space_group_name_H-M    "P 1"
_symmetry_int_tables_number       1

loop_
  _symmetry_equiv_pos_as_xyz
  'x, y, z'

loop_
  _atom_site_label
  _atom_site_occupancy
  _atom_site_fract_x
  _atom_site_fract_y
  _atom_site_fract_z
  _atom_site_thermal_displace_type
  _atom_site_B_iso_or_equiv
  _atom_site_type_symbol
  Cu1      1.0000 0.25000  0.25000  0.00000  Biso   1.000  Cu
  Cu2      1.0000 0.75000  0.75000  0.00000  Biso   1.000  Cu
  Cu3      1.0000 0.75000  0.25000  0.50000  Biso   1.000  Cu
  Cu4      1.0000 0.25000  0.75000  0.50000  Biso   1.000  Cu
  N1       1.0000 0.30840  0.33330  0.95780  Biso   1.000  N
  N2       1.0000 0.80840  0.83330  0.95780  Biso   1.000  N
  N3       1.0000 0.69160  0.33330  0.54220  Biso   1.000  N
  N4       1.0000 0.19160  0.83330  0.54220  Biso   1.000  N
  N5       1.0000 0.69160  0.66670  0.04220  Biso   1.000  N
  N6       1.0000 0.19160  0.16670  0.04220  Biso   1.000  N
  N7       1.0000 0.30840  0.66670  0.45780  Biso   1.000  N
  N8       1.0000 0.80840  0.16670  0.45780  Biso   1.000  N
  C1       1.0000 0.34490  0.31670  0.88280  Biso   1.000  C
  C2       1.0000 0.84490  0.81670  0.88280  Biso   1.000  C
  C3       1.0000 0.65510  0.31670  0.61720  Biso   1.000  C
  C4       1.0000 0.15510  0.81670  0.61720  Biso   1.000  C
  C5       1.0000 0.65510  0.68330  0.11720  Biso   1.000  C
  C6       1.0000 0.15510  0.18330  0.11720  Biso   1.000  C
  C7       1.0000 0.34490  0.68330  0.38280  Biso   1.000  C
  C8       1.0000 0.84490  0.18330  0.38280  Biso   1.000  C
  N9       1.0000 0.37140  0.39660  0.86540  Biso   1.000  N
  N10      1.0000 0.87140  0.89660  0.86540  Biso   1.000  N
  N11      1.0000 0.62860  0.39660  0.63460  Biso   1.000  N
  N12      1.0000 0.12860  0.89660  0.63460  Biso   1.000  N
  N13      1.0000 0.62860  0.60340  0.13460  Biso   1.000  N
  N14      1.0000 0.12860  0.10340  0.13460  Biso   1.000  N
  N15      1.0000 0.37140  0.60340  0.36540  Biso   1.000  N
  N16      1.0000 0.87140  0.10340  0.36540  Biso   1.000  N
  C9       1.0000 0.35230  0.46950  0.93280  Biso   1.000  C
  C10      1.0000 0.85230  0.96950  0.93280  Biso   1.000  C
  C11      1.0000 0.64770  0.46950  0.56720  Biso   1.000  C
  C12      1.0000 0.14770  0.96950  0.56720  Biso   1.000  C
  C13      1.0000 0.64770  0.53050  0.06720  Biso   1.000  C
  C14      1.0000 0.14770  0.03050  0.06720  Biso   1.000  C
  C15      1.0000 0.35230  0.53050  0.43280  Biso   1.000  C
  C16      1.0000 0.85230  0.03050  0.43280  Biso   1.000  C
  C17      1.0000 0.37360  0.56870  0.93420  Biso   1.000  C
  C18      1.0000 0.87360  0.06870  0.93420  Biso   1.000  C
  C19      1.0000 0.62640  0.56870  0.56580  Biso   1.000  C
  C20      1.0000 0.12640  0.06870  0.56580  Biso   1.000  C
  C21      1.0000 0.62640  0.43130  0.06580  Biso   1.000  C
  C22      1.0000 0.12640  0.93130  0.06580  Biso   1.000  C
  C23      1.0000 0.37360  0.43130  0.43420  Biso   1.000  C
  C24      1.0000 0.87360  0.93130  0.43420  Biso   1.000  C
  C25      1.0000 0.31310  0.42950  0.98990  Biso   1.000  C
  C26      1.0000 0.81310  0.92950  0.98990  Biso   1.000  C
  C27      1.0000 0.68690  0.42950  0.51010  Biso   1.000  C
  C28      1.0000 0.18690  0.92950  0.51010  Biso   1.000  C
  C29      1.0000 0.68690  0.57050  0.01010  Biso   1.000  C
  C30      1.0000 0.18690  0.07050  0.01010  Biso   1.000  C
  C31      1.0000 0.31310  0.57050  0.48990  Biso   1.000  C
  C32      1.0000 0.81310  0.07050  0.48990  Biso   1.000  C
  C33      1.0000 0.27770  0.47410  0.07460  Biso   1.000  C
  C34      1.0000 0.77770  0.97410  0.07460  Biso   1.000  C
  C35      1.0000 0.72230  0.47410  0.42540  Biso   1.000  C
  C36      1.0000 0.22230  0.97410  0.42540  Biso   1.000  C
  C37      1.0000 0.72230  0.52590  0.92540  Biso   1.000  C
  C38      1.0000 0.22230  0.02590  0.92540  Biso   1.000  C
  C39      1.0000 0.27770  0.52590  0.57460  Biso   1.000  C
  C40      1.0000 0.77770  0.02590  0.57460  Biso   1.000  C
  S1       1.0000 0.20857  0.44241  0.03063  Biso   1.000  S
  S2       1.0000 0.70857  0.94241  0.03063  Biso   1.000  S
  S3       1.0000 0.79143  0.44241  0.46937  Biso   1.000  S
  S4       1.0000 0.29143  0.94241  0.46937  Biso   1.000  S
  S5       1.0000 0.79143  0.55759  0.96937  Biso   1.000  S
  S6       1.0000 0.29143  0.05759  0.96937  Biso   1.000  S
  S7       1.0000 0.20857  0.55759  0.53063  Biso   1.000  S
  S8       1.0000 0.70857  0.05759  0.53063  Biso   1.000  S
  C41      1.0000 0.19720  0.49120  0.87250  Biso   1.000  C
  C42      1.0000 0.69720  0.99120  0.87250  Biso   1.000  C
  C43      1.0000 0.80280  0.49120  0.62750  Biso   1.000  C
  C44      1.0000 0.30280  0.99120  0.62750  Biso   1.000  C
  C45      1.0000 0.80280  0.50880  0.12750  Biso   1.000  C
  C46      1.0000 0.30280  0.00880  0.12750  Biso   1.000  C
  C47      1.0000 0.19720  0.50880  0.37250  Biso   1.000  C
  C48      1.0000 0.69720  0.00880  0.37250  Biso   1.000  C
  C49      1.0000 0.19480  0.60030  0.86850  Biso   1.000  C
  C50      1.0000 0.69480  0.10030  0.86850  Biso   1.000  C
  C51      1.0000 0.80520  0.60030  0.63150  Biso   1.000  C
  C52      1.0000 0.30520  0.10030  0.63150  Biso   1.000  C
  C53      1.0000 0.80520  0.39970  0.13150  Biso   1.000  C
  C54      1.0000 0.30520  0.89970  0.13150  Biso   1.000  C
  C55      1.0000 0.19480  0.39970  0.36850  Biso   1.000  C
  C56      1.0000 0.69480  0.89970  0.36850  Biso   1.000  C
  N17      1.0000 0.15040  0.63750  0.92530  Biso   1.000  N
  N18      1.0000 0.65040  0.13750  0.92530  Biso   1.000  N
  N19      1.0000 0.84960  0.63750  0.57470  Biso   1.000  N
  N20      1.0000 0.34960  0.13750  0.57470  Biso   1.000  N
  N21      1.0000 0.84960  0.36250  0.07470  Biso   1.000  N
  N22      1.0000 0.34960  0.86250  0.07470  Biso   1.000  N
  N23      1.0000 0.15040  0.36250  0.42530  Biso   1.000  N
  N24      1.0000 0.65040  0.86250  0.42530  Biso   1.000  N
  C57      1.0000 0.15450  0.67230  0.04270  Biso   1.000  C
  C58      1.0000 0.65450  0.17230  0.04270  Biso   1.000  C
  C59      1.0000 0.84550  0.67230  0.45730  Biso   1.000  C
  C60      1.0000 0.34550  0.17230  0.45730  Biso   1.000  C
  C61      1.0000 0.84550  0.32770  0.95730  Biso   1.000  C
  C62      1.0000 0.34550  0.82770  0.95730  Biso   1.000  C
  C63      1.0000 0.15450  0.32770  0.54270  Biso   1.000  C
  C64      1.0000 0.65450  0.82770  0.54270  Biso   1.000  C
  N25      1.0000 0.20340  0.69170  0.10100  Biso   1.000  N
  N26      1.0000 0.70340  0.19170  0.10100  Biso   1.000  N
  N27      1.0000 0.79660  0.69170  0.39900  Biso   1.000  N
  N28      1.0000 0.29660  0.19170  0.39900  Biso   1.000  N
  N29      1.0000 0.79660  0.30830  0.89900  Biso   1.000  N
  N30      1.0000 0.29660  0.80830  0.89900  Biso   1.000  N
  N31      1.0000 0.20340  0.30830  0.60100  Biso   1.000  N
  N32      1.0000 0.70340  0.80830  0.60100  Biso   1.000  N
  C65      1.0000 0.21040  0.72360  0.21570  Biso   1.000  C
  C66      1.0000 0.71040  0.22360  0.21570  Biso   1.000  C
  C67      1.0000 0.78960  0.72360  0.28430  Biso   1.000  C
  C68      1.0000 0.28960  0.22360  0.28430  Biso   1.000  C
  C69      1.0000 0.78960  0.27640  0.78430  Biso   1.000  C
  C70      1.0000 0.28960  0.77640  0.78430  Biso   1.000  C
  C71      1.0000 0.21040  0.27640  0.71570  Biso   1.000  C
  C72      1.0000 0.71040  0.77640  0.71570  Biso   1.000  C
  N33      1.0000 0.22120  0.75440  0.31640  Biso   1.000  N
  N34      1.0000 0.72120  0.25440  0.31640  Biso   1.000  N
  N35      1.0000 0.77880  0.75440  0.18360  Biso   1.000  N
  N36      1.0000 0.27880  0.25440  0.18360  Biso   1.000  N
  N37      1.0000 0.77880  0.24560  0.68360  Biso   1.000  N
  N38      1.0000 0.27880  0.74560  0.68360  Biso   1.000  N
  N39      1.0000 0.22120  0.24560  0.81640  Biso   1.000  N
  N40      1.0000 0.72120  0.74560  0.81640  Biso   1.000  N
  N41      1.0000 0.11080  0.68770  0.09490  Biso   1.000  N
  N42      1.0000 0.61080  0.18770  0.09490  Biso   1.000  N
  N43      1.0000 0.88920  0.68770  0.40510  Biso   1.000  N
  N44      1.0000 0.38920  0.18770  0.40510  Biso   1.000  N
  N45      1.0000 0.88920  0.31230  0.90510  Biso   1.000  N
  N46      1.0000 0.38920  0.81230  0.90510  Biso   1.000  N
  N47      1.0000 0.11080  0.31230  0.59490  Biso   1.000  N
  N48      1.0000 0.61080  0.81230  0.59490  Biso   1.000  N
  C73      1.0000 0.05800  0.66500  0.03520  Biso   1.000  C
  C74      1.0000 0.55800  0.16500  0.03520  Biso   1.000  C
  C75      1.0000 0.94200  0.66500  0.46480  Biso   1.000  C
  C76      1.0000 0.44200  0.16500  0.46480  Biso   1.000  C
  C77      1.0000 0.94200  0.33500  0.96480  Biso   1.000  C
  C78      1.0000 0.44200  0.83500  0.96480  Biso   1.000  C
  C79      1.0000 0.05800  0.33500  0.53520  Biso   1.000  C
  C80      1.0000 0.55800  0.83500  0.53520  Biso   1.000  C
  H1       1.0000 0.40000  0.40300  0.81300  Biso   1.000  H
  H2       1.0000 0.90000  0.90300  0.81300  Biso   1.000  H
  H3       1.0000 0.60000  0.40300  0.68700  Biso   1.000  H
  H4       1.0000 0.10000  0.90300  0.68700  Biso   1.000  H
  H5       1.0000 0.60000  0.59700  0.18700  Biso   1.000  H
  H6       1.0000 0.10000  0.09700  0.18700  Biso   1.000  H
  H7       1.0000 0.40000  0.59700  0.31300  Biso   1.000  H
  H8       1.0000 0.90000  0.09700  0.31300  Biso   1.000  H
  H9       1.0000 0.11600  0.63700  0.87500  Biso   1.000  H
  H10      1.0000 0.61600  0.13700  0.87500  Biso   1.000  H
  H11      1.0000 0.88400  0.63700  0.62500  Biso   1.000  H
  H12      1.0000 0.38400  0.13700  0.62500  Biso   1.000  H
  H13      1.0000 0.88400  0.36300  0.12500  Biso   1.000  H
  H14      1.0000 0.38400  0.86300  0.12500  Biso   1.000  H
  H15      1.0000 0.11600  0.36300  0.37500  Biso   1.000  H
  H16      1.0000 0.61600  0.86300  0.37500  Biso   1.000  H
  H17      1.0000 0.11500  0.71600  0.17900  Biso   1.000  H
  H18      1.0000 0.61500  0.21600  0.17900  Biso   1.000  H
  H19      1.0000 0.88500  0.71600  0.32100  Biso   1.000  H
  H20      1.0000 0.38500  0.21600  0.32100  Biso   1.000  H
  H21      1.0000 0.88500  0.28400  0.82100  Biso   1.000  H
  H22      1.0000 0.38500  0.78400  0.82100  Biso   1.000  H
  H23      1.0000 0.11500  0.28400  0.67900  Biso   1.000  H
  H24      1.0000 0.61500  0.78400  0.67900  Biso   1.000  H
  H25      1.0000 0.35100  0.25500  0.84600  Biso   1.000  H
  H26      1.0000 0.85100  0.75500  0.84600  Biso   1.000  H
  H27      1.0000 0.64900  0.25500  0.65400  Biso   1.000  H
  H28      1.0000 0.14900  0.75500  0.65400  Biso   1.000  H
  H29      1.0000 0.64900  0.74500  0.15400  Biso   1.000  H
  H30      1.0000 0.14900  0.24500  0.15400  Biso   1.000  H
  H31      1.0000 0.35100  0.74500  0.34600  Biso   1.000  H
  H32      1.0000 0.85100  0.24500  0.34600  Biso   1.000  H
  H33      1.0000 0.35500  0.60900  0.98700  Biso   1.000  H
  H34      1.0000 0.85500  0.10900  0.98700  Biso   1.000  H
  H35      1.0000 0.64500  0.60900  0.51300  Biso   1.000  H
  H36      1.0000 0.14500  0.10900  0.51300  Biso   1.000  H
  H37      1.0000 0.64500  0.39100  0.01300  Biso   1.000  H
  H38      1.0000 0.14500  0.89100  0.01300  Biso   1.000  H
  H39      1.0000 0.35500  0.39100  0.48700  Biso   1.000  H
  H40      1.0000 0.85500  0.89100  0.48700  Biso   1.000  H
  H41      1.0000 0.36900  0.59400  0.84900  Biso   1.000  H
  H42      1.0000 0.86900  0.09400  0.84900  Biso   1.000  H
  H43      1.0000 0.63100  0.59400  0.65100  Biso   1.000  H
  H44      1.0000 0.13100  0.09400  0.65100  Biso   1.000  H
  H45      1.0000 0.63100  0.40600  0.15100  Biso   1.000  H
  H46      1.0000 0.13100  0.90600  0.15100  Biso   1.000  H
  H47      1.0000 0.36900  0.40600  0.34900  Biso   1.000  H
  H48      1.0000 0.86900  0.90600  0.34900  Biso   1.000  H
  H49      1.0000 0.41100  0.56800  0.96700  Biso   1.000  H
  H50      1.0000 0.91100  0.06800  0.96700  Biso   1.000  H
  H51      1.0000 0.58900  0.56800  0.53300  Biso   1.000  H
  H52      1.0000 0.08900  0.06800  0.53300  Biso   1.000  H
  H53      1.0000 0.58900  0.43200  0.03300  Biso   1.000  H
  H54      1.0000 0.08900  0.93200  0.03300  Biso   1.000  H
  H55      1.0000 0.41100  0.43200  0.46700  Biso   1.000  H
  H56      1.0000 0.91100  0.93200  0.46700  Biso   1.000  H
  H57      1.0000 0.28900  0.45300  0.16000  Biso   1.000  H
  H58      1.0000 0.78900  0.95300  0.16000  Biso   1.000  H
  H59      1.0000 0.71100  0.45300  0.34000  Biso   1.000  H
  H60      1.0000 0.21100  0.95300  0.34000  Biso   1.000  H
  H61      1.0000 0.71100  0.54700  0.84000  Biso   1.000  H
  H62      1.0000 0.21100  0.04700  0.84000  Biso   1.000  H
  H63      1.0000 0.28900  0.54700  0.66000  Biso   1.000  H
  H64      1.0000 0.78900  0.04700  0.66000  Biso   1.000  H
  H65      1.0000 0.28100  0.54300  0.07100  Biso   1.000  H
  H66      1.0000 0.78100  0.04300  0.07100  Biso   1.000  H
  H67      1.0000 0.71900  0.54300  0.42900  Biso   1.000  H
  H68      1.0000 0.21900  0.04300  0.42900  Biso   1.000  H
  H69      1.0000 0.71900  0.45700  0.92900  Biso   1.000  H
  H70      1.0000 0.21900  0.95700  0.92900  Biso   1.000  H
  H71      1.0000 0.28100  0.45700  0.57100  Biso   1.000  H
  H72      1.0000 0.78100  0.95700  0.57100  Biso   1.000  H
  H73      1.0000 0.16400  0.46600  0.83100  Biso   1.000  H
  H74      1.0000 0.66400  0.96600  0.83100  Biso   1.000  H
  H75      1.0000 0.83600  0.46600  0.66900  Biso   1.000  H
  H76      1.0000 0.33600  0.96600  0.66900  Biso   1.000  H
  H77      1.0000 0.83600  0.53400  0.16900  Biso   1.000  H
  H78      1.0000 0.33600  0.03400  0.16900  Biso   1.000  H
  H79      1.0000 0.16400  0.53400  0.33100  Biso   1.000  H
  H80      1.0000 0.66400  0.03400  0.33100  Biso   1.000  H
  H81      1.0000 0.22600  0.47000  0.82700  Biso   1.000  H
  H82      1.0000 0.72600  0.97000  0.82700  Biso   1.000  H
  H83      1.0000 0.77400  0.47000  0.67300  Biso   1.000  H
  H84      1.0000 0.27400  0.97000  0.67300  Biso   1.000  H
  H85      1.0000 0.77400  0.53000  0.17300  Biso   1.000  H
  H86      1.0000 0.27400  0.03000  0.17300  Biso   1.000  H
  H87      1.0000 0.22600  0.53000  0.32700  Biso   1.000  H
  H88      1.0000 0.72600  0.03000  0.32700  Biso   1.000  H
  H89      1.0000 0.19100  0.62100  0.78100  Biso   1.000  H
  H90      1.0000 0.69100  0.12100  0.78100  Biso   1.000  H
  H91      1.0000 0.80900  0.62100  0.71900  Biso   1.000  H
  H92      1.0000 0.30900  0.12100  0.71900  Biso   1.000  H
  H93      1.0000 0.80900  0.37900  0.21900  Biso   1.000  H
  H94      1.0000 0.30900  0.87900  0.21900  Biso   1.000  H
  H95      1.0000 0.19100  0.37900  0.28100  Biso   1.000  H
  H96      1.0000 0.69100  0.87900  0.28100  Biso   1.000  H
  H97      1.0000 0.22700  0.62600  0.91400  Biso   1.000  H
  H98      1.0000 0.72700  0.12600  0.91400  Biso   1.000  H
  H99      1.0000 0.77300  0.62600  0.58600  Biso   1.000  H
  H100     1.0000 0.27300  0.12600  0.58600  Biso   1.000  H
  H101     1.0000 0.77300  0.37400  0.08600  Biso   1.000  H
  H102     1.0000 0.27300  0.87400  0.08600  Biso   1.000  H
  H103     1.0000 0.22700  0.37400  0.41400  Biso   1.000  H
  H104     1.0000 0.72700  0.87400  0.41400  Biso   1.000  H
  H105     1.0000 0.03200  0.68300  0.09100  Biso   1.000  H
  H106     1.0000 0.53200  0.18300  0.09100  Biso   1.000  H
  H107     1.0000 0.96800  0.68300  0.40900  Biso   1.000  H
  H108     1.0000 0.46800  0.18300  0.40900  Biso   1.000  H
  H109     1.0000 0.96800  0.31700  0.90900  Biso   1.000  H
  H110     1.0000 0.46800  0.81700  0.90900  Biso   1.000  H
  H111     1.0000 0.03200  0.31700  0.59100  Biso   1.000  H
  H112     1.0000 0.53200  0.81700  0.59100  Biso   1.000  H
  H113     1.0000 0.05600  0.59700  0.01800  Biso   1.000  H
  H114     1.0000 0.55600  0.09700  0.01800  Biso   1.000  H
  H115     1.0000 0.94400  0.59700  0.48200  Biso   1.000  H
  H116     1.0000 0.44400  0.09700  0.48200  Biso   1.000  H
  H117     1.0000 0.94400  0.40300  0.98200  Biso   1.000  H
  H118     1.0000 0.44400  0.90300  0.98200  Biso   1.000  H
  H119     1.0000 0.05600  0.40300  0.51800  Biso   1.000  H
  H120     1.0000 0.55600  0.90300  0.51800  Biso   1.000  H
  H121     1.0000 0.05100  0.70100  0.95700  Biso   1.000  H
  H122     1.0000 0.55100  0.20100  0.95700  Biso   1.000  H
  H123     1.0000 0.94900  0.70100  0.54300  Biso   1.000  H
  H124     1.0000 0.44900  0.20100  0.54300  Biso   1.000  H
  H125     1.0000 0.94900  0.29900  0.04300  Biso   1.000  H
  H126     1.0000 0.44900  0.79900  0.04300  Biso   1.000  H
  H127     1.0000 0.05100  0.29900  0.45700  Biso   1.000  H
  H128     1.0000 0.55100  0.79900  0.45700  Biso   1.000  H
  S9       1.0000 0.50000  0.36970  0.75000  Biso   1.000  S
  S10      1.0000 0.00000  0.86970  0.75000  Biso   1.000  S
  S11      1.0000 0.50000  0.63030  0.25000  Biso   1.000  S
  S12      1.0000 0.00000  0.13030  0.25000  Biso   1.000  S
  O1       1.0000 0.48670  0.30690  0.85150  Biso   1.000  O
  O2       1.0000 0.98670  0.80690  0.85150  Biso   1.000  O
  O3       1.0000 0.51330  0.30690  0.64850  Biso   1.000  O
  O4       1.0000 0.01330  0.80690  0.64850  Biso   1.000  O
  O5       1.0000 0.51330  0.69310  0.14850  Biso   1.000  O
  O6       1.0000 0.01330  0.19310  0.14850  Biso   1.000  O
  O7       1.0000 0.48670  0.69310  0.35150  Biso   1.000  O
  O8       1.0000 0.98670  0.19310  0.35150  Biso   1.000  O
  O9       1.0000 0.45330  0.42610  0.70870  Biso   1.000  O
  O10      1.0000 0.95330  0.92610  0.70870  Biso   1.000  O
  O11      1.0000 0.54670  0.42610  0.79130  Biso   1.000  O
  O12      1.0000 0.04670  0.92610  0.79130  Biso   1.000  O
  O13      1.0000 0.54670  0.57390  0.29130  Biso   1.000  O
  O14      1.0000 0.04670  0.07390  0.29130  Biso   1.000  O
  O15      1.0000 0.45330  0.57390  0.20870  Biso   1.000  O
  O16      1.0000 0.95330  0.07390  0.20870  Biso   1.000  O
  O17      1.0000 0.07050  0.63460  0.68660  Biso   1.000  O
  O18      1.0000 0.57050  0.13460  0.68660  Biso   1.000  O
  O19      1.0000 0.92950  0.63460  0.81340  Biso   1.000  O
  O20      1.0000 0.42950  0.13460  0.81340  Biso   1.000  O
  O21      1.0000 0.92950  0.36540  0.31340  Biso   1.000  O
  O22      1.0000 0.42950  0.86540  0.31340  Biso   1.000  O
  O23      1.0000 0.07050  0.36540  0.18660  Biso   1.000  O
  O24      1.0000 0.57050  0.86540  0.18660  Biso   1.000  O
  H129     1.0000 0.05000  0.69300  0.68900  Biso   1.000  H
  H130     1.0000 0.55000  0.19300  0.68900  Biso   1.000  H
  H131     1.0000 0.95000  0.69300  0.81100  Biso   1.000  H
  H132     1.0000 0.45000  0.19300  0.81100  Biso   1.000  H
  H133     1.0000 0.95000  0.30700  0.31100  Biso   1.000  H
  H134     1.0000 0.45000  0.80700  0.31100  Biso   1.000  H
  H135     1.0000 0.05000  0.30700  0.18900  Biso   1.000  H
  H136     1.0000 0.55000  0.80700  0.18900  Biso   1.000  H
  H137     1.0000 0.04700  0.58400  0.70500  Biso   1.000  H
  H138     1.0000 0.54700  0.08400  0.70500  Biso   1.000  H
  H139     1.0000 0.95300  0.58400  0.79500  Biso   1.000  H
  H140     1.0000 0.45300  0.08400  0.79500  Biso   1.000  H
  H141     1.0000 0.95300  0.41600  0.29500  Biso   1.000  H
  H142     1.0000 0.45300  0.91600  0.29500  Biso   1.000  H
  H143     1.0000 0.04700  0.41600  0.20500  Biso   1.000  H
  H144     1.0000 0.54700  0.91600  0.20500  Biso   1.000  H
  O25      1.0000 0.00000  0.50220  0.25000  Biso   1.000  O
  O26      1.0000 0.50000  0.00220  0.25000  Biso   1.000  O
  O27      1.0000 0.00000  0.49780  0.75000  Biso   1.000  O
  O28      1.0000 0.50000  0.99780  0.75000  Biso   1.000  O
  H145     1.0000 0.98300  0.54400  0.18400  Biso   1.000  H
  H146     1.0000 0.48300  0.04400  0.18400  Biso   1.000  H
  H147     1.0000 0.01700  0.54400  0.31600  Biso   1.000  H
  H148     1.0000 0.51700  0.04400  0.31600  Biso   1.000  H
  H149     1.0000 0.01700  0.45600  0.81600  Biso   1.000  H
  H150     1.0000 0.51700  0.95600  0.81600  Biso   1.000  H
  H151     1.0000 0.98300  0.45600  0.68400  Biso   1.000  H
  H152     1.0000 0.48300  0.95600  0.68400  Biso   1.000  H
  O29      1.0000 0.09450  0.77510  0.32840  Biso   1.000  O
  O30      1.0000 0.59450  0.27510  0.32840  Biso   1.000  O
  O31      1.0000 0.90550  0.77510  0.17160  Biso   1.000  O
  O32      1.0000 0.40550  0.27510  0.17160  Biso   1.000  O
  O33      1.0000 0.90550  0.22490  0.67160  Biso   1.000  O
  O34      1.0000 0.40550  0.72490  0.67160  Biso   1.000  O
  O35      1.0000 0.09450  0.22490  0.82840  Biso   1.000  O
  O36      1.0000 0.59450  0.72490  0.82840  Biso   1.000  O
  H153     1.0000 0.06000  0.80400  0.30100  Biso   1.000  H
  H154     1.0000 0.56000  0.30400  0.30100  Biso   1.000  H
  H155     1.0000 0.94000  0.80400  0.19900  Biso   1.000  H
  H156     1.0000 0.44000  0.30400  0.19900  Biso   1.000  H
  H157     1.0000 0.94000  0.19600  0.69900  Biso   1.000  H
  H158     1.0000 0.44000  0.69600  0.69900  Biso   1.000  H
  H159     1.0000 0.06000  0.19600  0.80100  Biso   1.000  H
  H160     1.0000 0.56000  0.69600  0.80100  Biso   1.000  H
  H161     1.0000 0.11900  0.82900  0.34500  Biso   1.000  H
  H162     1.0000 0.61900  0.32900  0.34500  Biso   1.000  H
  H163     1.0000 0.88100  0.82900  0.15500  Biso   1.000  H
  H164     1.0000 0.38100  0.32900  0.15500  Biso   1.000  H
  H165     1.0000 0.88100  0.17100  0.65500  Biso   1.000  H
  H166     1.0000 0.38100  0.67100  0.65500  Biso   1.000  H
  H167     1.0000 0.11900  0.17100  0.84500  Biso   1.000  H
  H168     1.0000 0.61900  0.67100  0.84500  Biso   1.000  H
  O37      1.0000 0.57310  0.09750  0.42360  Biso   1.000  O
  O38      1.0000 0.07310  0.59750  0.42360  Biso   1.000  O
  O39      1.0000 0.42690  0.09750  0.07640  Biso   1.000  O
  O40      1.0000 0.92690  0.59750  0.07640  Biso   1.000  O
  O41      1.0000 0.42690  0.90250  0.57640  Biso   1.000  O
  O42      1.0000 0.92690  0.40250  0.57640  Biso   1.000  O
  O43      1.0000 0.57310  0.90250  0.92360  Biso   1.000  O
  O44      1.0000 0.07310  0.40250  0.92360  Biso   1.000  O
  H169     1.0000 0.59200  0.15500  0.40000  Biso   1.000  H
  H170     1.0000 0.09200  0.65500  0.40000  Biso   1.000  H
  H171     1.0000 0.40800  0.15500  0.10000  Biso   1.000  H
  H172     1.0000 0.90800  0.65500  0.10000  Biso   1.000  H
  H173     1.0000 0.40800  0.84500  0.60000  Biso   1.000  H
  H174     1.0000 0.90800  0.34500  0.60000  Biso   1.000  H
  H175     1.0000 0.59200  0.84500  0.90000  Biso   1.000  H
  H176     1.0000 0.09200  0.34500  0.90000  Biso   1.000  H
  H177     1.0000 0.56900  0.11100  0.51400  Biso   1.000  H
  H178     1.0000 0.06900  0.61100  0.51400  Biso   1.000  H
  H179     1.0000 0.43100  0.11100  0.98600  Biso   1.000  H
  H180     1.0000 0.93100  0.61100  0.98600  Biso   1.000  H
  H181     1.0000 0.43100  0.88900  0.48600  Biso   1.000  H
  H182     1.0000 0.93100  0.38900  0.48600  Biso   1.000  H
  H183     1.0000 0.56900  0.88900  0.01400  Biso   1.000  H
  H184     1.0000 0.06900  0.38900  0.01400  Biso   1.000  H
  O45      1.0000 0.48170  0.61810  0.60090  Biso   1.000  O
  O46      1.0000 0.98170  0.11810  0.60090  Biso   1.000  O
  O47      1.0000 0.51830  0.61810  0.89910  Biso   1.000  O
  O48      1.0000 0.01830  0.11810  0.89910  Biso   1.000  O
  O49      1.0000 0.51830  0.38190  0.39910  Biso   1.000  O
  O50      1.0000 0.01830  0.88190  0.39910  Biso   1.000  O
  O51      1.0000 0.48170  0.38190  0.10090  Biso   1.000  O
  O52      1.0000 0.98170  0.88190  0.10090  Biso   1.000  O
  H185     1.0000 0.48600  0.63100  0.51300  Biso   1.000  H
  H186     1.0000 0.98600  0.13100  0.51300  Biso   1.000  H
  H187     1.0000 0.51400  0.63100  0.98700  Biso   1.000  H
  H188     1.0000 0.01400  0.13100  0.98700  Biso   1.000  H
  H189     1.0000 0.51400  0.36900  0.48700  Biso   1.000  H
  H190     1.0000 0.01400  0.86900  0.48700  Biso   1.000  H
  H191     1.0000 0.48600  0.36900  0.01300  Biso   1.000  H
  H192     1.0000 0.98600  0.86900  0.01300  Biso   1.000  H
  H193     1.0000 0.49300  0.55200  0.61400  Biso   1.000  H
  H194     1.0000 0.99300  0.05200  0.61400  Biso   1.000  H
  H195     1.0000 0.50700  0.55200  0.88600  Biso   1.000  H
  H196     1.0000 0.00700  0.05200  0.88600  Biso   1.000  H
  H197     1.0000 0.50700  0.44800  0.38600  Biso   1.000  H
  H198     1.0000 0.00700  0.94800  0.38600  Biso   1.000  H
  H199     1.0000 0.49300  0.44800  0.11400  Biso   1.000  H
  H200     1.0000 0.99300  0.94800  0.11400  Biso   1.000  H
  O53      1.0000 0.45340  0.31310  0.72740  Biso   1.000  O
  O54      1.0000 0.95340  0.81310  0.72740  Biso   1.000  O
  O55      1.0000 0.54660  0.31310  0.77260  Biso   1.000  O
  O56      1.0000 0.04660  0.81310  0.77260  Biso   1.000  O
  O57      1.0000 0.54660  0.68690  0.27260  Biso   1.000  O
  O58      1.0000 0.04660  0.18690  0.27260  Biso   1.000  O
  O59      1.0000 0.45340  0.68690  0.22740  Biso   1.000  O
  O60      1.0000 0.95340  0.18690  0.22740  Biso   1.000  O
  O61      1.0000 0.49440  0.43050  0.85980  Biso   1.000  O
  O62      1.0000 0.99440  0.93050  0.85980  Biso   1.000  O
  O63      1.0000 0.50560  0.43050  0.64020  Biso   1.000  O
  O64      1.0000 0.00560  0.93050  0.64020  Biso   1.000  O
  O65      1.0000 0.50560  0.56950  0.14020  Biso   1.000  O
  O66      1.0000 0.00560  0.06950  0.14020  Biso   1.000  O
  O67      1.0000 0.49440  0.56950  0.35980  Biso   1.000  O
  O68      1.0000 0.99440  0.06950  0.35980  Biso   1.000  O
