data_image0
_cell_length_a       20.3883
_cell_length_b       20.3883
_cell_length_c       20.3883
_cell_angle_alpha    54.956
_cell_angle_beta     54.956
_cell_angle_gamma    54.956

_symmetry_space_group_name_H-M    "P 1"
_symmetry_int_tables_number       1

loop_
  _symmetry_equiv_pos_as_xyz
  'x, y, z'

loop_
  _atom_site_label
  _atom_site_occupancy
  _atom_site_fract_x
  _atom_site_fract_y
  _atom_site_fract_z
  _atom_site_thermal_displace_type
  _atom_site_B_iso_or_equiv
  _atom_site_type_symbol
  Cu1      1.0000 0.49846  0.06642  0.49846  Biso   1.000  Cu
  Cu2      1.0000 0.06642  0.49846  0.49846  Biso   1.000  Cu
  Cu3      1.0000 0.50154  0.50154  0.93358  Biso   1.000  Cu
  Cu4      1.0000 0.49846  0.49846  0.06642  Biso   1.000  Cu
  Cu5      1.0000 0.50154  0.93358  0.50154  Biso   1.000  Cu
  Cu6      1.0000 0.93358  0.50154  0.50154  Biso   1.000  Cu
  O1       1.0000 0.37522  0.11441  0.52018  Biso   1.000  O
  O2       1.0000 0.11441  0.52018  0.37522  Biso   1.000  O
  O3       1.0000 0.62478  0.47982  0.88559  Biso   1.000  O
  O4       1.0000 0.52018  0.37522  0.11441  Biso   1.000  O
  O5       1.0000 0.47982  0.88559  0.62478  Biso   1.000  O
  O6       1.0000 0.88559  0.62478  0.47982  Biso   1.000  O
  O7       1.0000 0.62478  0.88559  0.47982  Biso   1.000  O
  O8       1.0000 0.88559  0.47982  0.62478  Biso   1.000  O
  O9       1.0000 0.37522  0.52018  0.11441  Biso   1.000  O
  O10      1.0000 0.47982  0.62478  0.88559  Biso   1.000  O
  O11      1.0000 0.52018  0.11441  0.37522  Biso   1.000  O
  O12      1.0000 0.11441  0.37522  0.52018  Biso   1.000  O
  O13      1.0000 0.37794  0.00115  0.52457  Biso   1.000  O
  O14      1.0000 0.00115  0.52457  0.37794  Biso   1.000  O
  O15      1.0000 0.62206  0.47543  0.99885  Biso   1.000  O
  O16      1.0000 0.52457  0.37794  0.00115  Biso   1.000  O
  O17      1.0000 0.47543  0.99885  0.62206  Biso   1.000  O
  O18      1.0000 0.99885  0.62206  0.47543  Biso   1.000  O
  O19      1.0000 0.62206  0.99885  0.47543  Biso   1.000  O
  O20      1.0000 0.99885  0.47543  0.62206  Biso   1.000  O
  O21      1.0000 0.37794  0.52457  0.00115  Biso   1.000  O
  O22      1.0000 0.47543  0.62206  0.99885  Biso   1.000  O
  O23      1.0000 0.52457  0.00115  0.37794  Biso   1.000  O
  O24      1.0000 0.00115  0.37794  0.52457  Biso   1.000  O
  O25      1.0000 0.50152  0.16820  0.50152  Biso   1.000  O
  O26      1.0000 0.16820  0.50152  0.50152  Biso   1.000  O
  O27      1.0000 0.49848  0.49848  0.83180  Biso   1.000  O
  O28      1.0000 0.50152  0.50152  0.16820  Biso   1.000  O
  O29      1.0000 0.49848  0.83180  0.49848  Biso   1.000  O
  O30      1.0000 0.83180  0.49848  0.49848  Biso   1.000  O
  C1       1.0000 0.34154  0.07522  0.52543  Biso   1.000  C
  C2       1.0000 0.07522  0.52543  0.34154  Biso   1.000  C
  C3       1.0000 0.65846  0.47457  0.92478  Biso   1.000  C
  C4       1.0000 0.52543  0.34154  0.07522  Biso   1.000  C
  C5       1.0000 0.47457  0.92478  0.65846  Biso   1.000  C
  C6       1.0000 0.92478  0.65846  0.47457  Biso   1.000  C
  C7       1.0000 0.65846  0.92478  0.47457  Biso   1.000  C
  C8       1.0000 0.92478  0.47457  0.65846  Biso   1.000  C
  C9       1.0000 0.34154  0.52543  0.07522  Biso   1.000  C
  C10      1.0000 0.47457  0.65846  0.92478  Biso   1.000  C
  C11      1.0000 0.52543  0.07522  0.34154  Biso   1.000  C
  C12      1.0000 0.07522  0.34154  0.52543  Biso   1.000  C
  C13      1.0000 0.25012  0.12234  0.53050  Biso   1.000  C
  C14      1.0000 0.12234  0.53050  0.25012  Biso   1.000  C
  C15      1.0000 0.74988  0.46950  0.87766  Biso   1.000  C
  C16      1.0000 0.53050  0.25012  0.12234  Biso   1.000  C
  C17      1.0000 0.46950  0.87766  0.74988  Biso   1.000  C
  C18      1.0000 0.87766  0.74988  0.46950  Biso   1.000  C
  C19      1.0000 0.74988  0.87766  0.46950  Biso   1.000  C
  C20      1.0000 0.87766  0.46950  0.74988  Biso   1.000  C
  C21      1.0000 0.25012  0.53050  0.12234  Biso   1.000  C
  C22      1.0000 0.46950  0.74988  0.87766  Biso   1.000  C
  C23      1.0000 0.53050  0.12234  0.25012  Biso   1.000  C
  C24      1.0000 0.12234  0.25012  0.53050  Biso   1.000  C
  C25      1.0000 0.21130  0.08460  0.53140  Biso   1.000  C
  C26      1.0000 0.08460  0.53140  0.21130  Biso   1.000  C
  C27      1.0000 0.78870  0.46860  0.91540  Biso   1.000  C
  C28      1.0000 0.53140  0.21130  0.08460  Biso   1.000  C
  C29      1.0000 0.46860  0.91540  0.78870  Biso   1.000  C
  C30      1.0000 0.91540  0.78870  0.46860  Biso   1.000  C
  C31      1.0000 0.78870  0.91540  0.46860  Biso   1.000  C
  C32      1.0000 0.91540  0.46860  0.78870  Biso   1.000  C
  C33      1.0000 0.21130  0.53140  0.08460  Biso   1.000  C
  C34      1.0000 0.46860  0.78870  0.91540  Biso   1.000  C
  C35      1.0000 0.53140  0.08460  0.21130  Biso   1.000  C
  C36      1.0000 0.08460  0.21130  0.53140  Biso   1.000  C
  H1       1.0000 0.24050  0.02820  0.53340  Biso   1.000  H
  H2       1.0000 0.02820  0.53340  0.24050  Biso   1.000  H
  H3       1.0000 0.75950  0.46660  0.97180  Biso   1.000  H
  H4       1.0000 0.53340  0.24050  0.02820  Biso   1.000  H
  H5       1.0000 0.46660  0.97180  0.75950  Biso   1.000  H
  H6       1.0000 0.97180  0.75950  0.46660  Biso   1.000  H
  H7       1.0000 0.75950  0.97180  0.46660  Biso   1.000  H
  H8       1.0000 0.97180  0.46660  0.75950  Biso   1.000  H
  H9       1.0000 0.24050  0.53340  0.02820  Biso   1.000  H
  H10      1.0000 0.46660  0.75950  0.97180  Biso   1.000  H
  H11      1.0000 0.53340  0.02820  0.24050  Biso   1.000  H
  H12      1.0000 0.02820  0.24050  0.53340  Biso   1.000  H
  C37      1.0000 0.20536  0.20536  0.53150  Biso   1.000  C
  C38      1.0000 0.20536  0.53150  0.20536  Biso   1.000  C
  C39      1.0000 0.79464  0.46850  0.79464  Biso   1.000  C
  C40      1.0000 0.53150  0.20536  0.20536  Biso   1.000  C
  C41      1.0000 0.46850  0.79464  0.79464  Biso   1.000  C
  C42      1.0000 0.79464  0.79464  0.46850  Biso   1.000  C
  H13      1.0000 0.23060  0.23060  0.53290  Biso   1.000  H
  H14      1.0000 0.23060  0.53290  0.23060  Biso   1.000  H
  H15      1.0000 0.76940  0.46710  0.76940  Biso   1.000  H
  H16      1.0000 0.53290  0.23060  0.23060  Biso   1.000  H
  H17      1.0000 0.46710  0.76940  0.76940  Biso   1.000  H
  H18      1.0000 0.76940  0.76940  0.46710  Biso   1.000  H
  C43      1.0000 0.12910  0.12910  0.52940  Biso   1.000  C
  C44      1.0000 0.12910  0.52940  0.12910  Biso   1.000  C
  C45      1.0000 0.87090  0.47060  0.87090  Biso   1.000  C
  C46      1.0000 0.52940  0.12910  0.12910  Biso   1.000  C
  C47      1.0000 0.47060  0.87090  0.87090  Biso   1.000  C
  C48      1.0000 0.87090  0.87090  0.47060  Biso   1.000  C
  N1       1.0000 0.09109  0.09109  0.52660  Biso   1.000  N
  N2       1.0000 0.09109  0.52660  0.09109  Biso   1.000  N
  N3       1.0000 0.90891  0.47340  0.90891  Biso   1.000  N
  N4       1.0000 0.52660  0.09109  0.09109  Biso   1.000  N
  N5       1.0000 0.47340  0.90891  0.90891  Biso   1.000  N
  N6       1.0000 0.90891  0.90891  0.47340  Biso   1.000  N
  H19      1.0000 0.12940  0.04640  0.51330  Biso   1.000  H
  H20      1.0000 0.04640  0.51330  0.12940  Biso   1.000  H
  H21      1.0000 0.87060  0.48670  0.95360  Biso   1.000  H
  H22      1.0000 0.51330  0.12940  0.04640  Biso   1.000  H
  H23      1.0000 0.48670  0.95360  0.87060  Biso   1.000  H
  H24      1.0000 0.95360  0.87060  0.48670  Biso   1.000  H
  H25      1.0000 0.87060  0.95360  0.48670  Biso   1.000  H
  H26      1.0000 0.95360  0.48670  0.87060  Biso   1.000  H
  H27      1.0000 0.12940  0.51330  0.04640  Biso   1.000  H
  H28      1.0000 0.48670  0.87060  0.95360  Biso   1.000  H
  H29      1.0000 0.51330  0.04640  0.12940  Biso   1.000  H
  H30      1.0000 0.04640  0.12940  0.51330  Biso   1.000  H
  C49      1.0000 0.03610  0.11270  0.50360  Biso   1.000  C
  C50      1.0000 0.11270  0.50360  0.03610  Biso   1.000  C
  C51      1.0000 0.96390  0.49640  0.88730  Biso   1.000  C
  C52      1.0000 0.50360  0.03610  0.11270  Biso   1.000  C
  C53      1.0000 0.49640  0.88730  0.96390  Biso   1.000  C
  C54      1.0000 0.88730  0.96390  0.49640  Biso   1.000  C
  C55      1.0000 0.96390  0.88730  0.49640  Biso   1.000  C
  C56      1.0000 0.88730  0.49640  0.96390  Biso   1.000  C
  C57      1.0000 0.03610  0.50360  0.11270  Biso   1.000  C
  C58      1.0000 0.49640  0.96390  0.88730  Biso   1.000  C
  C59      1.0000 0.50360  0.11270  0.03610  Biso   1.000  C
  C60      1.0000 0.11270  0.03610  0.50360  Biso   1.000  C
  O31      1.0000 0.98340  0.18750  0.49930  Biso   1.000  O
  O32      1.0000 0.18750  0.49930  0.98340  Biso   1.000  O
  O33      1.0000 0.01660  0.50070  0.81250  Biso   1.000  O
  O34      1.0000 0.49930  0.98340  0.18750  Biso   1.000  O
  O35      1.0000 0.50070  0.81250  0.01660  Biso   1.000  O
  O36      1.0000 0.81250  0.01660  0.50070  Biso   1.000  O
  O37      1.0000 0.01660  0.81250  0.50070  Biso   1.000  O
  O38      1.0000 0.81250  0.50070  0.01660  Biso   1.000  O
  O39      1.0000 0.98340  0.49930  0.18750  Biso   1.000  O
  O40      1.0000 0.50070  0.01660  0.81250  Biso   1.000  O
  O41      1.0000 0.49930  0.18750  0.98340  Biso   1.000  O
  O42      1.0000 0.18750  0.98340  0.49930  Biso   1.000  O
  C61      1.0000 0.03070  0.05800  0.48310  Biso   1.000  C
  C62      1.0000 0.05800  0.48310  0.03070  Biso   1.000  C
  C63      1.0000 0.96930  0.51690  0.94200  Biso   1.000  C
  C64      1.0000 0.48310  0.03070  0.05800  Biso   1.000  C
  C65      1.0000 0.51690  0.94200  0.96930  Biso   1.000  C
  C66      1.0000 0.94200  0.96930  0.51690  Biso   1.000  C
  C67      1.0000 0.96930  0.94200  0.51690  Biso   1.000  C
  C68      1.0000 0.94200  0.51690  0.96930  Biso   1.000  C
  C69      1.0000 0.03070  0.48310  0.05800  Biso   1.000  C
  C70      1.0000 0.51690  0.96930  0.94200  Biso   1.000  C
  C71      1.0000 0.48310  0.05800  0.03070  Biso   1.000  C
  C72      1.0000 0.05800  0.03070  0.48310  Biso   1.000  C
  C73      1.0000 0.95230  0.09190  0.47620  Biso   1.000  C
  C74      1.0000 0.09190  0.47620  0.95230  Biso   1.000  C
  C75      1.0000 0.04770  0.52380  0.90810  Biso   1.000  C
  C76      1.0000 0.47620  0.95230  0.09190  Biso   1.000  C
  C77      1.0000 0.52380  0.90810  0.04770  Biso   1.000  C
  C78      1.0000 0.90810  0.04770  0.52380  Biso   1.000  C
  C79      1.0000 0.04770  0.90810  0.52380  Biso   1.000  C
  C80      1.0000 0.90810  0.52380  0.04770  Biso   1.000  C
  C81      1.0000 0.95230  0.47620  0.09190  Biso   1.000  C
  C82      1.0000 0.52380  0.04770  0.90810  Biso   1.000  C
  C83      1.0000 0.47620  0.09190  0.95230  Biso   1.000  C
  C84      1.0000 0.09190  0.95230  0.47620  Biso   1.000  C
  C85      1.0000 0.93250  0.04490  0.46500  Biso   1.000  C
  C86      1.0000 0.04490  0.46500  0.93250  Biso   1.000  C
  C87      1.0000 0.06750  0.53500  0.95510  Biso   1.000  C
  C88      1.0000 0.46500  0.93250  0.04490  Biso   1.000  C
  C89      1.0000 0.53500  0.95510  0.06750  Biso   1.000  C
  C90      1.0000 0.95510  0.06750  0.53500  Biso   1.000  C
  C91      1.0000 0.06750  0.95510  0.53500  Biso   1.000  C
  C92      1.0000 0.95510  0.53500  0.06750  Biso   1.000  C
  C93      1.0000 0.93250  0.46500  0.04490  Biso   1.000  C
  C94      1.0000 0.53500  0.06750  0.95510  Biso   1.000  C
  C95      1.0000 0.46500  0.04490  0.93250  Biso   1.000  C
  C96      1.0000 0.04490  0.93250  0.46500  Biso   1.000  C
  C97      1.0000 0.99100  0.96420  0.46070  Biso   1.000  C
  C98      1.0000 0.96420  0.46070  0.99100  Biso   1.000  C
  C99      1.0000 0.00900  0.53930  0.03580  Biso   1.000  C
  C100     1.0000 0.46070  0.99100  0.96420  Biso   1.000  C
  C101     1.0000 0.53930  0.03580  0.00900  Biso   1.000  C
  C102     1.0000 0.03580  0.00900  0.53930  Biso   1.000  C
  C103     1.0000 0.00900  0.03580  0.53930  Biso   1.000  C
  C104     1.0000 0.03580  0.53930  0.00900  Biso   1.000  C
  C105     1.0000 0.99100  0.46070  0.96420  Biso   1.000  C
  C106     1.0000 0.53930  0.00900  0.03580  Biso   1.000  C
  C107     1.0000 0.46070  0.96420  0.99100  Biso   1.000  C
  C108     1.0000 0.96420  0.99100  0.46070  Biso   1.000  C
  C109     1.0000 0.01880  0.10310  0.53740  Biso   1.000  C
  C110     1.0000 0.10310  0.53740  0.01880  Biso   1.000  C
  C111     1.0000 0.98120  0.46260  0.89690  Biso   1.000  C
  C112     1.0000 0.53740  0.01880  0.10310  Biso   1.000  C
  C113     1.0000 0.46260  0.89690  0.98120  Biso   1.000  C
  C114     1.0000 0.89690  0.98120  0.46260  Biso   1.000  C
  C115     1.0000 0.98120  0.89690  0.46260  Biso   1.000  C
  C116     1.0000 0.89690  0.46260  0.98120  Biso   1.000  C
  C117     1.0000 0.01880  0.53740  0.10310  Biso   1.000  C
  C118     1.0000 0.46260  0.98120  0.89690  Biso   1.000  C
  C119     1.0000 0.53740  0.10310  0.01880  Biso   1.000  C
  C120     1.0000 0.10310  0.01880  0.53740  Biso   1.000  C
  O43      1.0000 0.94720  0.16190  0.57450  Biso   1.000  O
  O44      1.0000 0.16190  0.57450  0.94720  Biso   1.000  O
  O45      1.0000 0.05280  0.42550  0.83810  Biso   1.000  O
  O46      1.0000 0.57450  0.94720  0.16190  Biso   1.000  O
  O47      1.0000 0.42550  0.83810  0.05280  Biso   1.000  O
  O48      1.0000 0.83810  0.05280  0.42550  Biso   1.000  O
  O49      1.0000 0.05280  0.83810  0.42550  Biso   1.000  O
  O50      1.0000 0.83810  0.42550  0.05280  Biso   1.000  O
  O51      1.0000 0.94720  0.57450  0.16190  Biso   1.000  O
  O52      1.0000 0.42550  0.05280  0.83810  Biso   1.000  O
  O53      1.0000 0.57450  0.16190  0.94720  Biso   1.000  O
  O54      1.0000 0.16190  0.94720  0.57450  Biso   1.000  O
  H31      1.0000 0.11430  0.03620  0.54680  Biso   1.000  H
  H32      1.0000 0.03620  0.54680  0.11430  Biso   1.000  H
  H33      1.0000 0.88570  0.45320  0.96380  Biso   1.000  H
  H34      1.0000 0.54680  0.11430  0.03620  Biso   1.000  H
  H35      1.0000 0.45320  0.96380  0.88570  Biso   1.000  H
  H36      1.0000 0.96380  0.88570  0.45320  Biso   1.000  H
  H37      1.0000 0.88570  0.96380  0.45320  Biso   1.000  H
  H38      1.0000 0.96380  0.45320  0.88570  Biso   1.000  H
  H39      1.0000 0.11430  0.54680  0.03620  Biso   1.000  H
  H40      1.0000 0.45320  0.88570  0.96380  Biso   1.000  H
  H41      1.0000 0.54680  0.03620  0.11430  Biso   1.000  H
  H42      1.0000 0.03620  0.11430  0.54680  Biso   1.000  H
  H43      1.0000 0.91310  0.14590  0.47900  Biso   1.000  H
  H44      1.0000 0.14590  0.47900  0.91310  Biso   1.000  H
  H45      1.0000 0.08690  0.52100  0.85410  Biso   1.000  H
  H46      1.0000 0.47900  0.91310  0.14590  Biso   1.000  H
  H47      1.0000 0.52100  0.85410  0.08690  Biso   1.000  H
  H48      1.0000 0.85410  0.08690  0.52100  Biso   1.000  H
  H49      1.0000 0.08690  0.85410  0.52100  Biso   1.000  H
  H50      1.0000 0.85410  0.52100  0.08690  Biso   1.000  H
  H51      1.0000 0.91310  0.47900  0.14590  Biso   1.000  H
  H52      1.0000 0.52100  0.08690  0.85410  Biso   1.000  H
  H53      1.0000 0.47900  0.14590  0.91310  Biso   1.000  H
  H54      1.0000 0.14590  0.91310  0.47900  Biso   1.000  H
  H55      1.0000 0.88000  0.06760  0.46030  Biso   1.000  H
  H56      1.0000 0.06760  0.46030  0.88000  Biso   1.000  H
  H57      1.0000 0.12000  0.53970  0.93240  Biso   1.000  H
  H58      1.0000 0.46030  0.88000  0.06760  Biso   1.000  H
  H59      1.0000 0.53970  0.93240  0.12000  Biso   1.000  H
  H60      1.0000 0.93240  0.12000  0.53970  Biso   1.000  H
  H61      1.0000 0.12000  0.93240  0.53970  Biso   1.000  H
  H62      1.0000 0.93240  0.53970  0.12000  Biso   1.000  H
  H63      1.0000 0.88000  0.46030  0.06760  Biso   1.000  H
  H64      1.0000 0.53970  0.12000  0.93240  Biso   1.000  H
  H65      1.0000 0.46030  0.06760  0.88000  Biso   1.000  H
  H66      1.0000 0.06760  0.88000  0.46030  Biso   1.000  H
  H67      1.0000 0.10860  0.87630  0.46480  Biso   1.000  H
  H68      1.0000 0.87630  0.46480  0.10860  Biso   1.000  H
  H69      1.0000 0.89140  0.53520  0.12370  Biso   1.000  H
  H70      1.0000 0.46480  0.10860  0.87630  Biso   1.000  H
  H71      1.0000 0.53520  0.12370  0.89140  Biso   1.000  H
  H72      1.0000 0.12370  0.89140  0.53520  Biso   1.000  H
  H73      1.0000 0.89140  0.12370  0.53520  Biso   1.000  H
  H74      1.0000 0.12370  0.53520  0.89140  Biso   1.000  H
  H75      1.0000 0.10860  0.46480  0.87630  Biso   1.000  H
  H76      1.0000 0.53520  0.89140  0.12370  Biso   1.000  H
  H77      1.0000 0.46480  0.87630  0.10860  Biso   1.000  H
  H78      1.0000 0.87630  0.10860  0.46480  Biso   1.000  H
  H79      1.0000 0.14170  0.95460  0.48350  Biso   1.000  H
  H80      1.0000 0.95460  0.48350  0.14170  Biso   1.000  H
  H81      1.0000 0.85830  0.51650  0.04540  Biso   1.000  H
  H82      1.0000 0.48350  0.14170  0.95460  Biso   1.000  H
  H83      1.0000 0.51650  0.04540  0.85830  Biso   1.000  H
  H84      1.0000 0.04540  0.85830  0.51650  Biso   1.000  H
  H85      1.0000 0.85830  0.04540  0.51650  Biso   1.000  H
  H86      1.0000 0.04540  0.51650  0.85830  Biso   1.000  H
  H87      1.0000 0.14170  0.48350  0.95460  Biso   1.000  H
  H88      1.0000 0.51650  0.85830  0.04540  Biso   1.000  H
  H89      1.0000 0.48350  0.95460  0.14170  Biso   1.000  H
  H90      1.0000 0.95460  0.14170  0.48350  Biso   1.000  H
  C121     1.0000 0.08930  0.97730  0.47880  Biso   1.000  C
  C122     1.0000 0.97730  0.47880  0.08930  Biso   1.000  C
  C123     1.0000 0.91070  0.52120  0.02270  Biso   1.000  C
  C124     1.0000 0.47880  0.08930  0.97730  Biso   1.000  C
  C125     1.0000 0.52120  0.02270  0.91070  Biso   1.000  C
  C126     1.0000 0.02270  0.91070  0.52120  Biso   1.000  C
  C127     1.0000 0.91070  0.02270  0.52120  Biso   1.000  C
  C128     1.0000 0.02270  0.52120  0.91070  Biso   1.000  C
  C129     1.0000 0.08930  0.47880  0.97730  Biso   1.000  C
  C130     1.0000 0.52120  0.91070  0.02270  Biso   1.000  C
  C131     1.0000 0.47880  0.97730  0.08930  Biso   1.000  C
  C132     1.0000 0.97730  0.08930  0.47880  Biso   1.000  C
  C133     1.0000 0.93060  0.06970  0.53240  Biso   1.000  C
  C134     1.0000 0.06970  0.53240  0.93060  Biso   1.000  C
  C135     1.0000 0.06940  0.46760  0.93030  Biso   1.000  C
  C136     1.0000 0.53240  0.93060  0.06970  Biso   1.000  C
  C137     1.0000 0.46760  0.93030  0.06940  Biso   1.000  C
  C138     1.0000 0.93030  0.06940  0.46760  Biso   1.000  C
  C139     1.0000 0.06940  0.93030  0.46760  Biso   1.000  C
  C140     1.0000 0.93030  0.46760  0.06940  Biso   1.000  C
  C141     1.0000 0.93060  0.53240  0.06970  Biso   1.000  C
  C142     1.0000 0.46760  0.06940  0.93030  Biso   1.000  C
  C143     1.0000 0.53240  0.06970  0.93060  Biso   1.000  C
  C144     1.0000 0.06970  0.93060  0.53240  Biso   1.000  C
