data_image0
_cell_length_a       8.8187
_cell_length_b       24.144
_cell_length_c       8.9808
_cell_angle_alpha    90
_cell_angle_beta     110.342
_cell_angle_gamma    90

_symmetry_space_group_name_H-M    "P 1"
_symmetry_int_tables_number       1

loop_
  _symmetry_equiv_pos_as_xyz
  'x, y, z'

loop_
  _atom_site_label
  _atom_site_occupancy
  _atom_site_fract_x
  _atom_site_fract_y
  _atom_site_fract_z
  _atom_site_thermal_displace_type
  _atom_site_B_iso_or_equiv
  _atom_site_type_symbol
  Cu1      1.0000 0.00342  0.19765  0.67958  Biso   1.000  Cu
  Cu2      1.0000 0.99658  0.69765  0.82042  Biso   1.000  Cu
  Cu3      1.0000 0.99658  0.80235  0.32042  Biso   1.000  Cu
  Cu4      1.0000 0.00342  0.30235  0.17958  Biso   1.000  Cu
  O1       1.0000 0.02640  0.15226  0.86520  Biso   1.000  O
  O2       1.0000 0.97360  0.65226  0.63480  Biso   1.000  O
  O3       1.0000 0.97360  0.84774  0.13480  Biso   1.000  O
  O4       1.0000 0.02640  0.34774  0.36520  Biso   1.000  O
  O5       1.0000 0.21270  0.09959  0.04010  Biso   1.000  O
  O6       1.0000 0.78730  0.59959  0.45990  Biso   1.000  O
  O7       1.0000 0.78730  0.90041  0.95990  Biso   1.000  O
  O8       1.0000 0.21270  0.40041  0.54010  Biso   1.000  O
  O9       1.0000 0.02180  0.23422  0.49310  Biso   1.000  O
  O10      1.0000 0.97820  0.73422  0.00690  Biso   1.000  O
  O11      1.0000 0.97820  0.76578  0.50690  Biso   1.000  O
  O12      1.0000 0.02180  0.26578  0.99310  Biso   1.000  O
  O13      1.0000 0.17990  0.23969  0.34620  Biso   1.000  O
  O14      1.0000 0.82010  0.73969  0.15380  Biso   1.000  O
  O15      1.0000 0.82010  0.76031  0.65380  Biso   1.000  O
  O16      1.0000 0.17990  0.26031  0.84620  Biso   1.000  O
  N1       1.0000 0.15620  0.14213  0.63880  Biso   1.000  N
  N2       1.0000 0.84380  0.64213  0.86120  Biso   1.000  N
  N3       1.0000 0.84380  0.85787  0.36120  Biso   1.000  N
  N4       1.0000 0.15620  0.35787  0.13880  Biso   1.000  N
  N5       1.0000 0.57650  0.23905  0.75830  Biso   1.000  N
  N6       1.0000 0.42350  0.73905  0.74170  Biso   1.000  N
  N7       1.0000 0.42350  0.76095  0.24170  Biso   1.000  N
  N8       1.0000 0.57650  0.26095  0.25830  Biso   1.000  N
  N9       1.0000 0.80510  0.23816  0.67310  Biso   1.000  N
  N10      1.0000 0.19490  0.73816  0.82690  Biso   1.000  N
  N11      1.0000 0.19490  0.76184  0.32690  Biso   1.000  N
  N12      1.0000 0.80510  0.26184  0.17310  Biso   1.000  N
  N13      1.0000 0.42340  0.31717  0.75100  Biso   1.000  N
  N14      1.0000 0.57660  0.81717  0.74900  Biso   1.000  N
  N15      1.0000 0.57660  0.68283  0.24900  Biso   1.000  N
  N16      1.0000 0.42340  0.18283  0.25100  Biso   1.000  N
  H1       1.0000 0.36000  0.29640  0.78240  Biso   1.000  H
  H2       1.0000 0.64000  0.79640  0.71760  Biso   1.000  H
  H3       1.0000 0.64000  0.70360  0.21760  Biso   1.000  H
  H4       1.0000 0.36000  0.20360  0.28240  Biso   1.000  H
  H5       1.0000 0.39340  0.34910  0.70390  Biso   1.000  H
  H6       1.0000 0.60660  0.84910  0.79610  Biso   1.000  H
  H7       1.0000 0.60660  0.65090  0.29610  Biso   1.000  H
  H8       1.0000 0.39340  0.15090  0.20390  Biso   1.000  H
  N17      1.0000 0.86760  0.32762  0.58550  Biso   1.000  N
  N18      1.0000 0.13240  0.82762  0.91450  Biso   1.000  N
  N19      1.0000 0.13240  0.67238  0.41450  Biso   1.000  N
  N20      1.0000 0.86760  0.17238  0.08550  Biso   1.000  N
  H9       1.0000 0.95480  0.31850  0.56460  Biso   1.000  H
  H10      1.0000 0.04520  0.81850  0.93540  Biso   1.000  H
  H11      1.0000 0.04520  0.68150  0.43540  Biso   1.000  H
  H12      1.0000 0.95480  0.18150  0.06460  Biso   1.000  H
  C1       1.0000 0.69970  0.21498  0.73150  Biso   1.000  C
  C2       1.0000 0.30030  0.71498  0.76850  Biso   1.000  C
  C3       1.0000 0.30030  0.78502  0.26850  Biso   1.000  C
  C4       1.0000 0.69970  0.28502  0.23150  Biso   1.000  C
  H13      1.0000 0.71500  0.17670  0.75670  Biso   1.000  H
  H14      1.0000 0.28500  0.67670  0.74330  Biso   1.000  H
  H15      1.0000 0.28500  0.82330  0.24330  Biso   1.000  H
  H16      1.0000 0.71500  0.32330  0.25670  Biso   1.000  H
  C5       1.0000 0.77880  0.29282  0.64150  Biso   1.000  C
  C6       1.0000 0.22120  0.79282  0.85850  Biso   1.000  C
  C7       1.0000 0.22120  0.70718  0.35850  Biso   1.000  C
  C8       1.0000 0.77880  0.20718  0.14150  Biso   1.000  C
  C9       1.0000 0.65250  0.32309  0.66230  Biso   1.000  C
  C10      1.0000 0.34750  0.82309  0.83770  Biso   1.000  C
  C11      1.0000 0.34750  0.67691  0.33770  Biso   1.000  C
  C12      1.0000 0.65250  0.17691  0.16230  Biso   1.000  C
  C13      1.0000 0.54880  0.29358  0.72350  Biso   1.000  C
  C14      1.0000 0.45120  0.79358  0.77650  Biso   1.000  C
  C15      1.0000 0.45120  0.70642  0.27650  Biso   1.000  C
  C16      1.0000 0.54880  0.20642  0.22350  Biso   1.000  C
  C17      1.0000 0.66680  0.37873  0.61400  Biso   1.000  C
  C18      1.0000 0.33320  0.87873  0.88600  Biso   1.000  C
  C19      1.0000 0.33320  0.62127  0.38600  Biso   1.000  C
  C20      1.0000 0.66680  0.12127  0.11400  Biso   1.000  C
  H17      1.0000 0.59840  0.40910  0.61460  Biso   1.000  H
  H18      1.0000 0.40160  0.90910  0.88540  Biso   1.000  H
  H19      1.0000 0.40160  0.59090  0.38540  Biso   1.000  H
  H20      1.0000 0.59840  0.09090  0.11460  Biso   1.000  H
  C21      1.0000 0.79820  0.37963  0.56670  Biso   1.000  C
  C22      1.0000 0.20180  0.87963  0.93330  Biso   1.000  C
  C23      1.0000 0.20180  0.62037  0.43330  Biso   1.000  C
  C24      1.0000 0.79820  0.12037  0.06670  Biso   1.000  C
  H21      1.0000 0.83610  0.41120  0.52700  Biso   1.000  H
  H22      1.0000 0.16390  0.91120  0.97300  Biso   1.000  H
  H23      1.0000 0.16390  0.58880  0.47300  Biso   1.000  H
  H24      1.0000 0.83610  0.08880  0.02700  Biso   1.000  H
  C25      1.0000 0.25470  0.12287  0.80010  Biso   1.000  C
  C26      1.0000 0.74530  0.62287  0.69990  Biso   1.000  C
  C27      1.0000 0.74530  0.87713  0.19990  Biso   1.000  C
  C28      1.0000 0.25470  0.37713  0.30010  Biso   1.000  C
  H25      1.0000 0.35060  0.14710  0.84370  Biso   1.000  H
  H26      1.0000 0.64940  0.64710  0.65630  Biso   1.000  H
  H27      1.0000 0.64940  0.85290  0.15630  Biso   1.000  H
  H28      1.0000 0.35060  0.35290  0.34370  Biso   1.000  H
  H29      1.0000 0.29320  0.08470  0.79360  Biso   1.000  H
  H30      1.0000 0.70680  0.58470  0.70640  Biso   1.000  H
  H31      1.0000 0.70680  0.91530  0.20640  Biso   1.000  H
  H32      1.0000 0.29320  0.41530  0.29360  Biso   1.000  H
  C29      1.0000 0.15740  0.12360  0.91130  Biso   1.000  C
  C30      1.0000 0.84260  0.62360  0.58870  Biso   1.000  C
  C31      1.0000 0.84260  0.87640  0.08870  Biso   1.000  C
  C32      1.0000 0.15740  0.37640  0.41130  Biso   1.000  C
  C33      1.0000 0.24720  0.17315  0.55550  Biso   1.000  C
  C34      1.0000 0.75280  0.67315  0.94450  Biso   1.000  C
  C35      1.0000 0.75280  0.82685  0.44450  Biso   1.000  C
  C36      1.0000 0.24720  0.32685  0.05550  Biso   1.000  C
  H33      1.0000 0.28100  0.14760  0.48660  Biso   1.000  H
  H34      1.0000 0.71900  0.64760  0.01340  Biso   1.000  H
  H35      1.0000 0.71900  0.85240  0.51340  Biso   1.000  H
  H36      1.0000 0.28100  0.35240  0.98660  Biso   1.000  H
  H37      1.0000 0.34580  0.18940  0.63410  Biso   1.000  H
  H38      1.0000 0.65420  0.68940  0.86590  Biso   1.000  H
  H39      1.0000 0.65420  0.81060  0.36590  Biso   1.000  H
  H40      1.0000 0.34580  0.31060  0.13410  Biso   1.000  H
  C37      1.0000 0.14280  0.21891  0.45550  Biso   1.000  C
  C38      1.0000 0.85720  0.71891  0.04450  Biso   1.000  C
  C39      1.0000 0.85720  0.78109  0.54450  Biso   1.000  C
  C40      1.0000 0.14280  0.28109  0.95550  Biso   1.000  C
  C41      1.0000 0.06590  0.09571  0.53500  Biso   1.000  C
  C42      1.0000 0.93410  0.59571  0.96500  Biso   1.000  C
  C43      1.0000 0.93410  0.90429  0.46500  Biso   1.000  C
  C44      1.0000 0.06590  0.40429  0.03500  Biso   1.000  C
  H41      1.0000 0.14400  0.06650  0.53290  Biso   1.000  H
  H42      1.0000 0.85600  0.56650  0.96710  Biso   1.000  H
  H43      1.0000 0.85600  0.93350  0.46710  Biso   1.000  H
  H44      1.0000 0.14400  0.43350  0.03290  Biso   1.000  H
  H45      1.0000 0.01490  0.10980  0.42530  Biso   1.000  H
  H46      1.0000 0.98510  0.60980  0.07470  Biso   1.000  H
  H47      1.0000 0.98510  0.89020  0.57470  Biso   1.000  H
  H48      1.0000 0.01490  0.39020  0.92530  Biso   1.000  H
  C45      1.0000 0.93710  0.07028  0.58780  Biso   1.000  C
  C46      1.0000 0.06290  0.57028  0.91220  Biso   1.000  C
  C47      1.0000 0.06290  0.92972  0.41220  Biso   1.000  C
  C48      1.0000 0.93710  0.42972  0.08780  Biso   1.000  C
  C49      1.0000 0.96880  0.02582  0.69190  Biso   1.000  C
  C50      1.0000 0.03120  0.52582  0.80810  Biso   1.000  C
  C51      1.0000 0.03120  0.97418  0.30810  Biso   1.000  C
  C52      1.0000 0.96880  0.47418  0.19190  Biso   1.000  C
  H49      1.0000 0.07300  0.00920  0.72640  Biso   1.000  H
  H50      1.0000 0.92700  0.50920  0.77360  Biso   1.000  H
  H51      1.0000 0.92700  0.99080  0.27360  Biso   1.000  H
  H52      1.0000 0.07300  0.49080  0.22640  Biso   1.000  H
  C53      1.0000 0.85020  0.00507  0.74660  Biso   1.000  C
  C54      1.0000 0.14980  0.50507  0.75340  Biso   1.000  C
  C55      1.0000 0.14980  0.99493  0.25340  Biso   1.000  C
  C56      1.0000 0.85020  0.49493  0.24660  Biso   1.000  C
  H53      1.0000 0.87410  0.97450  0.81760  Biso   1.000  H
  H54      1.0000 0.12590  0.47450  0.68240  Biso   1.000  H
  H55      1.0000 0.12590  0.02550  0.18240  Biso   1.000  H
  H56      1.0000 0.87410  0.52550  0.31760  Biso   1.000  H
  C57      1.0000 0.69740  0.02884  0.69800  Biso   1.000  C
  C58      1.0000 0.30260  0.52884  0.80200  Biso   1.000  C
  C59      1.0000 0.30260  0.97116  0.30200  Biso   1.000  C
  C60      1.0000 0.69740  0.47116  0.19800  Biso   1.000  C
  C61      1.0000 0.66390  0.07271  0.59110  Biso   1.000  C
  C62      1.0000 0.33610  0.57271  0.90890  Biso   1.000  C
  C63      1.0000 0.33610  0.92729  0.40890  Biso   1.000  C
  C64      1.0000 0.66390  0.42729  0.09110  Biso   1.000  C
  H57      1.0000 0.55910  0.08890  0.55520  Biso   1.000  H
  H58      1.0000 0.44090  0.58890  0.94480  Biso   1.000  H
  H59      1.0000 0.44090  0.91110  0.44480  Biso   1.000  H
  H60      1.0000 0.55910  0.41110  0.05520  Biso   1.000  H
  C65      1.0000 0.78210  0.09309  0.53630  Biso   1.000  C
  C66      1.0000 0.21790  0.59309  0.96370  Biso   1.000  C
  C67      1.0000 0.21790  0.90691  0.46370  Biso   1.000  C
  C68      1.0000 0.78210  0.40691  0.03630  Biso   1.000  C
  H61      1.0000 0.75710  0.12300  0.46290  Biso   1.000  H
  H62      1.0000 0.24290  0.62300  0.03710  Biso   1.000  H
  H63      1.0000 0.24290  0.87700  0.53710  Biso   1.000  H
  H64      1.0000 0.75710  0.37700  0.96290  Biso   1.000  H
  C69      1.0000 0.56990  0.00805  0.76210  Biso   1.000  C
  C70      1.0000 0.43010  0.50805  0.73790  Biso   1.000  C
  C71      1.0000 0.43010  0.99195  0.23790  Biso   1.000  C
  C72      1.0000 0.56990  0.49195  0.26210  Biso   1.000  C
  H65      1.0000 0.46520  0.00610  0.67550  Biso   1.000  H
  H66      1.0000 0.53480  0.50610  0.82450  Biso   1.000  H
  H67      1.0000 0.53480  0.99390  0.32450  Biso   1.000  H
  H68      1.0000 0.46520  0.49390  0.17550  Biso   1.000  H
  H69      1.0000 0.56220  0.03350  0.84420  Biso   1.000  H
  H70      1.0000 0.43780  0.53350  0.65580  Biso   1.000  H
  H71      1.0000 0.43780  0.96650  0.15580  Biso   1.000  H
  H72      1.0000 0.56220  0.46650  0.34420  Biso   1.000  H
  H73      1.0000 0.60000  0.97110  0.80800  Biso   1.000  H
  H74      1.0000 0.40000  0.47110  0.69200  Biso   1.000  H
  H75      1.0000 0.40000  0.02890  0.19200  Biso   1.000  H
  H76      1.0000 0.60000  0.52890  0.30800  Biso   1.000  H
