data_image0
_cell_length_a       8.7865
_cell_length_b       21.951
_cell_length_c       9.175
_cell_angle_alpha    90
_cell_angle_beta     107.828
_cell_angle_gamma    90

_symmetry_space_group_name_H-M    "P 1"
_symmetry_int_tables_number       1

loop_
  _symmetry_equiv_pos_as_xyz
  'x, y, z'

loop_
  _atom_site_label
  _atom_site_occupancy
  _atom_site_fract_x
  _atom_site_fract_y
  _atom_site_fract_z
  _atom_site_thermal_displace_type
  _atom_site_B_iso_or_equiv
  _atom_site_type_symbol
  Cu1      1.0000 0.93957  0.30344  0.82792  Biso   1.000  Cu
  Cu2      1.0000 0.06043  0.80344  0.67208  Biso   1.000  Cu
  Cu3      1.0000 0.06043  0.69656  0.17208  Biso   1.000  Cu
  Cu4      1.0000 0.93957  0.19656  0.32792  Biso   1.000  Cu
  O1       1.0000 0.92980  0.36041  0.66120  Biso   1.000  O
  O2       1.0000 0.07020  0.86041  0.83880  Biso   1.000  O
  O3       1.0000 0.07020  0.63959  0.33880  Biso   1.000  O
  O4       1.0000 0.92980  0.13959  0.16120  Biso   1.000  O
  O5       1.0000 0.76810  0.25978  0.16580  Biso   1.000  O
  O6       1.0000 0.23190  0.75978  0.33420  Biso   1.000  O
  O7       1.0000 0.23190  0.74022  0.83420  Biso   1.000  O
  O8       1.0000 0.76810  0.24022  0.66580  Biso   1.000  O
  O9       1.0000 0.91780  0.26227  0.00970  Biso   1.000  O
  O10      1.0000 0.08220  0.76227  0.49030  Biso   1.000  O
  O11      1.0000 0.08220  0.73773  0.99030  Biso   1.000  O
  O12      1.0000 0.91780  0.23773  0.50970  Biso   1.000  O
  N1       1.0000 0.78820  0.36368  0.87450  Biso   1.000  N
  N2       1.0000 0.21180  0.86368  0.62550  Biso   1.000  N
  N3       1.0000 0.21180  0.63632  0.12550  Biso   1.000  N
  N4       1.0000 0.78820  0.13632  0.37450  Biso   1.000  N
  O13      1.0000 0.74430  0.41657  0.49360  Biso   1.000  O
  O14      1.0000 0.25570  0.91657  0.00640  Biso   1.000  O
  O15      1.0000 0.25570  0.58343  0.50640  Biso   1.000  O
  O16      1.0000 0.74430  0.08343  0.99360  Biso   1.000  O
  C1       1.0000 0.16830  0.20010  0.87040  Biso   1.000  C
  C2       1.0000 0.83170  0.70010  0.62960  Biso   1.000  C
  C3       1.0000 0.83170  0.79990  0.12960  Biso   1.000  C
  C4       1.0000 0.16830  0.29990  0.37040  Biso   1.000  C
  N5       1.0000 0.54260  0.17852  0.78760  Biso   1.000  N
  N6       1.0000 0.45740  0.67852  0.71240  Biso   1.000  N
  N7       1.0000 0.45740  0.82148  0.21240  Biso   1.000  N
  N8       1.0000 0.54260  0.32148  0.28760  Biso   1.000  N
  H1       1.0000 0.60590  0.20080  0.75110  Biso   1.000  H
  H2       1.0000 0.39410  0.70080  0.74890  Biso   1.000  H
  H3       1.0000 0.39410  0.79920  0.24890  Biso   1.000  H
  H4       1.0000 0.60590  0.29920  0.25110  Biso   1.000  H
  H5       1.0000 0.56860  0.14070  0.81600  Biso   1.000  H
  H6       1.0000 0.43140  0.64070  0.68400  Biso   1.000  H
  H7       1.0000 0.43140  0.85930  0.18400  Biso   1.000  H
  H8       1.0000 0.56860  0.35930  0.31600  Biso   1.000  H
  N9       1.0000 0.37330  0.26012  0.75500  Biso   1.000  N
  N10      1.0000 0.62670  0.76012  0.74500  Biso   1.000  N
  N11      1.0000 0.62670  0.73988  0.24500  Biso   1.000  N
  N12      1.0000 0.37330  0.23988  0.25500  Biso   1.000  N
  N13      1.0000 0.08030  0.16208  0.92800  Biso   1.000  N
  N14      1.0000 0.91970  0.66208  0.57200  Biso   1.000  N
  N15      1.0000 0.91970  0.83792  0.07200  Biso   1.000  N
  N16      1.0000 0.08030  0.33792  0.42800  Biso   1.000  N
  H9       1.0000 0.98930  0.17100  0.94440  Biso   1.000  H
  H10      1.0000 0.01070  0.67100  0.55560  Biso   1.000  H
  H11      1.0000 0.01070  0.82900  0.05560  Biso   1.000  H
  H12      1.0000 0.98930  0.32900  0.44440  Biso   1.000  H
  C5       1.0000 0.89370  0.41180  0.96840  Biso   1.000  C
  C6       1.0000 0.10630  0.91180  0.53160  Biso   1.000  C
  C7       1.0000 0.10630  0.58820  0.03160  Biso   1.000  C
  C8       1.0000 0.89370  0.08820  0.46840  Biso   1.000  C
  H13      1.0000 0.95810  0.42970  0.90750  Biso   1.000  H
  H14      1.0000 0.04190  0.92970  0.59250  Biso   1.000  H
  H15      1.0000 0.04190  0.57030  0.09250  Biso   1.000  H
  H16      1.0000 0.95810  0.07030  0.40750  Biso   1.000  H
  H17      1.0000 0.96870  0.39230  0.05950  Biso   1.000  H
  H18      1.0000 0.03130  0.89230  0.44050  Biso   1.000  H
  H19      1.0000 0.03130  0.60770  0.94050  Biso   1.000  H
  H20      1.0000 0.96870  0.10770  0.55950  Biso   1.000  H
  C9       1.0000 0.40770  0.20210  0.79990  Biso   1.000  C
  C10      1.0000 0.59230  0.70210  0.70010  Biso   1.000  C
  C11      1.0000 0.59230  0.79790  0.20010  Biso   1.000  C
  C12      1.0000 0.40770  0.29790  0.29990  Biso   1.000  C
  C13      1.0000 0.80170  0.28120  0.05370  Biso   1.000  C
  C14      1.0000 0.19830  0.78120  0.44630  Biso   1.000  C
  C15      1.0000 0.19830  0.71880  0.94630  Biso   1.000  C
  C16      1.0000 0.80170  0.21880  0.55370  Biso   1.000  C
  C17      1.0000 0.30360  0.16880  0.85960  Biso   1.000  C
  C18      1.0000 0.69640  0.66880  0.64040  Biso   1.000  C
  C19      1.0000 0.69640  0.83120  0.14040  Biso   1.000  C
  C20      1.0000 0.30360  0.33120  0.35960  Biso   1.000  C
  C21      1.0000 0.69790  0.33020  0.96010  Biso   1.000  C
  C22      1.0000 0.30210  0.83020  0.53990  Biso   1.000  C
  C23      1.0000 0.30210  0.66980  0.03990  Biso   1.000  C
  C24      1.0000 0.69790  0.16980  0.46010  Biso   1.000  C
  H21      1.0000 0.60110  0.31180  0.88780  Biso   1.000  H
  H22      1.0000 0.39890  0.81180  0.61220  Biso   1.000  H
  H23      1.0000 0.39890  0.68820  0.11220  Biso   1.000  H
  H24      1.0000 0.60110  0.18820  0.38780  Biso   1.000  H
  H25      1.0000 0.66370  0.35850  0.02800  Biso   1.000  H
  H26      1.0000 0.33630  0.85850  0.47200  Biso   1.000  H
  H27      1.0000 0.33630  0.64150  0.97200  Biso   1.000  H
  H28      1.0000 0.66370  0.14150  0.52800  Biso   1.000  H
  N17      1.0000 0.13550  0.25927  0.82980  Biso   1.000  N
  N18      1.0000 0.86450  0.75927  0.67020  Biso   1.000  N
  N19      1.0000 0.86450  0.74073  0.17020  Biso   1.000  N
  N20      1.0000 0.13550  0.24073  0.32980  Biso   1.000  N
  C25      1.0000 0.69210  0.38540  0.72130  Biso   1.000  C
  C26      1.0000 0.30790  0.88540  0.77870  Biso   1.000  C
  C27      1.0000 0.30790  0.61460  0.27870  Biso   1.000  C
  C28      1.0000 0.69210  0.11460  0.22130  Biso   1.000  C
  H29      1.0000 0.64760  0.42620  0.73040  Biso   1.000  H
  H30      1.0000 0.35240  0.92620  0.76960  Biso   1.000  H
  H31      1.0000 0.35240  0.57380  0.26960  Biso   1.000  H
  H32      1.0000 0.64760  0.07380  0.23040  Biso   1.000  H
  H33      1.0000 0.60180  0.35720  0.67750  Biso   1.000  H
  H34      1.0000 0.39820  0.85720  0.82250  Biso   1.000  H
  H35      1.0000 0.39820  0.64280  0.32250  Biso   1.000  H
  H36      1.0000 0.60180  0.14280  0.17750  Biso   1.000  H
  C29      1.0000 0.24260  0.28500  0.77110  Biso   1.000  C
  C30      1.0000 0.75740  0.78500  0.72890  Biso   1.000  C
  C31      1.0000 0.75740  0.71500  0.22890  Biso   1.000  C
  C32      1.0000 0.24260  0.21500  0.27110  Biso   1.000  C
  H37      1.0000 0.22180  0.32590  0.73720  Biso   1.000  H
  H38      1.0000 0.77820  0.82590  0.76280  Biso   1.000  H
  H39      1.0000 0.77820  0.67410  0.26280  Biso   1.000  H
  H40      1.0000 0.22180  0.17410  0.23720  Biso   1.000  H
  C33      1.0000 0.79650  0.38890  0.61640  Biso   1.000  C
  C34      1.0000 0.20350  0.88890  0.88360  Biso   1.000  C
  C35      1.0000 0.20350  0.61110  0.38360  Biso   1.000  C
  C36      1.0000 0.79650  0.11110  0.11640  Biso   1.000  C
  C37      1.0000 0.70200  0.50630  0.21000  Biso   1.000  C
  C38      1.0000 0.29800  0.00630  0.29000  Biso   1.000  C
  C39      1.0000 0.29800  0.49370  0.79000  Biso   1.000  C
  C40      1.0000 0.70200  0.99370  0.71000  Biso   1.000  C
  H41      1.0000 0.68300  0.50400  0.30640  Biso   1.000  H
  H42      1.0000 0.31700  0.00400  0.19360  Biso   1.000  H
  H43      1.0000 0.31700  0.49600  0.69360  Biso   1.000  H
  H44      1.0000 0.68300  0.99600  0.80640  Biso   1.000  H
  C41      1.0000 0.80830  0.46280  0.02170  Biso   1.000  C
  C42      1.0000 0.19170  0.96280  0.47830  Biso   1.000  C
  C43      1.0000 0.19170  0.53720  0.97830  Biso   1.000  C
  C44      1.0000 0.80830  0.03720  0.52170  Biso   1.000  C
  C45      1.0000 0.67900  0.56030  0.98240  Biso   1.000  C
  C46      1.0000 0.32100  0.06030  0.51760  Biso   1.000  C
  C47      1.0000 0.32100  0.43970  0.01760  Biso   1.000  C
  C48      1.0000 0.67900  0.93970  0.48240  Biso   1.000  C
  H45      1.0000 0.64430  0.59540  0.92050  Biso   1.000  H
  H46      1.0000 0.35570  0.09540  0.57950  Biso   1.000  H
  H47      1.0000 0.35570  0.40460  0.07950  Biso   1.000  H
  H48      1.0000 0.64430  0.90460  0.42050  Biso   1.000  H
  C49      1.0000 0.65100  0.55590  0.11930  Biso   1.000  C
  C50      1.0000 0.34900  0.05590  0.38070  Biso   1.000  C
  C51      1.0000 0.34900  0.44410  0.88070  Biso   1.000  C
  C52      1.0000 0.65100  0.94410  0.61930  Biso   1.000  C
  H49      1.0000 0.59550  0.58760  0.15210  Biso   1.000  H
  H50      1.0000 0.40450  0.08760  0.34790  Biso   1.000  H
  H51      1.0000 0.40450  0.41240  0.84790  Biso   1.000  H
  H52      1.0000 0.59550  0.91240  0.65210  Biso   1.000  H
  C53      1.0000 0.75770  0.51410  0.93240  Biso   1.000  C
  C54      1.0000 0.24230  0.01410  0.56760  Biso   1.000  C
  C55      1.0000 0.24230  0.48590  0.06760  Biso   1.000  C
  C56      1.0000 0.75770  0.98590  0.43240  Biso   1.000  C
  H53      1.0000 0.77720  0.51760  0.83640  Biso   1.000  H
  H54      1.0000 0.22280  0.01760  0.66360  Biso   1.000  H
  H55      1.0000 0.22280  0.48240  0.16360  Biso   1.000  H
  H56      1.0000 0.77720  0.98240  0.33640  Biso   1.000  H
  C57      1.0000 0.29450  0.10820  0.91520  Biso   1.000  C
  C58      1.0000 0.70550  0.60820  0.58480  Biso   1.000  C
  C59      1.0000 0.70550  0.89180  0.08480  Biso   1.000  C
  C60      1.0000 0.29450  0.39180  0.41520  Biso   1.000  C
  H57      1.0000 0.36810  0.07580  0.92190  Biso   1.000  H
  H58      1.0000 0.63190  0.57580  0.57810  Biso   1.000  H
  H59      1.0000 0.63190  0.92420  0.07810  Biso   1.000  H
  H60      1.0000 0.36810  0.42420  0.42190  Biso   1.000  H
  C61      1.0000 0.78110  0.45920  0.16350  Biso   1.000  C
  C62      1.0000 0.21890  0.95920  0.33650  Biso   1.000  C
  C63      1.0000 0.21890  0.54080  0.83650  Biso   1.000  C
  C64      1.0000 0.78110  0.04080  0.66350  Biso   1.000  C
  H61      1.0000 0.81660  0.42470  0.22760  Biso   1.000  H
  H62      1.0000 0.18340  0.92470  0.27240  Biso   1.000  H
  H63      1.0000 0.18340  0.57530  0.77240  Biso   1.000  H
  H64      1.0000 0.81660  0.07530  0.72760  Biso   1.000  H
  C65      1.0000 0.15840  0.10680  0.95630  Biso   1.000  C
  C66      1.0000 0.84160  0.60680  0.54370  Biso   1.000  C
  C67      1.0000 0.84160  0.89320  0.04370  Biso   1.000  C
  C68      1.0000 0.15840  0.39320  0.45630  Biso   1.000  C
  H65      1.0000 0.12200  0.07240  0.99890  Biso   1.000  H
  H66      1.0000 0.87800  0.57240  0.50110  Biso   1.000  H
  H67      1.0000 0.87800  0.92760  0.00110  Biso   1.000  H
  H68      1.0000 0.12200  0.42760  0.49890  Biso   1.000  H
