data_image0
_cell_length_a       13.418
_cell_length_b       7.707
_cell_length_c       19.083
_cell_angle_alpha    90
_cell_angle_beta     106.648
_cell_angle_gamma    90

_symmetry_space_group_name_H-M    "P 1"
_symmetry_int_tables_number       1

loop_
  _symmetry_equiv_pos_as_xyz
  'x, y, z'

loop_
  _atom_site_label
  _atom_site_occupancy
  _atom_site_fract_x
  _atom_site_fract_y
  _atom_site_fract_z
  _atom_site_thermal_displace_type
  _atom_site_B_iso_or_equiv
  _atom_site_type_symbol
  Cu1      1.0000 0.02567  0.19919  0.14603  Biso   1.000  Cu
  Cu2      1.0000 0.97433  0.69919  0.35397  Biso   1.000  Cu
  Cu3      1.0000 0.97433  0.80081  0.85397  Biso   1.000  Cu
  Cu4      1.0000 0.02567  0.30081  0.64603  Biso   1.000  Cu
  Cl1      1.0000 0.33535  0.38694  0.92593  Biso   1.000  Cl
  Cl2      1.0000 0.66465  0.88694  0.57407  Biso   1.000  Cl
  Cl3      1.0000 0.66465  0.61306  0.07407  Biso   1.000  Cl
  Cl4      1.0000 0.33535  0.11306  0.42593  Biso   1.000  Cl
  O1       1.0000 0.08670  0.42510  0.13780  Biso   1.000  O
  O2       1.0000 0.91330  0.92510  0.36220  Biso   1.000  O
  O3       1.0000 0.91330  0.57490  0.86220  Biso   1.000  O
  O4       1.0000 0.08670  0.07490  0.63780  Biso   1.000  O
  O5       1.0000 0.22010  0.59030  0.19370  Biso   1.000  O
  O6       1.0000 0.77990  0.09030  0.30630  Biso   1.000  O
  O7       1.0000 0.77990  0.40970  0.80630  Biso   1.000  O
  O8       1.0000 0.22010  0.90970  0.69370  Biso   1.000  O
  O9       1.0000 0.99300  0.95860  0.16380  Biso   1.000  O
  O10      1.0000 0.00700  0.45860  0.33620  Biso   1.000  O
  O11      1.0000 0.00700  0.04140  0.83620  Biso   1.000  O
  O12      1.0000 0.99300  0.54140  0.66380  Biso   1.000  O
  O13      1.0000 0.03170  0.77250  0.25750  Biso   1.000  O
  O14      1.0000 0.96830  0.27250  0.24250  Biso   1.000  O
  O15      1.0000 0.96830  0.22750  0.74250  Biso   1.000  O
  O16      1.0000 0.03170  0.72750  0.75750  Biso   1.000  O
  N1       1.0000 0.16240  0.14480  0.21650  Biso   1.000  N
  N2       1.0000 0.83760  0.64480  0.28350  Biso   1.000  N
  N3       1.0000 0.83760  0.85520  0.78350  Biso   1.000  N
  N4       1.0000 0.16240  0.35520  0.71650  Biso   1.000  N
  N5       1.0000 0.63990  0.23030  0.95740  Biso   1.000  N
  N6       1.0000 0.36010  0.73030  0.54260  Biso   1.000  N
  N7       1.0000 0.36010  0.76970  0.04260  Biso   1.000  N
  N8       1.0000 0.63990  0.26970  0.45740  Biso   1.000  N
  N9       1.0000 0.90590  0.23990  0.06180  Biso   1.000  N
  N10      1.0000 0.09410  0.73990  0.43820  Biso   1.000  N
  N11      1.0000 0.09410  0.76010  0.93820  Biso   1.000  N
  N12      1.0000 0.90590  0.26010  0.56180  Biso   1.000  N
  N13      1.0000 0.81170  0.30340  0.94800  Biso   1.000  N
  N14      1.0000 0.18830  0.80340  0.55200  Biso   1.000  N
  N15      1.0000 0.18830  0.69660  0.05200  Biso   1.000  N
  N16      1.0000 0.81170  0.19660  0.44800  Biso   1.000  N
  H1       1.0000 0.79640  0.33790  0.90220  Biso   1.000  H
  H2       1.0000 0.20360  0.83790  0.59780  Biso   1.000  H
  H3       1.0000 0.20360  0.66210  0.09780  Biso   1.000  H
  H4       1.0000 0.79640  0.16210  0.40220  Biso   1.000  H
  C1       1.0000 0.64640  0.13600  0.07980  Biso   1.000  C
  C2       1.0000 0.35360  0.63600  0.42020  Biso   1.000  C
  C3       1.0000 0.35360  0.86400  0.92020  Biso   1.000  C
  C4       1.0000 0.64640  0.36400  0.57980  Biso   1.000  C
  H5       1.0000 0.60810  0.09950  0.11200  Biso   1.000  H
  H6       1.0000 0.39190  0.59950  0.38800  Biso   1.000  H
  H7       1.0000 0.39190  0.90050  0.88800  Biso   1.000  H
  H8       1.0000 0.60810  0.40050  0.61200  Biso   1.000  H
  C5       1.0000 0.59340  0.17210  0.00620  Biso   1.000  C
  C6       1.0000 0.40660  0.67210  0.49380  Biso   1.000  C
  C7       1.0000 0.40660  0.82790  0.99380  Biso   1.000  C
  C8       1.0000 0.59340  0.32790  0.50620  Biso   1.000  C
  H9       1.0000 0.52030  0.15420  0.99030  Biso   1.000  H
  H10      1.0000 0.47970  0.65420  0.50970  Biso   1.000  H
  H11      1.0000 0.47970  0.84580  0.00970  Biso   1.000  H
  H12      1.0000 0.52030  0.34580  0.49030  Biso   1.000  H
  C9       1.0000 0.74330  0.24710  0.98480  Biso   1.000  C
  C10      1.0000 0.25670  0.74710  0.51520  Biso   1.000  C
  C11      1.0000 0.25670  0.75290  0.01520  Biso   1.000  C
  C12      1.0000 0.74330  0.25290  0.48480  Biso   1.000  C
  C13      1.0000 0.80310  0.21100  0.05590  Biso   1.000  C
  C14      1.0000 0.19690  0.71100  0.44410  Biso   1.000  C
  C15      1.0000 0.19690  0.78900  0.94410  Biso   1.000  C
  C16      1.0000 0.80310  0.28900  0.55590  Biso   1.000  C
  C17      1.0000 0.75160  0.15250  0.10550  Biso   1.000  C
  C18      1.0000 0.24840  0.65250  0.39450  Biso   1.000  C
  C19      1.0000 0.24840  0.84750  0.89450  Biso   1.000  C
  C20      1.0000 0.75160  0.34750  0.60550  Biso   1.000  C
  H13      1.0000 0.78820  0.12560  0.15470  Biso   1.000  H
  H14      1.0000 0.21180  0.62560  0.34530  Biso   1.000  H
  H15      1.0000 0.21180  0.87440  0.84530  Biso   1.000  H
  H16      1.0000 0.78820  0.37440  0.65470  Biso   1.000  H
  C21      1.0000 0.90560  0.29500  0.99570  Biso   1.000  C
  C22      1.0000 0.09440  0.79500  0.50430  Biso   1.000  C
  C23      1.0000 0.09440  0.70500  0.00430  Biso   1.000  C
  C24      1.0000 0.90560  0.20500  0.49570  Biso   1.000  C
  H17      1.0000 0.96720  0.32570  0.98360  Biso   1.000  H
  H18      1.0000 0.03280  0.82570  0.51640  Biso   1.000  H
  H19      1.0000 0.03280  0.67430  0.01640  Biso   1.000  H
  H20      1.0000 0.96720  0.17430  0.48360  Biso   1.000  H
  C25      1.0000 0.20300  0.31320  0.24740  Biso   1.000  C
  C26      1.0000 0.79700  0.81320  0.25260  Biso   1.000  C
  C27      1.0000 0.79700  0.68680  0.75260  Biso   1.000  C
  C28      1.0000 0.20300  0.18680  0.74740  Biso   1.000  C
  H21      1.0000 0.27990  0.30970  0.26440  Biso   1.000  H
  H22      1.0000 0.72010  0.80970  0.23560  Biso   1.000  H
  H23      1.0000 0.72010  0.69030  0.73560  Biso   1.000  H
  H24      1.0000 0.27990  0.19030  0.76440  Biso   1.000  H
  H25      1.0000 0.17710  0.34050  0.28980  Biso   1.000  H
  H26      1.0000 0.82290  0.84050  0.21020  Biso   1.000  H
  H27      1.0000 0.82290  0.65950  0.71020  Biso   1.000  H
  H28      1.0000 0.17710  0.15950  0.78980  Biso   1.000  H
  C29      1.0000 0.16750  0.44980  0.18940  Biso   1.000  C
  C30      1.0000 0.83250  0.94980  0.31060  Biso   1.000  C
  C31      1.0000 0.83250  0.55020  0.81060  Biso   1.000  C
  C32      1.0000 0.16750  0.05020  0.68940  Biso   1.000  C
  C33      1.0000 0.13660  0.02240  0.26780  Biso   1.000  C
  C34      1.0000 0.86340  0.52240  0.23220  Biso   1.000  C
  C35      1.0000 0.86340  0.97760  0.73220  Biso   1.000  C
  C36      1.0000 0.13660  0.47760  0.76780  Biso   1.000  C
  H29      1.0000 0.11550  0.08700  0.30610  Biso   1.000  H
  H30      1.0000 0.88450  0.58700  0.19390  Biso   1.000  H
  H31      1.0000 0.88450  0.91300  0.69390  Biso   1.000  H
  H32      1.0000 0.11550  0.41300  0.80610  Biso   1.000  H
  H33      1.0000 0.19840  0.95120  0.29190  Biso   1.000  H
  H34      1.0000 0.80160  0.45120  0.20810  Biso   1.000  H
  H35      1.0000 0.80160  0.04880  0.70810  Biso   1.000  H
  H36      1.0000 0.19840  0.54880  0.79190  Biso   1.000  H
  C37      1.0000 0.04830  0.90600  0.22600  Biso   1.000  C
  C38      1.0000 0.95170  0.40600  0.27400  Biso   1.000  C
  C39      1.0000 0.95170  0.09400  0.77400  Biso   1.000  C
  C40      1.0000 0.04830  0.59400  0.72600  Biso   1.000  C
  C41      1.0000 0.23550  0.05640  0.18210  Biso   1.000  C
  C42      1.0000 0.76450  0.55640  0.31790  Biso   1.000  C
  C43      1.0000 0.76450  0.94360  0.81790  Biso   1.000  C
  C44      1.0000 0.23550  0.44360  0.68210  Biso   1.000  C
  H37      1.0000 0.20700  0.94050  0.16490  Biso   1.000  H
  H38      1.0000 0.79300  0.44050  0.33510  Biso   1.000  H
  H39      1.0000 0.79300  0.05950  0.83510  Biso   1.000  H
  H40      1.0000 0.20700  0.55950  0.66490  Biso   1.000  H
  H41      1.0000 0.30260  0.03860  0.22000  Biso   1.000  H
  H42      1.0000 0.69740  0.53860  0.28000  Biso   1.000  H
  H43      1.0000 0.69740  0.96140  0.78000  Biso   1.000  H
  H44      1.0000 0.30260  0.46140  0.72000  Biso   1.000  H
  C45      1.0000 0.25600  0.15300  0.11830  Biso   1.000  C
  C46      1.0000 0.74400  0.65300  0.38170  Biso   1.000  C
  C47      1.0000 0.74400  0.84700  0.88170  Biso   1.000  C
  C48      1.0000 0.25600  0.34700  0.61830  Biso   1.000  C
  C49      1.0000 0.34610  0.24820  0.12810  Biso   1.000  C
  C50      1.0000 0.65390  0.74820  0.37190  Biso   1.000  C
  C51      1.0000 0.65390  0.75180  0.87190  Biso   1.000  C
  C52      1.0000 0.34610  0.25180  0.62810  Biso   1.000  C
  H45      1.0000 0.39240  0.26100  0.17590  Biso   1.000  H
  H46      1.0000 0.60760  0.76100  0.32410  Biso   1.000  H
  H47      1.0000 0.60760  0.73900  0.82410  Biso   1.000  H
  H48      1.0000 0.39240  0.23900  0.67590  Biso   1.000  H
  C53      1.0000 0.37020  0.32530  0.06930  Biso   1.000  C
  C54      1.0000 0.62980  0.82530  0.43070  Biso   1.000  C
  C55      1.0000 0.62980  0.67470  0.93070  Biso   1.000  C
  C56      1.0000 0.37020  0.17470  0.56930  Biso   1.000  C
  H49      1.0000 0.43220  0.39100  0.07590  Biso   1.000  H
  H50      1.0000 0.56780  0.89100  0.42410  Biso   1.000  H
  H51      1.0000 0.56780  0.60900  0.92410  Biso   1.000  H
  H52      1.0000 0.43220  0.10900  0.57590  Biso   1.000  H
  C57      1.0000 0.30120  0.30300  0.00120  Biso   1.000  C
  C58      1.0000 0.69880  0.80300  0.49880  Biso   1.000  C
  C59      1.0000 0.69880  0.69700  0.99880  Biso   1.000  C
  C60      1.0000 0.30120  0.19700  0.50120  Biso   1.000  C
  C61      1.0000 0.20840  0.21410  0.98950  Biso   1.000  C
  C62      1.0000 0.79160  0.71410  0.51050  Biso   1.000  C
  C63      1.0000 0.79160  0.78590  0.01050  Biso   1.000  C
  C64      1.0000 0.20840  0.28590  0.48950  Biso   1.000  C
  H53      1.0000 0.16080  0.20430  0.94200  Biso   1.000  H
  H54      1.0000 0.83920  0.70430  0.55800  Biso   1.000  H
  H55      1.0000 0.83920  0.79570  0.05800  Biso   1.000  H
  H56      1.0000 0.16080  0.29570  0.44200  Biso   1.000  H
  C65      1.0000 0.18770  0.14030  0.04980  Biso   1.000  C
  C66      1.0000 0.81230  0.64030  0.45020  Biso   1.000  C
  C67      1.0000 0.81230  0.85970  0.95020  Biso   1.000  C
  C68      1.0000 0.18770  0.35970  0.54980  Biso   1.000  C
  H57      1.0000 0.12440  0.07890  0.04350  Biso   1.000  H
  H58      1.0000 0.87560  0.57890  0.45650  Biso   1.000  H
  H59      1.0000 0.87560  0.92110  0.95650  Biso   1.000  H
  H60      1.0000 0.12440  0.42110  0.54350  Biso   1.000  H
  O17      1.0000 0.48460  0.24800  0.31770  Biso   1.000  O
  O18      1.0000 0.51540  0.74800  0.18230  Biso   1.000  O
  O19      1.0000 0.51540  0.75200  0.68230  Biso   1.000  O
  O20      1.0000 0.48460  0.25200  0.81770  Biso   1.000  O
  H61      1.0000 0.54200  0.24670  0.35150  Biso   1.000  H
  H62      1.0000 0.45800  0.74670  0.14850  Biso   1.000  H
  H63      1.0000 0.45800  0.75330  0.64850  Biso   1.000  H
  H64      1.0000 0.54200  0.25330  0.85150  Biso   1.000  H
  H65      1.0000 0.47220  0.35120  0.30130  Biso   1.000  H
  H66      1.0000 0.52780  0.85120  0.19870  Biso   1.000  H
  H67      1.0000 0.52780  0.64880  0.69870  Biso   1.000  H
  H68      1.0000 0.47220  0.14880  0.80130  Biso   1.000  H
  O21      1.0000 0.42690  0.57470  0.27140  Biso   1.000  O
  O22      1.0000 0.57310  0.07470  0.22860  Biso   1.000  O
  O23      1.0000 0.57310  0.42530  0.72860  Biso   1.000  O
  O24      1.0000 0.42690  0.92530  0.77140  Biso   1.000  O
  H69      1.0000 0.45970  0.64990  0.25380  Biso   1.000  H
  H70      1.0000 0.54030  0.14990  0.24620  Biso   1.000  H
  H71      1.0000 0.54030  0.35010  0.74620  Biso   1.000  H
  H72      1.0000 0.45970  0.85010  0.75380  Biso   1.000  H
  H73      1.0000 0.37830  0.53070  0.23660  Biso   1.000  H
  H74      1.0000 0.62170  0.03070  0.26340  Biso   1.000  H
  H75      1.0000 0.62170  0.46930  0.76340  Biso   1.000  H
  H76      1.0000 0.37830  0.96930  0.73660  Biso   1.000  H
