data_image0
_cell_length_a       21.36
_cell_length_b       6.72
_cell_length_c       15.64
_cell_angle_alpha    90
_cell_angle_beta     98.25
_cell_angle_gamma    90

_symmetry_space_group_name_H-M    "P 1"
_symmetry_int_tables_number       1

loop_
  _symmetry_equiv_pos_as_xyz
  'x, y, z'

loop_
  _atom_site_label
  _atom_site_occupancy
  _atom_site_fract_x
  _atom_site_fract_y
  _atom_site_fract_z
  _atom_site_thermal_displace_type
  _atom_site_B_iso_or_equiv
  _atom_site_type_symbol
  Cl1      1.0000 0.23099  0.88913  0.84405  Biso   1.000  Cl
  Cl2      1.0000 0.73099  0.38913  0.84405  Biso   1.000  Cl
  Cl3      1.0000 0.76901  0.88913  0.65595  Biso   1.000  Cl
  Cl4      1.0000 0.26901  0.38913  0.65595  Biso   1.000  Cl
  Cl5      1.0000 0.76901  0.11087  0.15595  Biso   1.000  Cl
  Cl6      1.0000 0.26901  0.61087  0.15595  Biso   1.000  Cl
  Cl7      1.0000 0.23099  0.11087  0.34405  Biso   1.000  Cl
  Cl8      1.0000 0.73099  0.61087  0.34405  Biso   1.000  Cl
  Cu1      1.0000 0.16424  0.94587  0.72219  Biso   1.000  Cu
  Cu2      1.0000 0.66424  0.44587  0.72219  Biso   1.000  Cu
  Cu3      1.0000 0.83576  0.94587  0.77781  Biso   1.000  Cu
  Cu4      1.0000 0.33576  0.44587  0.77781  Biso   1.000  Cu
  Cu5      1.0000 0.83576  0.05413  0.27781  Biso   1.000  Cu
  Cu6      1.0000 0.33576  0.55413  0.27781  Biso   1.000  Cu
  Cu7      1.0000 0.16424  0.05413  0.22219  Biso   1.000  Cu
  Cu8      1.0000 0.66424  0.55413  0.22219  Biso   1.000  Cu
  C1       1.0000 0.21077  0.94929  0.56025  Biso   1.000  C
  C2       1.0000 0.71077  0.44929  0.56025  Biso   1.000  C
  C3       1.0000 0.78923  0.94929  0.93975  Biso   1.000  C
  C4       1.0000 0.28923  0.44929  0.93975  Biso   1.000  C
  C5       1.0000 0.78923  0.05071  0.43975  Biso   1.000  C
  C6       1.0000 0.28923  0.55071  0.43975  Biso   1.000  C
  C7       1.0000 0.21077  0.05071  0.06025  Biso   1.000  C
  C8       1.0000 0.71077  0.55071  0.06025  Biso   1.000  C
  C9       1.0000 0.14973  0.07428  0.55631  Biso   1.000  C
  C10      1.0000 0.64973  0.57428  0.55631  Biso   1.000  C
  C11      1.0000 0.85027  0.07428  0.94369  Biso   1.000  C
  C12      1.0000 0.35027  0.57428  0.94369  Biso   1.000  C
  C13      1.0000 0.85027  0.92572  0.44369  Biso   1.000  C
  C14      1.0000 0.35027  0.42572  0.44369  Biso   1.000  C
  C15      1.0000 0.14973  0.92572  0.05631  Biso   1.000  C
  C16      1.0000 0.64973  0.42572  0.05631  Biso   1.000  C
  C17      1.0000 0.07001  0.26045  0.46569  Biso   1.000  C
  C18      1.0000 0.57001  0.76045  0.46569  Biso   1.000  C
  C19      1.0000 0.92999  0.26045  0.03431  Biso   1.000  C
  C20      1.0000 0.42999  0.76045  0.03431  Biso   1.000  C
  C21      1.0000 0.92999  0.73955  0.53431  Biso   1.000  C
  C22      1.0000 0.42999  0.23955  0.53431  Biso   1.000  C
  C23      1.0000 0.07001  0.73955  0.96569  Biso   1.000  C
  C24      1.0000 0.57001  0.23955  0.96569  Biso   1.000  C
  C25      1.0000 0.07828  0.48602  0.45461  Biso   1.000  C
  C26      1.0000 0.57828  0.98602  0.45461  Biso   1.000  C
  C27      1.0000 0.92172  0.48602  0.04539  Biso   1.000  C
  C28      1.0000 0.42172  0.98602  0.04539  Biso   1.000  C
  C29      1.0000 0.92172  0.51398  0.54539  Biso   1.000  C
  C30      1.0000 0.42172  0.01398  0.54539  Biso   1.000  C
  C31      1.0000 0.07828  0.51398  0.95461  Biso   1.000  C
  C32      1.0000 0.57828  0.01398  0.95461  Biso   1.000  C
  C33      1.0000 0.04280  0.77080  0.36624  Biso   1.000  C
  C34      1.0000 0.54280  0.27080  0.36624  Biso   1.000  C
  C35      1.0000 0.95720  0.77080  0.13376  Biso   1.000  C
  C36      1.0000 0.45720  0.27080  0.13376  Biso   1.000  C
  C37      1.0000 0.95720  0.22920  0.63376  Biso   1.000  C
  C38      1.0000 0.45720  0.72920  0.63376  Biso   1.000  C
  C39      1.0000 0.04280  0.22920  0.86624  Biso   1.000  C
  C40      1.0000 0.54280  0.72920  0.86624  Biso   1.000  C
  C41      1.0000 0.09400  0.80975  0.31098  Biso   1.000  C
  C42      1.0000 0.59400  0.30975  0.31098  Biso   1.000  C
  C43      1.0000 0.90600  0.80975  0.18902  Biso   1.000  C
  C44      1.0000 0.40600  0.30975  0.18902  Biso   1.000  C
  C45      1.0000 0.90600  0.19025  0.68902  Biso   1.000  C
  C46      1.0000 0.40600  0.69025  0.68902  Biso   1.000  C
  C47      1.0000 0.09400  0.19025  0.81098  Biso   1.000  C
  C48      1.0000 0.59400  0.69025  0.81098  Biso   1.000  C
  N1       1.0000 0.23238  0.90325  0.64956  Biso   1.000  N
  N2       1.0000 0.73238  0.40325  0.64956  Biso   1.000  N
  N3       1.0000 0.76762  0.90325  0.85044  Biso   1.000  N
  N4       1.0000 0.26762  0.40325  0.85044  Biso   1.000  N
  N5       1.0000 0.76762  0.09675  0.35044  Biso   1.000  N
  N6       1.0000 0.26762  0.59675  0.35044  Biso   1.000  N
  N7       1.0000 0.23238  0.09675  0.14956  Biso   1.000  N
  N8       1.0000 0.73238  0.59675  0.14956  Biso   1.000  N
  N9       1.0000 0.13085  0.16103  0.48253  Biso   1.000  N
  N10      1.0000 0.63085  0.66103  0.48253  Biso   1.000  N
  N11      1.0000 0.86915  0.16103  0.01747  Biso   1.000  N
  N12      1.0000 0.36915  0.66103  0.01747  Biso   1.000  N
  N13      1.0000 0.86915  0.83897  0.51747  Biso   1.000  N
  N14      1.0000 0.36915  0.33897  0.51747  Biso   1.000  N
  N15      1.0000 0.13085  0.83897  0.98253  Biso   1.000  N
  N16      1.0000 0.63085  0.33897  0.98253  Biso   1.000  N
  N17      1.0000 0.04070  0.55828  0.38852  Biso   1.000  N
  N18      1.0000 0.54070  0.05828  0.38852  Biso   1.000  N
  N19      1.0000 0.95930  0.55828  0.11148  Biso   1.000  N
  N20      1.0000 0.45930  0.05828  0.11148  Biso   1.000  N
  N21      1.0000 0.95930  0.44172  0.61148  Biso   1.000  N
  N22      1.0000 0.45930  0.94172  0.61148  Biso   1.000  N
  N23      1.0000 0.04070  0.44172  0.88852  Biso   1.000  N
  N24      1.0000 0.54070  0.94172  0.88852  Biso   1.000  N
  O1       1.0000 0.11953  0.07956  0.61747  Biso   1.000  O
  O2       1.0000 0.61953  0.57956  0.61747  Biso   1.000  O
  O3       1.0000 0.88047  0.07956  0.88253  Biso   1.000  O
  O4       1.0000 0.38047  0.57956  0.88253  Biso   1.000  O
  O5       1.0000 0.88047  0.92044  0.38253  Biso   1.000  O
  O6       1.0000 0.38047  0.42044  0.38253  Biso   1.000  O
  O7       1.0000 0.11953  0.92044  0.11747  Biso   1.000  O
  O8       1.0000 0.61953  0.42044  0.11747  Biso   1.000  O
  O9       1.0000 0.11303  0.58224  0.50480  Biso   1.000  O
  O10      1.0000 0.61303  0.08224  0.50480  Biso   1.000  O
  O11      1.0000 0.88697  0.58224  0.99520  Biso   1.000  O
  O12      1.0000 0.38697  0.08224  0.99520  Biso   1.000  O
  O13      1.0000 0.88697  0.41776  0.49520  Biso   1.000  O
  O14      1.0000 0.38697  0.91776  0.49520  Biso   1.000  O
  O15      1.0000 0.11303  0.41776  0.00480  Biso   1.000  O
  O16      1.0000 0.61303  0.91776  0.00480  Biso   1.000  O
  O17      1.0000 0.09461  0.00541  0.78420  Biso   1.000  O
  O18      1.0000 0.59461  0.50541  0.78420  Biso   1.000  O
  O19      1.0000 0.90539  0.00541  0.71580  Biso   1.000  O
  O20      1.0000 0.40539  0.50541  0.71580  Biso   1.000  O
  O21      1.0000 0.90539  0.99459  0.21580  Biso   1.000  O
  O22      1.0000 0.40539  0.49459  0.21580  Biso   1.000  O
  O23      1.0000 0.09461  0.99459  0.28420  Biso   1.000  O
  O24      1.0000 0.59461  0.49459  0.28420  Biso   1.000  O
  O25      1.0000 0.13230  0.68964  0.29388  Biso   1.000  O
  O26      1.0000 0.63230  0.18964  0.29388  Biso   1.000  O
  O27      1.0000 0.86770  0.68964  0.20612  Biso   1.000  O
  O28      1.0000 0.36770  0.18964  0.20612  Biso   1.000  O
  O29      1.0000 0.86770  0.31036  0.70612  Biso   1.000  O
  O30      1.0000 0.36770  0.81036  0.70612  Biso   1.000  O
  O31      1.0000 0.13230  0.31036  0.79388  Biso   1.000  O
  O32      1.0000 0.63230  0.81036  0.79388  Biso   1.000  O
  O33      1.0000 0.12147  0.63832  0.68339  Biso   1.000  O
  O34      1.0000 0.62147  0.13832  0.68339  Biso   1.000  O
  O35      1.0000 0.87853  0.63832  0.81661  Biso   1.000  O
  O36      1.0000 0.37853  0.13832  0.81661  Biso   1.000  O
  O37      1.0000 0.87853  0.36168  0.31661  Biso   1.000  O
  O38      1.0000 0.37853  0.86168  0.31661  Biso   1.000  O
  O39      1.0000 0.12147  0.36168  0.18339  Biso   1.000  O
  O40      1.0000 0.62147  0.86168  0.18339  Biso   1.000  O
  O41      1.0000 0.00000  0.29531  0.25000  Biso   1.000  O
  O42      1.0000 0.50000  0.79531  0.25000  Biso   1.000  O
  O43      1.0000 0.00000  0.70469  0.75000  Biso   1.000  O
  O44      1.0000 0.50000  0.20469  0.75000  Biso   1.000  O
