data_image0
_cell_length_a       6.876
_cell_length_b       10.482
_cell_length_c       12.39
_cell_angle_alpha    85.4
_cell_angle_beta     82.72
_cell_angle_gamma    73.77

_symmetry_space_group_name_H-M    "P 1"
_symmetry_int_tables_number       1

loop_
  _symmetry_equiv_pos_as_xyz
  'x, y, z'

loop_
  _atom_site_label
  _atom_site_occupancy
  _atom_site_fract_x
  _atom_site_fract_y
  _atom_site_fract_z
  _atom_site_thermal_displace_type
  _atom_site_B_iso_or_equiv
  _atom_site_type_symbol
  Cu1      1.0000 0.77815  0.23747  0.29144  Biso   1.000  Cu
  Cu2      1.0000 0.22185  0.76253  0.70856  Biso   1.000  Cu
  O1       1.0000 0.42660  0.29440  0.27164  Biso   1.000  O
  O2       1.0000 0.57340  0.70560  0.72836  Biso   1.000  O
  H1       1.0000 0.36000  0.25600  0.25900  Biso   1.000  H
  H2       1.0000 0.64000  0.74400  0.74100  Biso   1.000  H
  H3       1.0000 0.42400  0.35100  0.23400  Biso   1.000  H
  H4       1.0000 0.57600  0.64900  0.76600  Biso   1.000  H
  N1       1.0000 0.76620  0.05840  0.35805  Biso   1.000  N
  N2       1.0000 0.23380  0.94160  0.64195  Biso   1.000  N
  N3       1.0000 0.75380  0.27390  0.45074  Biso   1.000  N
  N4       1.0000 0.24620  0.72610  0.54926  Biso   1.000  N
  O3       1.0000 0.89130  0.16527  0.14680  Biso   1.000  O
  O4       1.0000 0.10870  0.83473  0.85320  Biso   1.000  O
  O5       1.0000 0.16690  0.13570  0.23080  Biso   1.000  O
  O6       1.0000 0.83310  0.86430  0.76920  Biso   1.000  O
  O7       1.0000 0.19500  0.58717  0.75349  Biso   1.000  O
  O8       1.0000 0.80500  0.41283  0.24651  Biso   1.000  O
  O9       1.0000 0.43680  0.52820  0.86543  Biso   1.000  O
  O10      1.0000 0.56320  0.47180  0.13457  Biso   1.000  O
  C1       1.0000 0.76530  0.95340  0.30350  Biso   1.000  C
  C2       1.0000 0.23470  0.04660  0.69650  Biso   1.000  C
  H5       1.0000 0.77190  0.96140  0.22790  Biso   1.000  H
  H6       1.0000 0.22810  0.03860  0.77210  Biso   1.000  H
  C3       1.0000 0.75520  0.83410  0.35570  Biso   1.000  C
  C4       1.0000 0.24480  0.16590  0.64430  Biso   1.000  C
  H7       1.0000 0.75310  0.76320  0.31570  Biso   1.000  H
  H8       1.0000 0.24690  0.23680  0.68430  Biso   1.000  H
  C5       1.0000 0.74820  0.82050  0.46640  Biso   1.000  C
  C6       1.0000 0.25180  0.17950  0.53360  Biso   1.000  C
  H9       1.0000 0.74290  0.74010  0.50260  Biso   1.000  H
  H10      1.0000 0.25710  0.25990  0.49740  Biso   1.000  H
  C7       1.0000 0.74910  0.92800  0.52430  Biso   1.000  C
  C8       1.0000 0.25090  0.07200  0.47570  Biso   1.000  C
  H11      1.0000 0.74580  0.92070  0.59980  Biso   1.000  H
  H12      1.0000 0.25420  0.07930  0.40020  Biso   1.000  H
  C9       1.0000 0.75510  0.04610  0.46790  Biso   1.000  C
  C10      1.0000 0.24490  0.95390  0.53210  Biso   1.000  C
  C11      1.0000 0.74890  0.16980  0.52040  Biso   1.000  C
  C12      1.0000 0.25110  0.83020  0.47960  Biso   1.000  C
  C13      1.0000 0.73630  0.17940  0.63250  Biso   1.000  C
  C14      1.0000 0.26370  0.82060  0.36750  Biso   1.000  C
  H13      1.0000 0.73280  0.10600  0.67930  Biso   1.000  H
  H14      1.0000 0.26720  0.89400  0.32070  Biso   1.000  H
  C15      1.0000 0.72920  0.29970  0.67300  Biso   1.000  C
  C16      1.0000 0.27080  0.70030  0.32700  Biso   1.000  C
  H15      1.0000 0.72150  0.30830  0.74770  Biso   1.000  H
  H16      1.0000 0.27850  0.69170  0.25230  Biso   1.000  H
  C17      1.0000 0.73350  0.40760  0.60110  Biso   1.000  C
  C18      1.0000 0.26650  0.59240  0.39890  Biso   1.000  C
  H17      1.0000 0.72600  0.49010  0.62660  Biso   1.000  H
  H18      1.0000 0.27400  0.50990  0.37340  Biso   1.000  H
  C19      1.0000 0.74940  0.38990  0.49110  Biso   1.000  C
  C20      1.0000 0.25060  0.61010  0.50890  Biso   1.000  C
  H19      1.0000 0.75730  0.46130  0.44270  Biso   1.000  H
  H20      1.0000 0.24270  0.53870  0.55730  Biso   1.000  H
  C21      1.0000 0.08360  0.12660  0.14929  Biso   1.000  C
  C22      1.0000 0.91640  0.87340  0.85071  Biso   1.000  C
  C23      1.0000 0.21160  0.06510  0.04760  Biso   1.000  C
  C24      1.0000 0.78840  0.93490  0.95240  Biso   1.000  C
  H21      1.0000 0.17400  0.98550  0.03470  Biso   1.000  H
  H22      1.0000 0.82600  0.01450  0.96530  Biso   1.000  H
  H23      1.0000 0.17850  0.12720  0.98590  Biso   1.000  H
  H24      1.0000 0.82150  0.87280  0.01410  Biso   1.000  H
  C25      1.0000 0.43870  0.02900  0.05240  Biso   1.000  C
  C26      1.0000 0.56130  0.97100  0.94760  Biso   1.000  C
  H25      1.0000 0.47330  0.96460  0.11250  Biso   1.000  H
  H26      1.0000 0.52670  0.03540  0.88750  Biso   1.000  H
  H27      1.0000 0.47680  0.10790  0.06690  Biso   1.000  H
  H28      1.0000 0.52320  0.89210  0.93310  Biso   1.000  H
  C27      1.0000 0.28370  0.51420  0.83020  Biso   1.000  C
  C28      1.0000 0.71630  0.48580  0.16980  Biso   1.000  C
  C29      1.0000 0.18850  0.40660  0.88160  Biso   1.000  C
  C30      1.0000 0.81150  0.59340  0.11840  Biso   1.000  C
  H29      1.0000 0.08550  0.39830  0.83800  Biso   1.000  H
  H30      1.0000 0.91450  0.60170  0.16200  Biso   1.000  H
  H31      1.0000 0.29230  0.32210  0.88290  Biso   1.000  H
  H32      1.0000 0.70770  0.67790  0.11710  Biso   1.000  H
  C31      1.0000 0.09120  0.43890  0.99810  Biso   1.000  C
  C32      1.0000 0.90880  0.56110  0.00190  Biso   1.000  C
  H33      1.0000 0.80750  0.54650  0.96010  Biso   1.000  H
  H34      1.0000 0.19250  0.45350  0.03990  Biso   1.000  H
  H35      1.0000 0.95190  0.63680  0.96800  Biso   1.000  H
  H36      1.0000 0.04810  0.36320  0.03200  Biso   1.000  H
  O11      1.0000 0.71350  0.27790  0.94010  Biso   1.000  O
  O12      1.0000 0.28650  0.72210  0.05990  Biso   1.000  O
  H37      1.0000 0.73900  0.25600  0.00000  Biso   1.000  H
  H38      1.0000 0.26100  0.74400  0.00000  Biso   1.000  H
  H39      1.0000 0.62900  0.35400  0.94100  Biso   1.000  H
  H40      1.0000 0.37100  0.64600  0.05900  Biso   1.000  H
