data_image0
_cell_length_a       7.674
_cell_length_b       8.6401
_cell_length_c       8.8869
_cell_angle_alpha    109.201
_cell_angle_beta     106.629
_cell_angle_gamma    105.41

_symmetry_space_group_name_H-M    "P 1"
_symmetry_int_tables_number       1

loop_
  _symmetry_equiv_pos_as_xyz
  'x, y, z'

loop_
  _atom_site_label
  _atom_site_occupancy
  _atom_site_fract_x
  _atom_site_fract_y
  _atom_site_fract_z
  _atom_site_thermal_displace_type
  _atom_site_B_iso_or_equiv
  _atom_site_type_symbol
  Cu1      1.0000 0.51395  0.44079  0.32654  Biso   1.000  Cu
  Cu2      1.0000 0.48605  0.55921  0.67346  Biso   1.000  Cu
  O1       1.0000 0.38340  0.35090  0.45520  Biso   1.000  O
  O2       1.0000 0.61660  0.64910  0.54480  Biso   1.000  O
  N1       1.0000 0.72980  0.54000  0.26470  Biso   1.000  N
  N2       1.0000 0.27020  0.46000  0.73530  Biso   1.000  N
  C1       1.0000 0.32810  0.17470  0.43600  Biso   1.000  C
  C2       1.0000 0.67190  0.82530  0.56400  Biso   1.000  C
  H1       1.0000 0.18460  0.11550  0.38350  Biso   1.000  H
  H2       1.0000 0.81540  0.88450  0.61650  Biso   1.000  H
  H3       1.0000 0.37600  0.17640  0.55030  Biso   1.000  H
  H4       1.0000 0.62400  0.82360  0.44970  Biso   1.000  H
  N3       1.0000 0.07080  0.67400  0.30670  Biso   1.000  N
  N4       1.0000 0.92920  0.32600  0.69330  Biso   1.000  N
  C3       1.0000 0.41040  0.07070  0.32360  Biso   1.000  C
  C4       1.0000 0.58960  0.92930  0.67640  Biso   1.000  C
  H5       1.0000 0.55390  0.12970  0.37760  Biso   1.000  H
  H6       1.0000 0.44610  0.87030  0.62240  Biso   1.000  H
  H7       1.0000 0.37490  0.95240  0.31930  Biso   1.000  H
  H8       1.0000 0.62510  0.04760  0.68070  Biso   1.000  H
  N5       1.0000 0.27340  0.53960  0.18960  Biso   1.000  N
  N6       1.0000 0.72660  0.46040  0.81040  Biso   1.000  N
  C5       1.0000 0.33710  0.05250  0.14000  Biso   1.000  C
  C6       1.0000 0.66290  0.94750  0.86000  Biso   1.000  C
  N7       1.0000 0.38650  0.20470  0.12190  Biso   1.000  N
  N8       1.0000 0.61350  0.79530  0.87810  Biso   1.000  N
  C7       1.0000 0.22450  0.89010  0.99640  Biso   1.000  C
  C8       1.0000 0.77550  0.10990  0.00360  Biso   1.000  C
  H9       1.0000 0.18890  0.78590  0.01060  Biso   1.000  H
  H10      1.0000 0.81110  0.21410  0.98940  Biso   1.000  H
  C9       1.0000 0.16410  0.88230  0.82990  Biso   1.000  C
  C10      1.0000 0.83590  0.11770  0.17010  Biso   1.000  C
  H11      1.0000 0.08690  0.77340  0.73180  Biso   1.000  H
  H12      1.0000 0.91310  0.22660  0.26820  Biso   1.000  H
  C11      1.0000 0.21970  0.03680  0.81260  Biso   1.000  C
  C12      1.0000 0.78030  0.96320  0.18740  Biso   1.000  C
  H13      1.0000 0.18370  0.03500  0.70270  Biso   1.000  H
  H14      1.0000 0.81630  0.96500  0.29730  Biso   1.000  H
  C13      1.0000 0.32980  0.19500  0.96070  Biso   1.000  C
  C14      1.0000 0.67020  0.80500  0.03930  Biso   1.000  C
  H15      1.0000 0.36680  0.30030  0.94870  Biso   1.000  H
  H16      1.0000 0.63320  0.69970  0.05130  Biso   1.000  H
  C15      1.0000 0.88930  0.59340  0.27910  Biso   1.000  C
  C16      1.0000 0.11070  0.40660  0.72090  Biso   1.000  C
  C17      1.0000 0.16950  0.59130  0.23790  Biso   1.000  C
  C18      1.0000 0.83050  0.40870  0.76210  Biso   1.000  C
