data_image0
_cell_length_a       15.01
_cell_length_b       11.733
_cell_length_c       18.454
_cell_angle_alpha    90
_cell_angle_beta     95.374
_cell_angle_gamma    90

_symmetry_space_group_name_H-M    "P 1"
_symmetry_int_tables_number       1

loop_
  _symmetry_equiv_pos_as_xyz
  'x, y, z'

loop_
  _atom_site_label
  _atom_site_occupancy
  _atom_site_fract_x
  _atom_site_fract_y
  _atom_site_fract_z
  _atom_site_thermal_displace_type
  _atom_site_B_iso_or_equiv
  _atom_site_type_symbol
  Cu1      1.0000 0.25395  0.09764  0.57771  Biso   1.000  Cu
  Cu2      1.0000 0.74605  0.59764  0.92229  Biso   1.000  Cu
  Cu3      1.0000 0.74605  0.90236  0.42229  Biso   1.000  Cu
  Cu4      1.0000 0.25395  0.40236  0.07771  Biso   1.000  Cu
  Cu5      1.0000 0.58951  0.58777  0.00929  Biso   1.000  Cu
  Cu6      1.0000 0.41049  0.08777  0.49071  Biso   1.000  Cu
  Cu7      1.0000 0.41049  0.41223  0.99071  Biso   1.000  Cu
  Cu8      1.0000 0.58951  0.91223  0.50929  Biso   1.000  Cu
  O1       1.0000 0.54230  0.69210  0.93470  Biso   1.000  O
  O2       1.0000 0.45770  0.19210  0.56530  Biso   1.000  O
  O3       1.0000 0.45770  0.30790  0.06530  Biso   1.000  O
  O4       1.0000 0.54230  0.80790  0.43470  Biso   1.000  O
  O5       1.0000 0.44370  0.96170  0.55700  Biso   1.000  O
  O6       1.0000 0.55630  0.46170  0.94300  Biso   1.000  O
  O7       1.0000 0.55630  0.03830  0.44300  Biso   1.000  O
  O8       1.0000 0.44370  0.53830  0.05700  Biso   1.000  O
  O9       1.0000 0.33610  0.98950  0.63050  Biso   1.000  O
  O10      1.0000 0.66390  0.48950  0.86950  Biso   1.000  O
  O11      1.0000 0.66390  0.01050  0.36950  Biso   1.000  O
  O12      1.0000 0.33610  0.51050  0.13050  Biso   1.000  O
  O13      1.0000 0.66880  0.72290  0.88500  Biso   1.000  O
  O14      1.0000 0.33120  0.22290  0.61500  Biso   1.000  O
  O15      1.0000 0.33120  0.27710  0.11500  Biso   1.000  O
  O16      1.0000 0.66880  0.77710  0.38500  Biso   1.000  O
  O17      1.0000 0.16080  0.13750  0.65860  Biso   1.000  O
  O18      1.0000 0.83920  0.63750  0.84140  Biso   1.000  O
  O19      1.0000 0.83920  0.86250  0.34140  Biso   1.000  O
  O20      1.0000 0.16080  0.36250  0.15860  Biso   1.000  O
  H1       1.0000 0.16050  0.11420  0.70330  Biso   1.000  H
  H2       1.0000 0.83950  0.61420  0.79670  Biso   1.000  H
  H3       1.0000 0.83950  0.88580  0.29670  Biso   1.000  H
  H4       1.0000 0.16050  0.38580  0.20330  Biso   1.000  H
  H5       1.0000 0.14390  0.20880  0.66040  Biso   1.000  H
  H6       1.0000 0.85610  0.70880  0.83960  Biso   1.000  H
  H7       1.0000 0.85610  0.79120  0.33960  Biso   1.000  H
  H8       1.0000 0.14390  0.29120  0.16040  Biso   1.000  H
  N1       1.0000 0.18720  0.18980  0.49950  Biso   1.000  N
  N2       1.0000 0.81280  0.68980  0.00050  Biso   1.000  N
  N3       1.0000 0.81280  0.81020  0.50050  Biso   1.000  N
  N4       1.0000 0.18720  0.31020  0.99950  Biso   1.000  N
  N5       1.0000 0.17630  0.97630  0.53140  Biso   1.000  N
  N6       1.0000 0.82370  0.47630  0.96860  Biso   1.000  N
  N7       1.0000 0.82370  0.02370  0.46860  Biso   1.000  N
  N8       1.0000 0.17630  0.52370  0.03140  Biso   1.000  N
  N9       1.0000 0.65980  0.49170  0.08230  Biso   1.000  N
  N10      1.0000 0.34020  0.99170  0.41770  Biso   1.000  N
  N11      1.0000 0.34020  0.50830  0.91770  Biso   1.000  N
  N12      1.0000 0.65980  0.00830  0.58230  Biso   1.000  N
  N13      1.0000 0.62500  0.70910  0.08030  Biso   1.000  N
  N14      1.0000 0.37500  0.20910  0.41970  Biso   1.000  N
  N15      1.0000 0.37500  0.29090  0.91970  Biso   1.000  N
  N16      1.0000 0.62500  0.79090  0.58030  Biso   1.000  N
  C1       1.0000 0.19540  0.30130  0.48910  Biso   1.000  C
  C2       1.0000 0.80460  0.80130  0.01090  Biso   1.000  C
  C3       1.0000 0.80460  0.69870  0.51090  Biso   1.000  C
  C4       1.0000 0.19540  0.19870  0.98910  Biso   1.000  C
  H9       1.0000 0.23550  0.34280  0.52030  Biso   1.000  H
  H10      1.0000 0.76450  0.84280  0.97970  Biso   1.000  H
  H11      1.0000 0.76450  0.65720  0.47970  Biso   1.000  H
  H12      1.0000 0.23550  0.15720  0.02030  Biso   1.000  H
  C5       1.0000 0.14560  0.35690  0.43300  Biso   1.000  C
  C6       1.0000 0.85440  0.85690  0.06700  Biso   1.000  C
  C7       1.0000 0.85440  0.64310  0.56700  Biso   1.000  C
  C8       1.0000 0.14560  0.14310  0.93300  Biso   1.000  C
  H13      1.0000 0.15120  0.43530  0.42740  Biso   1.000  H
  H14      1.0000 0.84880  0.93530  0.07260  Biso   1.000  H
  H15      1.0000 0.84880  0.56470  0.57260  Biso   1.000  H
  H16      1.0000 0.15120  0.06470  0.92740  Biso   1.000  H
  C9       1.0000 0.08790  0.29590  0.38570  Biso   1.000  C
  C10      1.0000 0.91210  0.79590  0.11430  Biso   1.000  C
  C11      1.0000 0.91210  0.70410  0.61430  Biso   1.000  C
  C12      1.0000 0.08790  0.20410  0.88570  Biso   1.000  C
  H17      1.0000 0.05480  0.33150  0.34700  Biso   1.000  H
  H18      1.0000 0.94520  0.83150  0.15300  Biso   1.000  H
  H19      1.0000 0.94520  0.66850  0.65300  Biso   1.000  H
  H20      1.0000 0.05480  0.16850  0.84700  Biso   1.000  H
  C13      1.0000 0.08040  0.18320  0.39690  Biso   1.000  C
  C14      1.0000 0.91960  0.68320  0.10310  Biso   1.000  C
  C15      1.0000 0.91960  0.81680  0.60310  Biso   1.000  C
  C16      1.0000 0.08040  0.31680  0.89690  Biso   1.000  C
  H21      1.0000 0.04200  0.14040  0.36510  Biso   1.000  H
  H22      1.0000 0.95800  0.64040  0.13490  Biso   1.000  H
  H23      1.0000 0.95800  0.85960  0.63490  Biso   1.000  H
  H24      1.0000 0.04200  0.35960  0.86510  Biso   1.000  H
  C17      1.0000 0.12860  0.12990  0.45460  Biso   1.000  C
  C18      1.0000 0.87140  0.62990  0.04540  Biso   1.000  C
  C19      1.0000 0.87140  0.87010  0.54540  Biso   1.000  C
  C20      1.0000 0.12860  0.37010  0.95460  Biso   1.000  C
  C21      1.0000 0.12190  0.00950  0.47190  Biso   1.000  C
  C22      1.0000 0.87810  0.50950  0.02810  Biso   1.000  C
  C23      1.0000 0.87810  0.99050  0.52810  Biso   1.000  C
  C24      1.0000 0.12190  0.49050  0.97190  Biso   1.000  C
  C25      1.0000 0.06560  0.93340  0.43400  Biso   1.000  C
  C26      1.0000 0.93440  0.43340  0.06600  Biso   1.000  C
  C27      1.0000 0.93440  0.06660  0.56600  Biso   1.000  C
  C28      1.0000 0.06560  0.56660  0.93400  Biso   1.000  C
  H25      1.0000 0.02880  0.95690  0.39340  Biso   1.000  H
  H26      1.0000 0.97120  0.45690  0.10660  Biso   1.000  H
  H27      1.0000 0.97120  0.04310  0.60660  Biso   1.000  H
  H28      1.0000 0.02880  0.54310  0.89340  Biso   1.000  H
  C29      1.0000 0.06430  0.82140  0.45720  Biso   1.000  C
  C30      1.0000 0.93570  0.32140  0.04280  Biso   1.000  C
  C31      1.0000 0.93570  0.17860  0.54280  Biso   1.000  C
  C32      1.0000 0.06430  0.67860  0.95720  Biso   1.000  C
  H29      1.0000 0.02770  0.76850  0.43140  Biso   1.000  H
  H30      1.0000 0.97230  0.26850  0.06860  Biso   1.000  H
  H31      1.0000 0.97230  0.23150  0.56860  Biso   1.000  H
  H32      1.0000 0.02770  0.73150  0.93140  Biso   1.000  H
  C33      1.0000 0.11800  0.78770  0.51930  Biso   1.000  C
  C34      1.0000 0.88200  0.28770  0.98070  Biso   1.000  C
  C35      1.0000 0.88200  0.21230  0.48070  Biso   1.000  C
  C36      1.0000 0.11800  0.71230  0.01930  Biso   1.000  C
  H33      1.0000 0.11610  0.71350  0.53690  Biso   1.000  H
  H34      1.0000 0.88390  0.21350  0.96310  Biso   1.000  H
  H35      1.0000 0.88390  0.28650  0.46310  Biso   1.000  H
  H36      1.0000 0.11610  0.78650  0.03690  Biso   1.000  H
  C37      1.0000 0.17350  0.86780  0.55350  Biso   1.000  C
  C38      1.0000 0.82650  0.36780  0.94650  Biso   1.000  C
  C39      1.0000 0.82650  0.13220  0.44650  Biso   1.000  C
  C40      1.0000 0.17350  0.63220  0.05350  Biso   1.000  C
  H37      1.0000 0.21110  0.84570  0.59400  Biso   1.000  H
  H38      1.0000 0.78890  0.34570  0.90600  Biso   1.000  H
  H39      1.0000 0.78890  0.15430  0.40600  Biso   1.000  H
  H40      1.0000 0.21110  0.65430  0.09400  Biso   1.000  H
  C41      1.0000 0.60170  0.81660  0.07470  Biso   1.000  C
  C42      1.0000 0.39830  0.31660  0.42530  Biso   1.000  C
  C43      1.0000 0.39830  0.18340  0.92530  Biso   1.000  C
  C44      1.0000 0.60170  0.68340  0.57470  Biso   1.000  C
  H41      1.0000 0.56680  0.84050  0.03320  Biso   1.000  H
  H42      1.0000 0.43320  0.34050  0.46680  Biso   1.000  H
  H43      1.0000 0.43320  0.15950  0.96680  Biso   1.000  H
  H44      1.0000 0.56680  0.65950  0.53320  Biso   1.000  H
  C45      1.0000 0.62710  0.89600  0.12820  Biso   1.000  C
  C46      1.0000 0.37290  0.39600  0.37180  Biso   1.000  C
  C47      1.0000 0.37290  0.10400  0.87180  Biso   1.000  C
  C48      1.0000 0.62710  0.60400  0.62820  Biso   1.000  C
  H45      1.0000 0.60980  0.97190  0.12290  Biso   1.000  H
  H46      1.0000 0.39020  0.47190  0.37710  Biso   1.000  H
  H47      1.0000 0.39020  0.02810  0.87710  Biso   1.000  H
  H48      1.0000 0.60980  0.52810  0.62290  Biso   1.000  H
  C49      1.0000 0.67850  0.85950  0.18980  Biso   1.000  C
  C50      1.0000 0.32150  0.35950  0.31020  Biso   1.000  C
  C51      1.0000 0.32150  0.14050  0.81020  Biso   1.000  C
  C52      1.0000 0.67850  0.64050  0.68980  Biso   1.000  C
  H49      1.0000 0.69690  0.91070  0.22670  Biso   1.000  H
  H50      1.0000 0.30310  0.41070  0.27330  Biso   1.000  H
  H51      1.0000 0.30310  0.08930  0.77330  Biso   1.000  H
  H52      1.0000 0.69690  0.58930  0.72670  Biso   1.000  H
  C53      1.0000 0.70180  0.74820  0.19550  Biso   1.000  C
  C54      1.0000 0.29820  0.24820  0.30450  Biso   1.000  C
  C55      1.0000 0.29820  0.25180  0.80450  Biso   1.000  C
  C56      1.0000 0.70180  0.75180  0.69550  Biso   1.000  C
  H53      1.0000 0.73570  0.72220  0.23700  Biso   1.000  H
  H54      1.0000 0.26430  0.22220  0.26300  Biso   1.000  H
  H55      1.0000 0.26430  0.27780  0.76300  Biso   1.000  H
  H56      1.0000 0.73570  0.77780  0.73700  Biso   1.000  H
  C57      1.0000 0.67530  0.67330  0.14010  Biso   1.000  C
  C58      1.0000 0.32470  0.17330  0.35990  Biso   1.000  C
  C59      1.0000 0.32470  0.32670  0.85990  Biso   1.000  C
  C60      1.0000 0.67530  0.82670  0.64010  Biso   1.000  C
  C61      1.0000 0.69780  0.55100  0.14020  Biso   1.000  C
  C62      1.0000 0.30220  0.05100  0.35980  Biso   1.000  C
  C63      1.0000 0.30220  0.44900  0.85980  Biso   1.000  C
  C64      1.0000 0.69780  0.94900  0.64020  Biso   1.000  C
  C65      1.0000 0.74880  0.49610  0.19510  Biso   1.000  C
  C66      1.0000 0.25120  0.99610  0.30490  Biso   1.000  C
  C67      1.0000 0.25120  0.50390  0.80490  Biso   1.000  C
  C68      1.0000 0.74880  0.00390  0.69510  Biso   1.000  C
  H57      1.0000 0.77150  0.53600  0.23630  Biso   1.000  H
  H58      1.0000 0.22850  0.03600  0.26370  Biso   1.000  H
  H59      1.0000 0.22850  0.46400  0.76370  Biso   1.000  H
  H60      1.0000 0.77150  0.96400  0.73630  Biso   1.000  H
  C69      1.0000 0.76620  0.38210  0.18880  Biso   1.000  C
  C70      1.0000 0.23380  0.88210  0.31120  Biso   1.000  C
  C71      1.0000 0.23380  0.61790  0.81120  Biso   1.000  C
  C72      1.0000 0.76620  0.11790  0.68880  Biso   1.000  C
  H61      1.0000 0.80240  0.34460  0.22490  Biso   1.000  H
  H62      1.0000 0.19760  0.84460  0.27510  Biso   1.000  H
  H63      1.0000 0.19760  0.65540  0.77510  Biso   1.000  H
  H64      1.0000 0.80240  0.15540  0.72490  Biso   1.000  H
  C73      1.0000 0.73030  0.32470  0.12970  Biso   1.000  C
  C74      1.0000 0.26970  0.82470  0.37030  Biso   1.000  C
  C75      1.0000 0.26970  0.67530  0.87030  Biso   1.000  C
  C76      1.0000 0.73030  0.17530  0.62970  Biso   1.000  C
  H65      1.0000 0.74160  0.24730  0.12460  Biso   1.000  H
  H66      1.0000 0.25840  0.74730  0.37540  Biso   1.000  H
  H67      1.0000 0.25840  0.75270  0.87540  Biso   1.000  H
  H68      1.0000 0.74160  0.25270  0.62460  Biso   1.000  H
  C77      1.0000 0.67740  0.38160  0.07740  Biso   1.000  C
  C78      1.0000 0.32260  0.88160  0.42260  Biso   1.000  C
  C79      1.0000 0.32260  0.61840  0.92260  Biso   1.000  C
  C80      1.0000 0.67740  0.11840  0.57740  Biso   1.000  C
  H69      1.0000 0.65290  0.34160  0.03690  Biso   1.000  H
  H70      1.0000 0.34710  0.84160  0.46310  Biso   1.000  H
  H71      1.0000 0.34710  0.65840  0.96310  Biso   1.000  H
  H72      1.0000 0.65290  0.15840  0.53690  Biso   1.000  H
  C81      1.0000 0.58820  0.73920  0.88910  Biso   1.000  C
  C82      1.0000 0.41180  0.23920  0.61090  Biso   1.000  C
  C83      1.0000 0.41180  0.26080  0.11090  Biso   1.000  C
  C84      1.0000 0.58820  0.76080  0.38910  Biso   1.000  C
  C85      1.0000 0.53820  0.81790  0.83370  Biso   1.000  C
  C86      1.0000 0.46180  0.31790  0.66630  Biso   1.000  C
  C87      1.0000 0.46180  0.18210  0.16630  Biso   1.000  C
  C88      1.0000 0.53820  0.68210  0.33370  Biso   1.000  C
  H73      1.0000 0.51190  0.88000  0.85910  Biso   1.000  H
  H74      1.0000 0.48810  0.38000  0.64090  Biso   1.000  H
  H75      1.0000 0.48810  0.12000  0.14090  Biso   1.000  H
  H76      1.0000 0.51190  0.62000  0.35910  Biso   1.000  H
  H77      1.0000 0.58020  0.85030  0.80250  Biso   1.000  H
  H78      1.0000 0.41980  0.35030  0.69750  Biso   1.000  H
  H79      1.0000 0.41980  0.14970  0.19750  Biso   1.000  H
  H80      1.0000 0.58020  0.64970  0.30250  Biso   1.000  H
  C89      1.0000 0.46520  0.75550  0.78730  Biso   1.000  C
  C90      1.0000 0.53480  0.25550  0.71270  Biso   1.000  C
  C91      1.0000 0.53480  0.24450  0.21270  Biso   1.000  C
  C92      1.0000 0.46520  0.74450  0.28730  Biso   1.000  C
  H81      1.0000 0.42670  0.71740  0.81910  Biso   1.000  H
  H82      1.0000 0.57330  0.21740  0.68090  Biso   1.000  H
  H83      1.0000 0.57330  0.28260  0.18090  Biso   1.000  H
  H84      1.0000 0.42670  0.78260  0.31910  Biso   1.000  H
  H85      1.0000 0.49260  0.69740  0.75930  Biso   1.000  H
  H86      1.0000 0.50740  0.19740  0.74070  Biso   1.000  H
  H87      1.0000 0.50740  0.30260  0.24070  Biso   1.000  H
  H88      1.0000 0.49260  0.80260  0.25930  Biso   1.000  H
  C93      1.0000 0.40760  0.83310  0.73480  Biso   1.000  C
  C94      1.0000 0.59240  0.33310  0.76520  Biso   1.000  C
  C95      1.0000 0.59240  0.16690  0.26520  Biso   1.000  C
  C96      1.0000 0.40760  0.66690  0.23480  Biso   1.000  C
  H89      1.0000 0.35490  0.79160  0.71520  Biso   1.000  H
  H90      1.0000 0.64510  0.29160  0.78480  Biso   1.000  H
  H91      1.0000 0.64510  0.20840  0.28480  Biso   1.000  H
  H92      1.0000 0.35490  0.70840  0.21520  Biso   1.000  H
  H93      1.0000 0.38790  0.89840  0.76130  Biso   1.000  H
  H94      1.0000 0.61210  0.39840  0.73870  Biso   1.000  H
  H95      1.0000 0.61210  0.10160  0.23870  Biso   1.000  H
  H96      1.0000 0.38790  0.60160  0.26130  Biso   1.000  H
  C97      1.0000 0.45870  0.87400  0.67290  Biso   1.000  C
  C98      1.0000 0.54130  0.37400  0.82710  Biso   1.000  C
  C99      1.0000 0.54130  0.12600  0.32710  Biso   1.000  C
  C100     1.0000 0.45870  0.62600  0.17290  Biso   1.000  C
  H97      1.0000 0.51000  0.91730  0.69350  Biso   1.000  H
  H98      1.0000 0.49000  0.41730  0.80650  Biso   1.000  H
  H99      1.0000 0.49000  0.08270  0.30650  Biso   1.000  H
  H100     1.0000 0.51000  0.58270  0.19350  Biso   1.000  H
  H101     1.0000 0.48140  0.80760  0.64920  Biso   1.000  H
  H102     1.0000 0.51860  0.30760  0.85080  Biso   1.000  H
  H103     1.0000 0.51860  0.19240  0.35080  Biso   1.000  H
  H104     1.0000 0.48140  0.69240  0.14920  Biso   1.000  H
  C101     1.0000 0.40820  0.94590  0.61580  Biso   1.000  C
  C102     1.0000 0.59180  0.44590  0.88420  Biso   1.000  C
  C103     1.0000 0.59180  0.05410  0.38420  Biso   1.000  C
  C104     1.0000 0.40820  0.55410  0.11580  Biso   1.000  C
  Cl1      1.0000 0.08592  0.59860  0.27519  Biso   1.000  Cl
  Cl2      1.0000 0.91408  0.09860  0.22481  Biso   1.000  Cl
  Cl3      1.0000 0.91408  0.40140  0.72481  Biso   1.000  Cl
  Cl4      1.0000 0.08592  0.90140  0.77519  Biso   1.000  Cl
  O21      1.0000 0.05770  0.70280  0.25320  Biso   1.000  O
  O22      1.0000 0.94230  0.20280  0.24680  Biso   1.000  O
  O23      1.0000 0.94230  0.29720  0.74680  Biso   1.000  O
  O24      1.0000 0.05770  0.79720  0.75320  Biso   1.000  O
  O25      1.0000 0.04130  0.51430  0.23830  Biso   1.000  O
  O26      1.0000 0.95870  0.01430  0.26170  Biso   1.000  O
  O27      1.0000 0.95870  0.48570  0.76170  Biso   1.000  O
  O28      1.0000 0.04130  0.98570  0.73830  Biso   1.000  O
  O29      1.0000 0.17600  0.58240  0.28790  Biso   1.000  O
  O30      1.0000 0.82400  0.08240  0.21210  Biso   1.000  O
  O31      1.0000 0.82400  0.41760  0.71210  Biso   1.000  O
  O32      1.0000 0.17600  0.91760  0.78790  Biso   1.000  O
  O33      1.0000 0.06370  0.58840  0.34540  Biso   1.000  O
  O34      1.0000 0.93630  0.08840  0.15460  Biso   1.000  O
  O35      1.0000 0.93630  0.41160  0.65460  Biso   1.000  O
  O36      1.0000 0.06370  0.91160  0.84540  Biso   1.000  O
  Cl5      1.0000 0.32820  0.58560  0.56917  Biso   1.000  Cl
  Cl6      1.0000 0.67180  0.08560  0.93083  Biso   1.000  Cl
  Cl7      1.0000 0.67180  0.41440  0.43083  Biso   1.000  Cl
  Cl8      1.0000 0.32820  0.91440  0.06917  Biso   1.000  Cl
  O37      1.0000 0.26220  0.56840  0.52920  Biso   1.000  O
  O38      1.0000 0.73780  0.06840  0.97080  Biso   1.000  O
  O39      1.0000 0.73780  0.43160  0.47080  Biso   1.000  O
  O40      1.0000 0.26220  0.93160  0.02920  Biso   1.000  O
  O41      1.0000 0.38050  0.50460  0.54870  Biso   1.000  O
  O42      1.0000 0.61950  0.00460  0.95130  Biso   1.000  O
  O43      1.0000 0.61950  0.49540  0.45130  Biso   1.000  O
  O44      1.0000 0.38050  0.99540  0.04870  Biso   1.000  O
  O45      1.0000 0.31560  0.56770  0.63060  Biso   1.000  O
  O46      1.0000 0.68440  0.06770  0.86940  Biso   1.000  O
  O47      1.0000 0.68440  0.43230  0.36940  Biso   1.000  O
  O48      1.0000 0.31560  0.93230  0.13060  Biso   1.000  O
  O49      1.0000 0.34300  0.69690  0.56460  Biso   1.000  O
  O50      1.0000 0.65700  0.19690  0.93540  Biso   1.000  O
  O51      1.0000 0.65700  0.30310  0.43540  Biso   1.000  O
  O52      1.0000 0.34300  0.80310  0.06460  Biso   1.000  O
  O53      1.0000 0.13890  0.12250  0.15380  Biso   1.000  O
  O54      1.0000 0.86110  0.62250  0.34620  Biso   1.000  O
  O55      1.0000 0.86110  0.87750  0.84620  Biso   1.000  O
  O56      1.0000 0.13890  0.37750  0.65380  Biso   1.000  O
  H105     1.0000 0.10510  0.06320  0.13230  Biso   1.000  H
  H106     1.0000 0.89490  0.56320  0.36770  Biso   1.000  H
  H107     1.0000 0.89490  0.93680  0.86770  Biso   1.000  H
  H108     1.0000 0.10510  0.43680  0.63230  Biso   1.000  H
  H109     1.0000 0.10410  0.15630  0.18510  Biso   1.000  H
  H110     1.0000 0.89590  0.65630  0.31490  Biso   1.000  H
  H111     1.0000 0.89590  0.84370  0.81490  Biso   1.000  H
  H112     1.0000 0.10410  0.34370  0.68510  Biso   1.000  H
