data_image0
_cell_length_a       10.177
_cell_length_b       11.416
_cell_length_c       11.033
_cell_angle_alpha    90
_cell_angle_beta     110.72
_cell_angle_gamma    90

_symmetry_space_group_name_H-M    "P 1"
_symmetry_int_tables_number       1

loop_
  _symmetry_equiv_pos_as_xyz
  'x, y, z'

loop_
  _atom_site_label
  _atom_site_occupancy
  _atom_site_fract_x
  _atom_site_fract_y
  _atom_site_fract_z
  _atom_site_thermal_displace_type
  _atom_site_B_iso_or_equiv
  _atom_site_type_symbol
  K1       1.0000 0.70110  0.25000  0.81350  Biso   1.000  K
  K2       1.0000 0.29890  0.75000  0.18650  Biso   1.000  K
  Cu1      1.0000 0.50000  0.00000  0.00000  Biso   1.000  Cu
  Cu2      1.0000 0.50000  0.50000  0.00000  Biso   1.000  Cu
  Cu3      1.0000 0.50000  0.00000  0.50000  Biso   1.000  Cu
  Cu4      1.0000 0.50000  0.50000  0.50000  Biso   1.000  Cu
  N1       1.0000 0.37410  0.96930  0.81730  Biso   1.000  N
  N2       1.0000 0.62590  0.46930  0.18270  Biso   1.000  N
  N3       1.0000 0.62590  0.03070  0.18270  Biso   1.000  N
  N4       1.0000 0.37410  0.53070  0.81730  Biso   1.000  N
  C1       1.0000 0.44190  0.99330  0.73130  Biso   1.000  C
  C2       1.0000 0.55810  0.49330  0.26870  Biso   1.000  C
  C3       1.0000 0.55810  0.00670  0.26870  Biso   1.000  C
  C4       1.0000 0.44190  0.50670  0.73130  Biso   1.000  C
  N5       1.0000 0.37650  0.96510  0.60190  Biso   1.000  N
  N6       1.0000 0.62350  0.46510  0.39810  Biso   1.000  N
  N7       1.0000 0.62350  0.03490  0.39810  Biso   1.000  N
  N8       1.0000 0.37650  0.53490  0.60190  Biso   1.000  N
  C5       1.0000 0.24770  0.92140  0.56210  Biso   1.000  C
  C6       1.0000 0.75230  0.42140  0.43790  Biso   1.000  C
  C7       1.0000 0.75230  0.07860  0.43790  Biso   1.000  C
  C8       1.0000 0.24770  0.57860  0.56210  Biso   1.000  C
  H1       1.0000 0.20520  0.90300  0.47480  Biso   1.000  H
  H2       1.0000 0.79480  0.40300  0.52520  Biso   1.000  H
  H3       1.0000 0.79480  0.09700  0.52520  Biso   1.000  H
  H4       1.0000 0.20520  0.59700  0.47480  Biso   1.000  H
  C9       1.0000 0.17320  0.90140  0.64260  Biso   1.000  C
  C10      1.0000 0.82680  0.40140  0.35740  Biso   1.000  C
  C11      1.0000 0.82680  0.09860  0.35740  Biso   1.000  C
  C12      1.0000 0.17320  0.59860  0.64260  Biso   1.000  C
  H5       1.0000 0.08140  0.87350  0.61210  Biso   1.000  H
  H6       1.0000 0.91860  0.37350  0.38790  Biso   1.000  H
  H7       1.0000 0.91860  0.12650  0.38790  Biso   1.000  H
  H8       1.0000 0.08140  0.62650  0.61210  Biso   1.000  H
  C13      1.0000 0.24460  0.92590  0.77240  Biso   1.000  C
  C14      1.0000 0.75540  0.42590  0.22760  Biso   1.000  C
  C15      1.0000 0.75540  0.07410  0.22760  Biso   1.000  C
  C16      1.0000 0.24460  0.57410  0.77240  Biso   1.000  C
  H9       1.0000 0.19970  0.91120  0.83100  Biso   1.000  H
  H10      1.0000 0.80030  0.41120  0.16900  Biso   1.000  H
  H11      1.0000 0.80030  0.08880  0.16900  Biso   1.000  H
  H12      1.0000 0.19970  0.58880  0.83100  Biso   1.000  H
  O1       1.0000 0.56060  0.03850  0.76910  Biso   1.000  O
  O2       1.0000 0.43940  0.53850  0.23090  Biso   1.000  O
  O3       1.0000 0.43940  0.96150  0.23090  Biso   1.000  O
  O4       1.0000 0.56060  0.46150  0.76910  Biso   1.000  O
  N9       1.0000 0.39130  0.14620  0.43340  Biso   1.000  N
  N10      1.0000 0.60870  0.64620  0.56660  Biso   1.000  N
  N11      1.0000 0.60870  0.85380  0.56660  Biso   1.000  N
  N12      1.0000 0.39130  0.35380  0.43340  Biso   1.000  N
  C17      1.0000 0.46140  0.25000  0.47950  Biso   1.000  C
  C18      1.0000 0.53860  0.75000  0.52050  Biso   1.000  C
  C19      1.0000 0.25930  0.14830  0.34920  Biso   1.000  C
  C20      1.0000 0.74070  0.64830  0.65080  Biso   1.000  C
  C21      1.0000 0.74070  0.85170  0.65080  Biso   1.000  C
  C22      1.0000 0.25930  0.35170  0.34920  Biso   1.000  C
  H13      1.0000 0.21550  0.07730  0.31800  Biso   1.000  H
  H14      1.0000 0.78450  0.57730  0.68200  Biso   1.000  H
  H15      1.0000 0.78450  0.92270  0.68200  Biso   1.000  H
  H16      1.0000 0.21550  0.42270  0.31800  Biso   1.000  H
  C23      1.0000 0.18500  0.25000  0.30630  Biso   1.000  C
  C24      1.0000 0.81500  0.75000  0.69370  Biso   1.000  C
  H17      1.0000 0.09120  0.25000  0.25210  Biso   1.000  H
  H18      1.0000 0.90880  0.75000  0.74790  Biso   1.000  H
  O5       1.0000 0.58310  0.25000  0.55750  Biso   1.000  O
  O6       1.0000 0.41690  0.75000  0.44250  Biso   1.000  O
  N13      1.0000 0.39840  0.14670  0.00460  Biso   1.000  N
  N14      1.0000 0.60160  0.64670  0.99540  Biso   1.000  N
  N15      1.0000 0.60160  0.85330  0.99540  Biso   1.000  N
  N16      1.0000 0.39840  0.35330  0.00460  Biso   1.000  N
  C25      1.0000 0.46660  0.25000  0.00190  Biso   1.000  C
  C26      1.0000 0.53340  0.75000  0.99810  Biso   1.000  C
  C27      1.0000 0.26990  0.14950  0.01050  Biso   1.000  C
  C28      1.0000 0.73010  0.64950  0.98950  Biso   1.000  C
  C29      1.0000 0.73010  0.85050  0.98950  Biso   1.000  C
  C30      1.0000 0.26990  0.35050  0.01050  Biso   1.000  C
  H19      1.0000 0.22540  0.07880  0.01280  Biso   1.000  H
  H20      1.0000 0.77460  0.57880  0.98720  Biso   1.000  H
  H21      1.0000 0.77460  0.92120  0.98720  Biso   1.000  H
  H22      1.0000 0.22540  0.42120  0.01280  Biso   1.000  H
  C31      1.0000 0.20150  0.25000  0.01320  Biso   1.000  C
  C32      1.0000 0.79850  0.75000  0.98680  Biso   1.000  C
  H23      1.0000 0.11160  0.25000  0.01670  Biso   1.000  H
  H24      1.0000 0.88840  0.75000  0.98330  Biso   1.000  H
  O7       1.0000 0.58670  0.25000  0.99590  Biso   1.000  O
  O8       1.0000 0.41330  0.75000  0.00410  Biso   1.000  O
  N17      1.0000 0.95130  0.04350  0.89840  Biso   1.000  N
  N18      1.0000 0.04870  0.54350  0.10160  Biso   1.000  N
  N19      1.0000 0.04870  0.95650  0.10160  Biso   1.000  N
  N20      1.0000 0.95130  0.45650  0.89840  Biso   1.000  N
  O9       1.0000 0.90800  0.09700  0.79270  Biso   1.000  O
  O10      1.0000 0.09200  0.59700  0.20730  Biso   1.000  O
  O11      1.0000 0.09200  0.90300  0.20730  Biso   1.000  O
  O12      1.0000 0.90800  0.40300  0.79270  Biso   1.000  O
  O13      1.0000 0.91660  0.09460  0.98270  Biso   1.000  O
  O14      1.0000 0.08340  0.59460  0.01730  Biso   1.000  O
  O15      1.0000 0.08340  0.90540  0.01730  Biso   1.000  O
  O16      1.0000 0.91660  0.40540  0.98270  Biso   1.000  O
  O17      1.0000 0.01230  0.94700  0.92810  Biso   1.000  O
  O18      1.0000 0.98770  0.44700  0.07190  Biso   1.000  O
  O19      1.0000 0.98770  0.05300  0.07190  Biso   1.000  O
  O20      1.0000 0.01230  0.55300  0.92810  Biso   1.000  O
  O21      1.0000 0.93300  0.08400  0.78600  Biso   1.000  O
  O22      1.0000 0.06700  0.58400  0.21400  Biso   1.000  O
  O23      1.0000 0.06700  0.91600  0.21400  Biso   1.000  O
  O24      1.0000 0.93300  0.41600  0.78600  Biso   1.000  O
  C33      1.0000 0.81100  0.75000  0.34400  Biso   1.000  C
  C34      1.0000 0.18900  0.25000  0.65600  Biso   1.000  C
  O25      1.0000 0.95530  0.75000  0.33750  Biso   1.000  O
  O26      1.0000 0.04470  0.25000  0.66250  Biso   1.000  O
