data_image0
_cell_length_a       13.198
_cell_length_b       16.373
_cell_length_c       18.34
_cell_angle_alpha    115.59
_cell_angle_beta     98.7
_cell_angle_gamma    101.8

_symmetry_space_group_name_H-M    "P 1"
_symmetry_int_tables_number       1

loop_
  _symmetry_equiv_pos_as_xyz
  'x, y, z'

loop_
  _atom_site_label
  _atom_site_occupancy
  _atom_site_fract_x
  _atom_site_fract_y
  _atom_site_fract_z
  _atom_site_thermal_displace_type
  _atom_site_B_iso_or_equiv
  _atom_site_type_symbol
  Cu1      1.0000 0.05705  0.29767  0.78917  Biso   1.000  Cu
  Cu2      1.0000 0.94295  0.70233  0.21083  Biso   1.000  Cu
  Cu3      1.0000 0.92181  0.15544  0.60269  Biso   1.000  Cu
  Cu4      1.0000 0.07819  0.84456  0.39731  Biso   1.000  Cu
  N1       1.0000 0.20120  0.39400  0.85710  Biso   1.000  N
  N2       1.0000 0.79880  0.60600  0.14290  Biso   1.000  N
  N3       1.0000 0.00520  0.40990  0.84810  Biso   1.000  N
  N4       1.0000 0.99480  0.59010  0.15190  Biso   1.000  N
  C1       1.0000 0.30010  0.38630  0.85830  Biso   1.000  C
  C2       1.0000 0.69990  0.61370  0.14170  Biso   1.000  C
  H1       1.0000 0.30750  0.32770  0.82370  Biso   1.000  H
  H2       1.0000 0.69250  0.67230  0.17630  Biso   1.000  H
  C3       1.0000 0.39160  0.46130  0.90870  Biso   1.000  C
  C4       1.0000 0.60840  0.53870  0.09130  Biso   1.000  C
  H3       1.0000 0.45900  0.45320  0.90660  Biso   1.000  H
  H4       1.0000 0.54100  0.54680  0.09340  Biso   1.000  H
  C5       1.0000 0.38300  0.54790  0.96180  Biso   1.000  C
  C6       1.0000 0.61700  0.45210  0.03820  Biso   1.000  C
  H5       1.0000 0.44460  0.59860  0.99630  Biso   1.000  H
  H6       1.0000 0.55540  0.40140  0.00370  Biso   1.000  H
  C7       1.0000 0.28230  0.55980  0.96420  Biso   1.000  C
  C8       1.0000 0.71770  0.44020  0.03580  Biso   1.000  C
  C9       1.0000 0.19250  0.48100  0.90920  Biso   1.000  C
  C10      1.0000 0.80750  0.51900  0.09080  Biso   1.000  C
  C11      1.0000 0.08660  0.48890  0.90430  Biso   1.000  C
  C12      1.0000 0.91340  0.51110  0.09570  Biso   1.000  C
  C13      1.0000 0.07370  0.57700  0.95530  Biso   1.000  C
  C14      1.0000 0.92630  0.42300  0.04470  Biso   1.000  C
  C15      1.0000 0.96650  0.57840  0.94420  Biso   1.000  C
  C16      1.0000 0.03350  0.42160  0.05580  Biso   1.000  C
  H7       1.0000 0.95190  0.63450  0.97630  Biso   1.000  H
  H8       1.0000 0.04810  0.36550  0.02370  Biso   1.000  H
  C17      1.0000 0.88410  0.50080  0.88830  Biso   1.000  C
  C18      1.0000 0.11590  0.49920  0.11170  Biso   1.000  C
  H9       1.0000 0.81390  0.50360  0.88180  Biso   1.000  H
  H10      1.0000 0.18610  0.49640  0.11820  Biso   1.000  H
  C19      1.0000 0.90540  0.41590  0.84030  Biso   1.000  C
  C20      1.0000 0.09460  0.58410  0.15970  Biso   1.000  C
  H11      1.0000 0.84840  0.36250  0.80210  Biso   1.000  H
  H12      1.0000 0.15160  0.63750  0.19790  Biso   1.000  H
  C21      1.0000 0.26500  0.64780  0.01550  Biso   1.000  C
  C22      1.0000 0.73500  0.35220  0.98450  Biso   1.000  C
  H13      1.0000 0.32340  0.70070  0.05230  Biso   1.000  H
  H14      1.0000 0.67660  0.29930  0.94770  Biso   1.000  H
  C23      1.0000 0.16550  0.65420  0.01100  Biso   1.000  C
  C24      1.0000 0.83450  0.34580  0.98900  Biso   1.000  C
  H15      1.0000 0.15610  0.71180  0.04590  Biso   1.000  H
  H16      1.0000 0.84390  0.28820  0.95410  Biso   1.000  H
  N5       1.0000 0.79730  0.19430  0.56660  Biso   1.000  N
  N6       1.0000 0.20270  0.80570  0.43340  Biso   1.000  N
  N7       1.0000 0.81530  0.02550  0.53140  Biso   1.000  N
  N8       1.0000 0.18470  0.97450  0.46860  Biso   1.000  N
  C25      1.0000 0.78960  0.28070  0.59010  Biso   1.000  C
  C26      1.0000 0.21040  0.71930  0.40990  Biso   1.000  C
  H17      1.0000 0.84800  0.33260  0.62880  Biso   1.000  H
  H18      1.0000 0.15200  0.66740  0.37120  Biso   1.000  H
  C27      1.0000 0.69700  0.29730  0.55880  Biso   1.000  C
  C28      1.0000 0.30300  0.70270  0.44120  Biso   1.000  C
  H19      1.0000 0.69390  0.35900  0.57700  Biso   1.000  H
  H20      1.0000 0.30610  0.64100  0.42300  Biso   1.000  H
  C29      1.0000 0.61140  0.22200  0.50160  Biso   1.000  C
  C30      1.0000 0.38860  0.77800  0.49840  Biso   1.000  C
  H21      1.0000 0.55020  0.23230  0.47910  Biso   1.000  H
  H22      1.0000 0.44980  0.76770  0.52090  Biso   1.000  H
  C31      1.0000 0.61520  0.12930  0.47650  Biso   1.000  C
  C32      1.0000 0.38480  0.87070  0.52350  Biso   1.000  C
  C33      1.0000 0.71000  0.11910  0.51210  Biso   1.000  C
  C34      1.0000 0.29000  0.88090  0.48790  Biso   1.000  C
  C35      1.0000 0.72040  0.02840  0.49380  Biso   1.000  C
  C36      1.0000 0.27960  0.97160  0.50620  Biso   1.000  C
  C37      1.0000 0.63310  0.94650  0.43950  Biso   1.000  C
  C38      1.0000 0.36690  0.05350  0.56050  Biso   1.000  C
  C39      1.0000 0.64750  0.85880  0.42750  Biso   1.000  C
  C40      1.0000 0.35250  0.14120  0.57250  Biso   1.000  C
  H23      1.0000 0.59180  0.80260  0.39360  Biso   1.000  H
  H24      1.0000 0.40820  0.19740  0.60640  Biso   1.000  H
  C41      1.0000 0.74190  0.85690  0.46510  Biso   1.000  C
  C42      1.0000 0.25810  0.14310  0.53490  Biso   1.000  C
  H25      1.0000 0.75190  0.79930  0.45720  Biso   1.000  H
  H26      1.0000 0.24810  0.20070  0.54280  Biso   1.000  H
  C43      1.0000 0.82600  0.94240  0.51670  Biso   1.000  C
  C44      1.0000 0.17400  0.05760  0.48330  Biso   1.000  C
  H27      1.0000 0.89140  0.93970  0.54120  Biso   1.000  H
  H28      1.0000 0.10860  0.06030  0.45880  Biso   1.000  H
  C45      1.0000 0.52900  0.04380  0.41860  Biso   1.000  C
  C46      1.0000 0.47100  0.95620  0.58140  Biso   1.000  C
  H29      1.0000 0.46590  0.04900  0.39300  Biso   1.000  H
  H30      1.0000 0.53410  0.95100  0.60700  Biso   1.000  H
  C47      1.0000 0.53680  0.95730  0.40050  Biso   1.000  C
  C48      1.0000 0.46320  0.04270  0.59950  Biso   1.000  C
  H31      1.0000 0.47970  0.90370  0.36250  Biso   1.000  H
  H32      1.0000 0.52030  0.09630  0.63750  Biso   1.000  H
  Cu5      1.0000 0.55191  0.85523  0.89280  Biso   1.000  Cu
  Cu6      1.0000 0.44809  0.14477  0.10720  Biso   1.000  Cu
  Cu7      1.0000 0.44393  0.74122  0.70037  Biso   1.000  Cu
  Cu8      1.0000 0.55607  0.25878  0.29963  Biso   1.000  Cu
  N9       1.0000 0.67990  0.96840  0.96840  Biso   1.000  N
  N10      1.0000 0.32010  0.03160  0.03160  Biso   1.000  N
  N11      1.0000 0.64140  0.79010  0.93460  Biso   1.000  N
  N12      1.0000 0.35860  0.20990  0.06540  Biso   1.000  N
  C49      1.0000 0.69700  0.05860  0.98540  Biso   1.000  C
  C50      1.0000 0.30300  0.94140  0.01460  Biso   1.000  C
  H33      1.0000 0.64180  0.07560  0.96340  Biso   1.000  H
  H34      1.0000 0.35820  0.92440  0.03660  Biso   1.000  H
  C51      1.0000 0.79460  0.12810  0.03520  Biso   1.000  C
  C52      1.0000 0.20540  0.87190  0.96480  Biso   1.000  C
  H35      1.0000 0.80470  0.19020  0.04460  Biso   1.000  H
  H36      1.0000 0.19530  0.80980  0.95540  Biso   1.000  H
  C53      1.0000 0.87500  0.10510  0.06990  Biso   1.000  C
  C54      1.0000 0.12500  0.89490  0.93010  Biso   1.000  C
  H37      1.0000 0.94030  0.15120  0.10360  Biso   1.000  H
  H38      1.0000 0.05970  0.84880  0.89640  Biso   1.000  H
  C55      1.0000 0.85880  0.01150  0.05440  Biso   1.000  C
  C56      1.0000 0.14120  0.98850  0.94560  Biso   1.000  C
  C57      1.0000 0.76070  0.94630  0.00330  Biso   1.000  C
  C58      1.0000 0.23930  0.05370  0.99670  Biso   1.000  C
  C59      1.0000 0.73820  0.85040  0.98630  Biso   1.000  C
  C60      1.0000 0.26180  0.14960  0.01370  Biso   1.000  C
  C61      1.0000 0.81580  0.82300  0.02470  Biso   1.000  C
  C62      1.0000 0.18420  0.17700  0.97530  Biso   1.000  C
  C63      1.0000 0.78580  0.72830  0.00700  Biso   1.000  C
  C64      1.0000 0.21420  0.27170  0.99300  Biso   1.000  C
  H39      1.0000 0.83310  0.70680  0.03200  Biso   1.000  H
  H40      1.0000 0.16690  0.29320  0.96800  Biso   1.000  H
  C65      1.0000 0.68800  0.66610  0.95370  Biso   1.000  C
  C66      1.0000 0.31200  0.33390  0.04630  Biso   1.000  C
  H41      1.0000 0.66910  0.60290  0.94210  Biso   1.000  H
  H42      1.0000 0.33090  0.39710  0.05790  Biso   1.000  H
  C67      1.0000 0.61690  0.69950  0.91710  Biso   1.000  C
  C68      1.0000 0.38310  0.30050  0.08290  Biso   1.000  C
  H43      1.0000 0.55110  0.65750  0.87980  Biso   1.000  H
  H44      1.0000 0.44890  0.34250  0.12020  Biso   1.000  H
  C69      1.0000 0.93630  0.98140  0.09060  Biso   1.000  C
  C70      1.0000 0.06370  0.01860  0.90940  Biso   1.000  C
  H45      1.0000 0.00290  0.02510  0.12440  Biso   1.000  H
  H46      1.0000 0.99710  0.97490  0.87560  Biso   1.000  H
  C71      1.0000 0.91650  0.89270  0.07780  Biso   1.000  C
  C72      1.0000 0.08350  0.10730  0.92220  Biso   1.000  C
  H47      1.0000 0.96860  0.87580  0.10350  Biso   1.000  H
  H48      1.0000 0.03140  0.12420  0.89650  Biso   1.000  H
  N13      1.0000 0.47680  0.61710  0.65210  Biso   1.000  N
  N14      1.0000 0.52320  0.38290  0.34790  Biso   1.000  N
  N15      1.0000 0.30270  0.66120  0.61330  Biso   1.000  N
  N16      1.0000 0.69730  0.33880  0.38670  Biso   1.000  N
  C73      1.0000 0.56340  0.59700  0.67760  Biso   1.000  C
  C74      1.0000 0.43660  0.40300  0.32240  Biso   1.000  C
  H49      1.0000 0.62020  0.64580  0.72150  Biso   1.000  H
  H50      1.0000 0.37980  0.35420  0.27850  Biso   1.000  H
  C75      1.0000 0.57230  0.50620  0.64130  Biso   1.000  C
  C76      1.0000 0.42770  0.49380  0.35870  Biso   1.000  C
  H51      1.0000 0.63280  0.49390  0.66220  Biso   1.000  H
  H52      1.0000 0.36720  0.50610  0.33780  Biso   1.000  H
  C77      1.0000 0.49180  0.43480  0.57470  Biso   1.000  C
  C78      1.0000 0.50820  0.56520  0.42530  Biso   1.000  C
  H53      1.0000 0.49830  0.37380  0.54950  Biso   1.000  H
  H54      1.0000 0.50170  0.62620  0.45050  Biso   1.000  H
  C79      1.0000 0.40000  0.45170  0.54400  Biso   1.000  C
  C80      1.0000 0.60000  0.54830  0.45600  Biso   1.000  C
  C81      1.0000 0.39570  0.54660  0.58680  Biso   1.000  C
  C82      1.0000 0.60430  0.45340  0.41320  Biso   1.000  C
  C83      1.0000 0.30270  0.57030  0.56530  Biso   1.000  C
  C84      1.0000 0.69730  0.42970  0.43470  Biso   1.000  C
  C85      1.0000 0.21530  0.50100  0.49730  Biso   1.000  C
  C86      1.0000 0.78470  0.49900  0.50270  Biso   1.000  C
  C87      1.0000 0.12610  0.53010  0.48150  Biso   1.000  C
  C88      1.0000 0.87390  0.46990  0.51850  Biso   1.000  C
  H55      1.0000 0.06620  0.48700  0.43720  Biso   1.000  H
  H56      1.0000 0.93380  0.51300  0.56280  Biso   1.000  H
  C89      1.0000 0.12480  0.62080  0.52980  Biso   1.000  C
  C90      1.0000 0.87520  0.37920  0.47020  Biso   1.000  C
  H57      1.0000 0.06490  0.63940  0.51850  Biso   1.000  H
  H58      1.0000 0.93510  0.36060  0.48150  Biso   1.000  H
  C91      1.0000 0.21620  0.68600  0.59740  Biso   1.000  C
  C92      1.0000 0.78380  0.31400  0.40260  Biso   1.000  C
  H59      1.0000 0.21520  0.74740  0.63120  Biso   1.000  H
  H60      1.0000 0.78480  0.25260  0.36880  Biso   1.000  H
  C93      1.0000 0.30930  0.38450  0.47590  Biso   1.000  C
  C94      1.0000 0.69070  0.61550  0.52410  Biso   1.000  C
  H61      1.0000 0.31030  0.32220  0.44640  Biso   1.000  H
  H62      1.0000 0.68970  0.67780  0.55360  Biso   1.000  H
  C95      1.0000 0.22360  0.40680  0.45280  Biso   1.000  C
  C96      1.0000 0.77640  0.59320  0.54720  Biso   1.000  C
  H63      1.0000 0.16740  0.36040  0.40670  Biso   1.000  H
  H64      1.0000 0.83260  0.63960  0.59330  Biso   1.000  H
  O1       1.0000 0.12450  0.19660  0.75730  Biso   1.000  O
  O2       1.0000 0.87550  0.80340  0.24270  Biso   1.000  O
  O3       1.0000 0.02800  0.09670  0.62340  Biso   1.000  O
  O4       1.0000 0.97200  0.90330  0.37660  Biso   1.000  O
  O5       1.0000 0.47560  0.93620  0.87250  Biso   1.000  O
  O6       1.0000 0.52440  0.06380  0.12750  Biso   1.000  O
  O7       1.0000 0.39830  0.85520  0.73260  Biso   1.000  O
  O8       1.0000 0.60170  0.14480  0.26740  Biso   1.000  O
  C97      1.0000 0.09770  0.11910  0.68870  Biso   1.000  C
  C98      1.0000 0.90230  0.88090  0.31130  Biso   1.000  C
  C99      1.0000 0.15180  0.04570  0.68650  Biso   1.000  C
  C100     1.0000 0.84820  0.95430  0.31350  Biso   1.000  C
  H65      1.0000 0.09790  0.99330  0.68350  Biso   1.000  H
  H66      1.0000 0.90210  0.00670  0.31650  Biso   1.000  H
  H67      1.0000 0.17230  0.02140  0.63440  Biso   1.000  H
  H68      1.0000 0.82770  0.97860  0.36560  Biso   1.000  H
  C101     1.0000 0.24670  0.07120  0.75440  Biso   1.000  C
  C102     1.0000 0.75330  0.92880  0.24560  Biso   1.000  C
  H69      1.0000 0.22870  0.09750  0.80750  Biso   1.000  H
  H70      1.0000 0.77130  0.90250  0.19250  Biso   1.000  H
  H71      1.0000 0.30370  0.12040  0.75590  Biso   1.000  H
  H72      1.0000 0.69630  0.87960  0.24410  Biso   1.000  H
  C103     1.0000 0.28790  0.98890  0.74530  Biso   1.000  C
  C104     1.0000 0.71210  0.01110  0.25470  Biso   1.000  C
  H73      1.0000 0.22940  0.93920  0.74130  Biso   1.000  H
  H74      1.0000 0.77060  0.06080  0.25870  Biso   1.000  H
  H75      1.0000 0.30680  0.96410  0.69240  Biso   1.000  H
  H76      1.0000 0.69320  0.03590  0.30760  Biso   1.000  H
  C105     1.0000 0.37970  0.00770  0.81110  Biso   1.000  C
  C106     1.0000 0.62030  0.99230  0.18890  Biso   1.000  C
  H77      1.0000 0.36140  0.03470  0.86400  Biso   1.000  H
  H78      1.0000 0.63860  0.96530  0.13600  Biso   1.000  H
  H79      1.0000 0.43860  0.05620  0.81370  Biso   1.000  H
  H80      1.0000 0.56140  0.94380  0.18630  Biso   1.000  H
  C107     1.0000 0.42100  0.92540  0.80500  Biso   1.000  C
  C108     1.0000 0.57900  0.07460  0.19500  Biso   1.000  C
  O9       1.0000 0.91020  0.21150  0.73630  Biso   1.000  O
  O10      1.0000 0.08980  0.78850  0.26370  Biso   1.000  O
  O11      1.0000 0.92990  0.20320  0.85430  Biso   1.000  O
  O12      1.0000 0.07010  0.79680  0.14570  Biso   1.000  O
  O13      1.0000 0.60040  0.80370  0.64170  Biso   1.000  O
  O14      1.0000 0.39960  0.19630  0.35830  Biso   1.000  O
  O15      1.0000 0.59380  0.81130  0.76390  Biso   1.000  O
  O16      1.0000 0.40620  0.18870  0.23610  Biso   1.000  O
  C109     1.0000 0.87530  0.18070  0.78480  Biso   1.000  C
  C110     1.0000 0.12470  0.81930  0.21520  Biso   1.000  C
  C111     1.0000 0.75890  0.12040  0.75170  Biso   1.000  C
  C112     1.0000 0.24110  0.87960  0.24830  Biso   1.000  C
  H81      1.0000 0.71440  0.16100  0.77260  Biso   1.000  H
  H82      1.0000 0.28560  0.83900  0.22740  Biso   1.000  H
  H83      1.0000 0.73820  0.09140  0.69090  Biso   1.000  H
  H84      1.0000 0.26180  0.90860  0.30910  Biso   1.000  H
  C113     1.0000 0.73740  0.04310  0.77660  Biso   1.000  C
  C114     1.0000 0.26260  0.95690  0.22340  Biso   1.000  C
  H85      1.0000 0.66030  0.01350  0.76090  Biso   1.000  H
  H86      1.0000 0.33970  0.98650  0.23910  Biso   1.000  H
  H87      1.0000 0.76340  0.07150  0.83720  Biso   1.000  H
  H88      1.0000 0.23660  0.92850  0.16280  Biso   1.000  H
  C115     1.0000 0.79050  0.96740  0.73580  Biso   1.000  C
  C116     1.0000 0.20950  0.03260  0.26420  Biso   1.000  C
  H89      1.0000 0.76930  0.94310  0.67550  Biso   1.000  H
  H90      1.0000 0.23070  0.05690  0.32450  Biso   1.000  H
  H91      1.0000 0.86790  0.99620  0.75540  Biso   1.000  H
  H92      1.0000 0.13210  0.00380  0.24460  Biso   1.000  H
  C117     1.0000 0.76230  0.88610  0.75390  Biso   1.000  C
  C118     1.0000 0.23770  0.11390  0.24610  Biso   1.000  C
  H93      1.0000 0.78050  0.91020  0.81430  Biso   1.000  H
  H94      1.0000 0.21950  0.08980  0.18570  Biso   1.000  H
  H95      1.0000 0.80460  0.84400  0.73120  Biso   1.000  H
  H96      1.0000 0.19540  0.15600  0.26880  Biso   1.000  H
  C119     1.0000 0.64460  0.83050  0.71680  Biso   1.000  C
  C120     1.0000 0.35540  0.16950  0.28320  Biso   1.000  C
  O17      1.0000 0.02590  0.28250  0.65540  Biso   1.000  O
  O18      1.0000 0.97410  0.71750  0.34460  Biso   1.000  O
  O19      1.0000 0.04850  0.24380  0.52980  Biso   1.000  O
  O20      1.0000 0.95150  0.75620  0.47020  Biso   1.000  O
  O21      1.0000 0.43130  0.74080  0.82220  Biso   1.000  O
  O22      1.0000 0.56870  0.25920  0.17780  Biso   1.000  O
  O23      1.0000 0.38740  0.76770  0.93930  Biso   1.000  O
  O24      1.0000 0.61260  0.23230  0.06070  Biso   1.000  O
  C121     1.0000 0.07650  0.29730  0.60640  Biso   1.000  C
  C122     1.0000 0.92350  0.70270  0.39360  Biso   1.000  C
  C123     1.0000 0.17780  0.38070  0.64730  Biso   1.000  C
  C124     1.0000 0.82220  0.61930  0.35270  Biso   1.000  C
  H97      1.0000 0.20820  0.38500  0.60370  Biso   1.000  H
  H98      1.0000 0.79180  0.61500  0.39630  Biso   1.000  H
  H99      1.0000 0.22950  0.36860  0.68190  Biso   1.000  H
  H100     1.0000 0.77050  0.63140  0.31810  Biso   1.000  H
  C125     1.0000 0.16210  0.47670  0.70190  Biso   1.000  C
  C126     1.0000 0.83790  0.52330  0.29810  Biso   1.000  C
  H101     1.0000 0.12340  0.49620  0.66610  Biso   1.000  H
  H102     1.0000 0.87660  0.50380  0.33390  Biso   1.000  H
  H103     1.0000 0.11920  0.47000  0.73860  Biso   1.000  H
  H104     1.0000 0.88080  0.53000  0.26140  Biso   1.000  H
  C127     1.0000 0.26900  0.55260  0.75450  Biso   1.000  C
  C128     1.0000 0.73100  0.44740  0.24550  Biso   1.000  C
  H105     1.0000 0.31190  0.55860  0.71760  Biso   1.000  H
  H106     1.0000 0.68810  0.44140  0.28240  Biso   1.000  H
  H107     1.0000 0.30750  0.53270  0.79010  Biso   1.000  H
  H108     1.0000 0.69250  0.46730  0.20990  Biso   1.000  H
  C129     1.0000 0.25670  0.64910  0.80940  Biso   1.000  C
  C130     1.0000 0.74330  0.35090  0.19060  Biso   1.000  C
  H109     1.0000 0.21890  0.66940  0.77380  Biso   1.000  H
  H110     1.0000 0.78110  0.33060  0.22620  Biso   1.000  H
  H111     1.0000 0.21330  0.64310  0.84610  Biso   1.000  H
  H112     1.0000 0.78670  0.35690  0.15390  Biso   1.000  H
  C131     1.0000 0.36400  0.72460  0.86260  Biso   1.000  C
  C132     1.0000 0.63600  0.27540  0.13740  Biso   1.000  C
  Cl1      1.0000 0.56527  0.33783  0.77440  Biso   1.000  Cl
  Cl2      1.0000 0.43473  0.66217  0.22560  Biso   1.000  Cl
  O25      1.0000 0.61840  0.42210  0.84870  Biso   1.000  O
  O26      1.0000 0.38160  0.57790  0.15130  Biso   1.000  O
  O27      1.0000 0.63050  0.29540  0.73260  Biso   1.000  O
  O28      1.0000 0.36950  0.70460  0.26740  Biso   1.000  O
  O29      1.0000 0.49840  0.27650  0.79230  Biso   1.000  O
  O30      1.0000 0.50160  0.72350  0.20770  Biso   1.000  O
  O31      1.0000 0.49580  0.35490  0.72500  Biso   1.000  O
  O32      1.0000 0.50420  0.64510  0.27500  Biso   1.000  O
  Cl3      1.0000 0.91670  0.64857  0.76539  Biso   1.000  Cl
  Cl4      1.0000 0.08330  0.35143  0.23461  Biso   1.000  Cl
  O33      1.0000 0.98380  0.67410  0.84050  Biso   1.000  O
  O34      1.0000 0.01620  0.32590  0.15950  Biso   1.000  O
  O35      1.0000 0.98060  0.67930  0.72170  Biso   1.000  O
  O36      1.0000 0.01940  0.32070  0.27830  Biso   1.000  O
  O37      1.0000 0.84990  0.69730  0.77190  Biso   1.000  O
  O38      1.0000 0.15010  0.30270  0.22810  Biso   1.000  O
  O39      1.0000 0.86620  0.55520  0.71630  Biso   1.000  O
  O40      1.0000 0.13380  0.44480  0.28370  Biso   1.000  O
  O41      1.0000 0.99380  0.18100  0.34950  Biso   1.000  O
  O42      1.0000 0.00620  0.81900  0.65050  Biso   1.000  O
