data_image0
_cell_length_a       19.044
_cell_length_b       11.037
_cell_length_c       11.451
_cell_angle_alpha    90
_cell_angle_beta     90
_cell_angle_gamma    90

_symmetry_space_group_name_H-M    "P 1"
_symmetry_int_tables_number       1

loop_
  _symmetry_equiv_pos_as_xyz
  'x, y, z'

loop_
  _atom_site_label
  _atom_site_occupancy
  _atom_site_fract_x
  _atom_site_fract_y
  _atom_site_fract_z
  _atom_site_thermal_displace_type
  _atom_site_B_iso_or_equiv
  _atom_site_type_symbol
  Tl1      1.0000 0.35679  0.42266  0.25000  Biso   1.000  Tl
  Tl2      1.0000 0.64321  0.57734  0.75000  Biso   1.000  Tl
  Tl3      1.0000 0.85679  0.07734  0.25000  Biso   1.000  Tl
  Tl4      1.0000 0.14321  0.92266  0.75000  Biso   1.000  Tl
  Cu1      1.0000 0.25525  0.16792  0.50109  Biso   1.000  Cu
  Cu2      1.0000 0.74475  0.83208  0.00109  Biso   1.000  Cu
  Cu3      1.0000 0.75525  0.33208  0.99891  Biso   1.000  Cu
  Cu4      1.0000 0.24475  0.66792  0.49891  Biso   1.000  Cu
  Cu5      1.0000 0.74475  0.83208  0.49891  Biso   1.000  Cu
  Cu6      1.0000 0.25525  0.16792  0.99891  Biso   1.000  Cu
  Cu7      1.0000 0.24475  0.66792  0.00109  Biso   1.000  Cu
  Cu8      1.0000 0.75525  0.33208  0.50109  Biso   1.000  Cu
  N1       1.0000 0.19090  0.30730  0.53490  Biso   1.000  N
  N2       1.0000 0.80910  0.69270  0.03490  Biso   1.000  N
  N3       1.0000 0.69090  0.19270  0.96510  Biso   1.000  N
  N4       1.0000 0.30910  0.80730  0.46510  Biso   1.000  N
  N5       1.0000 0.80910  0.69270  0.46510  Biso   1.000  N
  N6       1.0000 0.19090  0.30730  0.96510  Biso   1.000  N
  N7       1.0000 0.30910  0.80730  0.03490  Biso   1.000  N
  N8       1.0000 0.69090  0.19270  0.53490  Biso   1.000  N
  C1       1.0000 0.22190  0.41760  0.50660  Biso   1.000  C
  C2       1.0000 0.77810  0.58240  0.00660  Biso   1.000  C
  C3       1.0000 0.72190  0.08240  0.99340  Biso   1.000  C
  C4       1.0000 0.27810  0.91760  0.49340  Biso   1.000  C
  C5       1.0000 0.77810  0.58240  0.49340  Biso   1.000  C
  C6       1.0000 0.22190  0.41760  0.99340  Biso   1.000  C
  C7       1.0000 0.27810  0.91760  0.00660  Biso   1.000  C
  C8       1.0000 0.72190  0.08240  0.50660  Biso   1.000  C
  N9       1.0000 0.18510  0.52150  0.53000  Biso   1.000  N
  N10      1.0000 0.81490  0.47850  0.03000  Biso   1.000  N
  N11      1.0000 0.68510  0.97850  0.97000  Biso   1.000  N
  N12      1.0000 0.31490  0.02150  0.47000  Biso   1.000  N
  N13      1.0000 0.81490  0.47850  0.47000  Biso   1.000  N
  N14      1.0000 0.18510  0.52150  0.97000  Biso   1.000  N
  N15      1.0000 0.31490  0.02150  0.03000  Biso   1.000  N
  N16      1.0000 0.68510  0.97850  0.53000  Biso   1.000  N
  C9       1.0000 0.12070  0.51750  0.57510  Biso   1.000  C
  C10      1.0000 0.87930  0.48250  0.07510  Biso   1.000  C
  C11      1.0000 0.62070  0.98250  0.92490  Biso   1.000  C
  C12      1.0000 0.37930  0.01750  0.42490  Biso   1.000  C
  C13      1.0000 0.87930  0.48250  0.42490  Biso   1.000  C
  C14      1.0000 0.12070  0.51750  0.92490  Biso   1.000  C
  C15      1.0000 0.37930  0.01750  0.07510  Biso   1.000  C
  C16      1.0000 0.62070  0.98250  0.57510  Biso   1.000  C
  H1       1.0000 0.09690  0.58900  0.59160  Biso   1.000  H
  H2       1.0000 0.90310  0.41100  0.09160  Biso   1.000  H
  H3       1.0000 0.59690  0.91100  0.90840  Biso   1.000  H
  H4       1.0000 0.40310  0.08900  0.40840  Biso   1.000  H
  H5       1.0000 0.90310  0.41100  0.40840  Biso   1.000  H
  H6       1.0000 0.09690  0.58900  0.90840  Biso   1.000  H
  H7       1.0000 0.40310  0.08900  0.09160  Biso   1.000  H
  H8       1.0000 0.59690  0.91100  0.59160  Biso   1.000  H
  C17      1.0000 0.12660  0.30400  0.57730  Biso   1.000  C
  C18      1.0000 0.87340  0.69600  0.07730  Biso   1.000  C
  C19      1.0000 0.62660  0.19600  0.92270  Biso   1.000  C
  C20      1.0000 0.37340  0.80400  0.42270  Biso   1.000  C
  C21      1.0000 0.87340  0.69600  0.42270  Biso   1.000  C
  C22      1.0000 0.12660  0.30400  0.92270  Biso   1.000  C
  C23      1.0000 0.37340  0.80400  0.07730  Biso   1.000  C
  C24      1.0000 0.62660  0.19600  0.57730  Biso   1.000  C
  H9       1.0000 0.10590  0.22980  0.59410  Biso   1.000  H
  H10      1.0000 0.89410  0.77020  0.09410  Biso   1.000  H
  H11      1.0000 0.60590  0.27020  0.90590  Biso   1.000  H
  H12      1.0000 0.39410  0.72980  0.40590  Biso   1.000  H
  H13      1.0000 0.89410  0.77020  0.40590  Biso   1.000  H
  H14      1.0000 0.10590  0.22980  0.90590  Biso   1.000  H
  H15      1.0000 0.39410  0.72980  0.09410  Biso   1.000  H
  H16      1.0000 0.60590  0.27020  0.59410  Biso   1.000  H
  C25      1.0000 0.09000  0.40890  0.59700  Biso   1.000  C
  C26      1.0000 0.91000  0.59110  0.09700  Biso   1.000  C
  C27      1.0000 0.59000  0.09110  0.90300  Biso   1.000  C
  C28      1.0000 0.41000  0.90890  0.40300  Biso   1.000  C
  C29      1.0000 0.91000  0.59110  0.40300  Biso   1.000  C
  C30      1.0000 0.09000  0.40890  0.90300  Biso   1.000  C
  C31      1.0000 0.41000  0.90890  0.09700  Biso   1.000  C
  C32      1.0000 0.59000  0.09110  0.59700  Biso   1.000  C
  H17      1.0000 0.04430  0.40560  0.62520  Biso   1.000  H
  H18      1.0000 0.95570  0.59440  0.12520  Biso   1.000  H
  H19      1.0000 0.54430  0.09440  0.87480  Biso   1.000  H
  H20      1.0000 0.45570  0.90560  0.37480  Biso   1.000  H
  H21      1.0000 0.95570  0.59440  0.37480  Biso   1.000  H
  H22      1.0000 0.04430  0.40560  0.87480  Biso   1.000  H
  H23      1.0000 0.45570  0.90560  0.12520  Biso   1.000  H
  H24      1.0000 0.54430  0.09440  0.62520  Biso   1.000  H
  O1       1.0000 0.28140  0.42140  0.46390  Biso   1.000  O
  O2       1.0000 0.71860  0.57860  0.96390  Biso   1.000  O
  O3       1.0000 0.78140  0.07860  0.03610  Biso   1.000  O
  O4       1.0000 0.21860  0.92140  0.53610  Biso   1.000  O
  O5       1.0000 0.71860  0.57860  0.53610  Biso   1.000  O
  O6       1.0000 0.28140  0.42140  0.03610  Biso   1.000  O
  O7       1.0000 0.21860  0.92140  0.96390  Biso   1.000  O
  O8       1.0000 0.78140  0.07860  0.46390  Biso   1.000  O
  N17      1.0000 0.19030  0.70230  0.14630  Biso   1.000  N
  N18      1.0000 0.80970  0.29770  0.64630  Biso   1.000  N
  N19      1.0000 0.69030  0.79770  0.35370  Biso   1.000  N
  N20      1.0000 0.30970  0.20230  0.85370  Biso   1.000  N
  N21      1.0000 0.80970  0.29770  0.85370  Biso   1.000  N
  N22      1.0000 0.19030  0.70230  0.35370  Biso   1.000  N
  N23      1.0000 0.30970  0.20230  0.64630  Biso   1.000  N
  N24      1.0000 0.69030  0.79770  0.14630  Biso   1.000  N
  C33      1.0000 0.22420  0.67900  0.25000  Biso   1.000  C
  C34      1.0000 0.77580  0.32100  0.75000  Biso   1.000  C
  C35      1.0000 0.72420  0.82100  0.25000  Biso   1.000  C
  C36      1.0000 0.27580  0.17900  0.75000  Biso   1.000  C
  C37      1.0000 0.12460  0.74100  0.14720  Biso   1.000  C
  C38      1.0000 0.87540  0.25900  0.64720  Biso   1.000  C
  C39      1.0000 0.62460  0.75900  0.35280  Biso   1.000  C
  C40      1.0000 0.37540  0.24100  0.85280  Biso   1.000  C
  C41      1.0000 0.87540  0.25900  0.85280  Biso   1.000  C
  C42      1.0000 0.12460  0.74100  0.35280  Biso   1.000  C
  C43      1.0000 0.37540  0.24100  0.64720  Biso   1.000  C
  C44      1.0000 0.62460  0.75900  0.14720  Biso   1.000  C
  H25      1.0000 0.10200  0.75550  0.07650  Biso   1.000  H
  H26      1.0000 0.89800  0.24450  0.57650  Biso   1.000  H
  H27      1.0000 0.60200  0.74450  0.42350  Biso   1.000  H
  H28      1.0000 0.39800  0.25550  0.92350  Biso   1.000  H
  H29      1.0000 0.89800  0.24450  0.92350  Biso   1.000  H
  H30      1.0000 0.10200  0.75550  0.42350  Biso   1.000  H
  H31      1.0000 0.39800  0.25550  0.57650  Biso   1.000  H
  H32      1.0000 0.60200  0.74450  0.07650  Biso   1.000  H
  C45      1.0000 0.08870  0.76030  0.25000  Biso   1.000  C
  C46      1.0000 0.91130  0.23970  0.75000  Biso   1.000  C
  C47      1.0000 0.58870  0.73970  0.25000  Biso   1.000  C
  C48      1.0000 0.41130  0.26030  0.75000  Biso   1.000  C
  H33      1.0000 0.04210  0.78540  0.25000  Biso   1.000  H
  H34      1.0000 0.95790  0.21460  0.75000  Biso   1.000  H
  H35      1.0000 0.54210  0.71460  0.25000  Biso   1.000  H
  H36      1.0000 0.45790  0.28540  0.75000  Biso   1.000  H
  O9       1.0000 0.28500  0.63890  0.25000  Biso   1.000  O
  O10      1.0000 0.71500  0.36110  0.75000  Biso   1.000  O
  O11      1.0000 0.78500  0.86110  0.25000  Biso   1.000  O
  O12      1.0000 0.21500  0.13890  0.75000  Biso   1.000  O
  N25      1.0000 0.20380  0.13390  0.35330  Biso   1.000  N
  N26      1.0000 0.79620  0.86610  0.85330  Biso   1.000  N
  N27      1.0000 0.70380  0.36610  0.14670  Biso   1.000  N
  N28      1.0000 0.29620  0.63390  0.64670  Biso   1.000  N
  N29      1.0000 0.79620  0.86610  0.64670  Biso   1.000  N
  N30      1.0000 0.20380  0.13390  0.14670  Biso   1.000  N
  N31      1.0000 0.29620  0.63390  0.85330  Biso   1.000  N
  N32      1.0000 0.70380  0.36610  0.35330  Biso   1.000  N
  C49      1.0000 0.23700  0.15830  0.25000  Biso   1.000  C
  C50      1.0000 0.76300  0.84170  0.75000  Biso   1.000  C
  C51      1.0000 0.73700  0.34170  0.25000  Biso   1.000  C
  C52      1.0000 0.26300  0.65830  0.75000  Biso   1.000  C
  C53      1.0000 0.13970  0.08720  0.35240  Biso   1.000  C
  C54      1.0000 0.86030  0.91280  0.85240  Biso   1.000  C
  C55      1.0000 0.63970  0.41280  0.14760  Biso   1.000  C
  C56      1.0000 0.36030  0.58720  0.64760  Biso   1.000  C
  C57      1.0000 0.86030  0.91280  0.64760  Biso   1.000  C
  C58      1.0000 0.13970  0.08720  0.14760  Biso   1.000  C
  C59      1.0000 0.36030  0.58720  0.85240  Biso   1.000  C
  C60      1.0000 0.63970  0.41280  0.35240  Biso   1.000  C
  H37      1.0000 0.11800  0.07040  0.42330  Biso   1.000  H
  H38      1.0000 0.88200  0.92960  0.92330  Biso   1.000  H
  H39      1.0000 0.61800  0.42960  0.07670  Biso   1.000  H
  H40      1.0000 0.38200  0.57040  0.57670  Biso   1.000  H
  H41      1.0000 0.88200  0.92960  0.57670  Biso   1.000  H
  H42      1.0000 0.11800  0.07040  0.07670  Biso   1.000  H
  H43      1.0000 0.38200  0.57040  0.92330  Biso   1.000  H
  H44      1.0000 0.61800  0.42960  0.42330  Biso   1.000  H
  C61      1.0000 0.10380  0.06230  0.25000  Biso   1.000  C
  C62      1.0000 0.89620  0.93770  0.75000  Biso   1.000  C
  C63      1.0000 0.60380  0.43770  0.25000  Biso   1.000  C
  C64      1.0000 0.39620  0.56230  0.75000  Biso   1.000  C
  H45      1.0000 0.05850  0.03090  0.25000  Biso   1.000  H
  H46      1.0000 0.94150  0.96910  0.75000  Biso   1.000  H
  H47      1.0000 0.55850  0.46910  0.25000  Biso   1.000  H
  H48      1.0000 0.44150  0.53090  0.75000  Biso   1.000  H
  O13      1.0000 0.29710  0.20020  0.25000  Biso   1.000  O
  O14      1.0000 0.70290  0.79980  0.75000  Biso   1.000  O
  O15      1.0000 0.79710  0.29980  0.25000  Biso   1.000  O
  O16      1.0000 0.20290  0.70020  0.75000  Biso   1.000  O
  N33      1.0000 0.51570  0.58620  0.96810  Biso   1.000  N
  N34      1.0000 0.48430  0.41380  0.46810  Biso   1.000  N
  N35      1.0000 0.01570  0.91380  0.53190  Biso   1.000  N
  N36      1.0000 0.98430  0.08620  0.03190  Biso   1.000  N
  N37      1.0000 0.48430  0.41380  0.03190  Biso   1.000  N
  N38      1.0000 0.51570  0.58620  0.53190  Biso   1.000  N
  N39      1.0000 0.98430  0.08620  0.46810  Biso   1.000  N
  N40      1.0000 0.01570  0.91380  0.96810  Biso   1.000  N
  O17      1.0000 0.52840  0.48450  0.92490  Biso   1.000  O
  O18      1.0000 0.47160  0.51550  0.42490  Biso   1.000  O
  O19      1.0000 0.02840  0.01550  0.57510  Biso   1.000  O
  O20      1.0000 0.97160  0.98450  0.07510  Biso   1.000  O
  O21      1.0000 0.47160  0.51550  0.07510  Biso   1.000  O
  O22      1.0000 0.52840  0.48450  0.57510  Biso   1.000  O
  O23      1.0000 0.97160  0.98450  0.42490  Biso   1.000  O
  O24      1.0000 0.02840  0.01550  0.92490  Biso   1.000  O
  O25      1.0000 0.52810  0.68640  0.92150  Biso   1.000  O
  O26      1.0000 0.47190  0.31360  0.42150  Biso   1.000  O
  O27      1.0000 0.02810  0.81360  0.57850  Biso   1.000  O
  O28      1.0000 0.97190  0.18640  0.07850  Biso   1.000  O
  O29      1.0000 0.47190  0.31360  0.07850  Biso   1.000  O
  O30      1.0000 0.52810  0.68640  0.57850  Biso   1.000  O
  O31      1.0000 0.97190  0.18640  0.42150  Biso   1.000  O
  O32      1.0000 0.02810  0.81360  0.92150  Biso   1.000  O
  O33      1.0000 0.48780  0.56900  0.06550  Biso   1.000  O
  O34      1.0000 0.51220  0.43100  0.56550  Biso   1.000  O
  O35      1.0000 0.98780  0.93100  0.43450  Biso   1.000  O
  O36      1.0000 0.01220  0.06900  0.93450  Biso   1.000  O
  O37      1.0000 0.51220  0.43100  0.93450  Biso   1.000  O
  O38      1.0000 0.48780  0.56900  0.43450  Biso   1.000  O
  O39      1.0000 0.01220  0.06900  0.56550  Biso   1.000  O
  O40      1.0000 0.98780  0.93100  0.06550  Biso   1.000  O
  C65      1.0000 0.02300  0.35300  0.25000  Biso   1.000  C
  C66      1.0000 0.97700  0.64700  0.75000  Biso   1.000  C
  C67      1.0000 0.52300  0.14700  0.25000  Biso   1.000  C
  C68      1.0000 0.47700  0.85300  0.75000  Biso   1.000  C
  O41      1.0000 0.09210  0.40800  0.25000  Biso   1.000  O
  O42      1.0000 0.90790  0.59200  0.75000  Biso   1.000  O
  O43      1.0000 0.59210  0.09200  0.25000  Biso   1.000  O
  O44      1.0000 0.40790  0.90800  0.75000  Biso   1.000  O
