data_image0
_cell_length_a       9.9223
_cell_length_b       10.0758
_cell_length_c       11.1182
_cell_angle_alpha    72.4
_cell_angle_beta     86.211
_cell_angle_gamma    76.451

_symmetry_space_group_name_H-M    "P 1"
_symmetry_int_tables_number       1

loop_
  _symmetry_equiv_pos_as_xyz
  'x, y, z'

loop_
  _atom_site_label
  _atom_site_occupancy
  _atom_site_fract_x
  _atom_site_fract_y
  _atom_site_fract_z
  _atom_site_thermal_displace_type
  _atom_site_B_iso_or_equiv
  _atom_site_type_symbol
  Cu1      1.0000 0.85538  0.36444  0.56277  Biso   1.000  Cu
  Cu2      1.0000 0.14462  0.63556  0.43723  Biso   1.000  Cu
  Br1      1.0000 0.05234  0.11563  0.16637  Biso   1.000  Br
  Br2      1.0000 0.94766  0.88437  0.83363  Biso   1.000  Br
  Br3      1.0000 0.63989  0.65333  0.96808  Biso   1.000  Br
  Br4      1.0000 0.36011  0.34667  0.03192  Biso   1.000  Br
  O1       1.0000 0.84680  0.16990  0.55570  Biso   1.000  O
  O2       1.0000 0.15320  0.83010  0.44430  Biso   1.000  O
  O3       1.0000 0.77390  0.54530  0.59770  Biso   1.000  O
  O4       1.0000 0.22610  0.45470  0.40230  Biso   1.000  O
  O5       1.0000 0.91910  0.67760  0.49520  Biso   1.000  O
  O6       1.0000 0.08090  0.32240  0.50480  Biso   1.000  O
  O7       1.0000 0.63920  0.26460  0.61280  Biso   1.000  O
  O8       1.0000 0.36080  0.73540  0.38720  Biso   1.000  O
  N1       1.0000 0.79060  0.45190  0.38190  Biso   1.000  N
  N2       1.0000 0.20940  0.54810  0.61810  Biso   1.000  N
  N3       1.0000 0.91780  0.28500  0.74470  Biso   1.000  N
  N4       1.0000 0.08220  0.71500  0.25530  Biso   1.000  N
  N5       1.0000 0.37690  0.87370  0.73400  Biso   1.000  N
  N6       1.0000 0.62310  0.12630  0.26600  Biso   1.000  N
  C1       1.0000 0.81360  0.66100  0.55640  Biso   1.000  C
  C2       1.0000 0.18640  0.33900  0.44360  Biso   1.000  C
  O9       1.0000 0.30700  0.97110  0.76730  Biso   1.000  O
  O10      1.0000 0.69300  0.02890  0.23270  Biso   1.000  O
  C3       1.0000 0.51090  0.88830  0.67460  Biso   1.000  C
  C4       1.0000 0.48910  0.11170  0.32540  Biso   1.000  C
  C5       1.0000 0.72130  0.78680  0.58950  Biso   1.000  C
  C6       1.0000 0.27870  0.21320  0.41050  Biso   1.000  C
  C7       1.0000 0.76430  0.91400  0.56890  Biso   1.000  C
  C8       1.0000 0.23570  0.08600  0.43110  Biso   1.000  C
  H1       1.0000 0.84983  0.92312  0.53196  Biso   1.000  H
  H2       1.0000 0.15017  0.07688  0.46804  Biso   1.000  H
  O11      1.0000 0.34180  0.76240  0.75250  Biso   1.000  O
  O12      1.0000 0.65820  0.23760  0.24750  Biso   1.000  O
  C9       1.0000 0.67950  0.02690  0.60350  Biso   1.000  C
  C10      1.0000 0.32050  0.97310  0.39650  Biso   1.000  C
  C11      1.0000 0.59310  0.77350  0.64300  Biso   1.000  C
  C12      1.0000 0.40690  0.22650  0.35700  Biso   1.000  C
  H3       1.0000 0.56337  0.68910  0.65717  Biso   1.000  H
  H4       1.0000 0.43663  0.31090  0.34283  Biso   1.000  H
  C13      1.0000 0.55130  0.01530  0.65640  Biso   1.000  C
  C14      1.0000 0.44870  0.98470  0.34360  Biso   1.000  C
  H5       1.0000 0.49365  0.09089  0.67925  Biso   1.000  H
  H6       1.0000 0.50635  0.90911  0.32075  Biso   1.000  H
  C15      1.0000 0.72470  0.16550  0.58840  Biso   1.000  C
  C16      1.0000 0.27530  0.83450  0.41160  Biso   1.000  C
  C17      1.0000 0.99580  0.18380  0.99630  Biso   1.000  C
  C18      1.0000 0.00420  0.81620  0.00370  Biso   1.000  C
  C19      1.0000 0.82840  0.30530  0.83720  Biso   1.000  C
  C20      1.0000 0.17160  0.69470  0.16280  Biso   1.000  C
  H7       1.0000 0.73805  0.35597  0.81451  Biso   1.000  H
  H8       1.0000 0.26195  0.64403  0.18549  Biso   1.000  H
  C21      1.0000 0.86260  0.25550  0.96300  Biso   1.000  C
  C22      1.0000 0.13740  0.74450  0.03700  Biso   1.000  C
  H9       1.0000 0.79679  0.27023  0.02396  Biso   1.000  H
  H10      1.0000 0.20321  0.72977  0.97604  Biso   1.000  H
  C23      1.0000 0.86980  0.42630  0.28610  Biso   1.000  C
  C24      1.0000 0.13020  0.57370  0.71390  Biso   1.000  C
  H11      1.0000 0.95701  0.36549  0.30392  Biso   1.000  H
  H12      1.0000 0.04299  0.63451  0.69608  Biso   1.000  H
  C25      1.0000 0.08920  0.16150  0.90460  Biso   1.000  C
  C26      1.0000 0.91080  0.83850  0.09540  Biso   1.000  C
  H13      1.0000 0.18046  0.11277  0.92542  Biso   1.000  H
  H14      1.0000 0.81954  0.88723  0.07458  Biso   1.000  H
  C27      1.0000 0.66530  0.53730  0.35490  Biso   1.000  C
  C28      1.0000 0.33470  0.46270  0.64510  Biso   1.000  C
  H15      1.0000 0.60901  0.55526  0.42101  Biso   1.000  H
  H16      1.0000 0.39099  0.44474  0.57899  Biso   1.000  H
  C29      1.0000 0.04600  0.21200  0.78150  Biso   1.000  C
  C30      1.0000 0.95400  0.78800  0.21850  Biso   1.000  C
  H17      1.0000 0.10974  0.19447  0.71983  Biso   1.000  H
  H18      1.0000 0.89026  0.80553  0.28017  Biso   1.000  H
  C31      1.0000 0.82820  0.48560  0.16270  Biso   1.000  C
  C32      1.0000 0.17180  0.51440  0.83730  Biso   1.000  C
  H19      1.0000 0.88636  0.46626  0.09801  Biso   1.000  H
  H20      1.0000 0.11364  0.53374  0.90199  Biso   1.000  H
  C33      1.0000 0.61520  0.60020  0.23370  Biso   1.000  C
  C34      1.0000 0.38480  0.39980  0.76630  Biso   1.000  C
  H21      1.0000 0.52683  0.65895  0.21787  Biso   1.000  H
  H22      1.0000 0.47317  0.34105  0.78213  Biso   1.000  H
  C35      1.0000 0.70000  0.57360  0.13650  Biso   1.000  C
  C36      1.0000 0.30000  0.42640  0.86350  Biso   1.000  C
