data_image0
_cell_length_a       10.9778
_cell_length_b       22.267
_cell_length_c       8.2714
_cell_angle_alpha    90
_cell_angle_beta     94.922
_cell_angle_gamma    90

_symmetry_space_group_name_H-M    "P 1"
_symmetry_int_tables_number       1

loop_
  _symmetry_equiv_pos_as_xyz
  'x, y, z'

loop_
  _atom_site_label
  _atom_site_occupancy
  _atom_site_fract_x
  _atom_site_fract_y
  _atom_site_fract_z
  _atom_site_thermal_displace_type
  _atom_site_B_iso_or_equiv
  _atom_site_type_symbol
  C1       1.0000 0.20080  0.88980  0.42900  Biso   1.000  C
  C2       1.0000 0.20080  0.11020  0.92900  Biso   1.000  C
  C3       1.0000 0.70080  0.38980  0.42900  Biso   1.000  C
  C4       1.0000 0.70080  0.61020  0.92900  Biso   1.000  C
  C5       1.0000 0.06030  0.88760  0.38750  Biso   1.000  C
  C6       1.0000 0.06030  0.11240  0.88750  Biso   1.000  C
  C7       1.0000 0.56030  0.38760  0.38750  Biso   1.000  C
  C8       1.0000 0.56030  0.61240  0.88750  Biso   1.000  C
  C9       1.0000 0.99220  0.83440  0.42420  Biso   1.000  C
  C10      1.0000 0.99220  0.16560  0.92420  Biso   1.000  C
  C11      1.0000 0.49220  0.33440  0.42420  Biso   1.000  C
  C12      1.0000 0.49220  0.66560  0.92420  Biso   1.000  C
  C13      1.0000 0.99440  0.93270  0.30650  Biso   1.000  C
  C14      1.0000 0.99440  0.06730  0.80650  Biso   1.000  C
  C15      1.0000 0.49440  0.43270  0.30650  Biso   1.000  C
  C16      1.0000 0.49440  0.56730  0.80650  Biso   1.000  C
  C17      1.0000 0.86500  0.83140  0.39110  Biso   1.000  C
  C18      1.0000 0.86500  0.16860  0.89110  Biso   1.000  C
  C19      1.0000 0.36500  0.33140  0.39110  Biso   1.000  C
  C20      1.0000 0.36500  0.66860  0.89110  Biso   1.000  C
  C21      1.0000 0.86540  0.93100  0.27080  Biso   1.000  C
  C22      1.0000 0.86540  0.06900  0.77080  Biso   1.000  C
  C23      1.0000 0.36540  0.43100  0.27080  Biso   1.000  C
  C24      1.0000 0.36540  0.56900  0.77080  Biso   1.000  C
  C25      1.0000 0.80130  0.88040  0.31870  Biso   1.000  C
  C26      1.0000 0.80130  0.11960  0.81870  Biso   1.000  C
  C27      1.0000 0.30130  0.38040  0.31870  Biso   1.000  C
  C28      1.0000 0.30130  0.61960  0.81870  Biso   1.000  C
  C29      1.0000 0.66510  0.87650  0.29280  Biso   1.000  C
  C30      1.0000 0.66510  0.12350  0.79280  Biso   1.000  C
  C31      1.0000 0.16510  0.37650  0.29280  Biso   1.000  C
  C32      1.0000 0.16510  0.62350  0.79280  Biso   1.000  C
  C33      1.0000 0.38450  0.76090  0.37550  Biso   1.000  C
  C34      1.0000 0.38450  0.23910  0.87550  Biso   1.000  C
  C35      1.0000 0.88450  0.26090  0.37550  Biso   1.000  C
  C36      1.0000 0.88450  0.73910  0.87550  Biso   1.000  C
  H1       1.0000 0.31200  0.77350  0.31930  Biso   1.000  H
  H2       1.0000 0.31200  0.22650  0.81930  Biso   1.000  H
  H3       1.0000 0.81200  0.27350  0.31930  Biso   1.000  H
  H4       1.0000 0.81200  0.72650  0.81930  Biso   1.000  H
  C37      1.0000 0.50350  0.68570  0.48800  Biso   1.000  C
  C38      1.0000 0.50350  0.31430  0.98800  Biso   1.000  C
  C39      1.0000 0.00350  0.18570  0.48800  Biso   1.000  C
  C40      1.0000 0.00350  0.81430  0.98800  Biso   1.000  C
  H5       1.0000 0.50600  0.64280  0.49600  Biso   1.000  H
  H6       1.0000 0.50600  0.35720  0.99600  Biso   1.000  H
  H7       1.0000 0.00600  0.14280  0.49600  Biso   1.000  H
  H8       1.0000 0.00600  0.85720  0.99600  Biso   1.000  H
  H9       1.0000 0.50450  0.70300  0.59410  Biso   1.000  H
  H10      1.0000 0.50450  0.29700  0.09410  Biso   1.000  H
  H11      1.0000 0.00450  0.20300  0.59410  Biso   1.000  H
  H12      1.0000 0.00450  0.79700  0.09410  Biso   1.000  H
  H13      1.0000 0.57340  0.69960  0.43600  Biso   1.000  H
  H14      1.0000 0.57340  0.30040  0.93600  Biso   1.000  H
  H15      1.0000 0.07340  0.19960  0.43600  Biso   1.000  H
  H16      1.0000 0.07340  0.80040  0.93600  Biso   1.000  H
  C41      1.0000 0.30560  0.65990  0.34000  Biso   1.000  C
  C42      1.0000 0.30560  0.34010  0.84000  Biso   1.000  C
  C43      1.0000 0.80560  0.15990  0.34000  Biso   1.000  C
  C44      1.0000 0.80560  0.84010  0.84000  Biso   1.000  C
  H17      1.0000 0.33270  0.61990  0.36750  Biso   1.000  H
  H18      1.0000 0.33270  0.38010  0.86750  Biso   1.000  H
  H19      1.0000 0.83270  0.11990  0.36750  Biso   1.000  H
  H20      1.0000 0.83270  0.88010  0.86750  Biso   1.000  H
  H21      1.0000 0.29030  0.66340  0.22450  Biso   1.000  H
  H22      1.0000 0.29030  0.33660  0.72450  Biso   1.000  H
  H23      1.0000 0.79030  0.16340  0.22450  Biso   1.000  H
  H24      1.0000 0.79030  0.83660  0.72450  Biso   1.000  H
  H25      1.0000 0.23180  0.66820  0.39040  Biso   1.000  H
  H26      1.0000 0.23180  0.33180  0.89040  Biso   1.000  H
  H27      1.0000 0.73180  0.16820  0.39040  Biso   1.000  H
  H28      1.0000 0.73180  0.83180  0.89040  Biso   1.000  H
  C45      1.0000 0.40300  0.01060  0.39100  Biso   1.000  C
  C46      1.0000 0.40300  0.98940  0.89100  Biso   1.000  C
  C47      1.0000 0.90300  0.51060  0.39100  Biso   1.000  C
  C48      1.0000 0.90300  0.48940  0.89100  Biso   1.000  C
  C49      1.0000 0.34210  0.10250  0.45800  Biso   1.000  C
  C50      1.0000 0.34210  0.89750  0.95800  Biso   1.000  C
  C51      1.0000 0.84210  0.60250  0.45800  Biso   1.000  C
  C52      1.0000 0.84210  0.39750  0.95800  Biso   1.000  C
  H29      1.0000 0.35730  0.14430  0.43910  Biso   1.000  H
  H30      1.0000 0.35730  0.85570  0.93910  Biso   1.000  H
  H31      1.0000 0.85730  0.64430  0.43910  Biso   1.000  H
  H32      1.0000 0.85730  0.35570  0.93910  Biso   1.000  H
  H33      1.0000 0.35610  0.09410  0.57190  Biso   1.000  H
  H34      1.0000 0.35610  0.90590  0.07190  Biso   1.000  H
  H35      1.0000 0.85610  0.59410  0.57190  Biso   1.000  H
  H36      1.0000 0.85610  0.40590  0.07190  Biso   1.000  H
  H37      1.0000 0.25890  0.09310  0.42140  Biso   1.000  H
  H38      1.0000 0.25890  0.90690  0.92140  Biso   1.000  H
  H39      1.0000 0.75890  0.59310  0.42140  Biso   1.000  H
  H40      1.0000 0.75890  0.40690  0.92140  Biso   1.000  H
  C53      1.0000 0.49660  0.10050  0.27700  Biso   1.000  C
  C54      1.0000 0.49660  0.89950  0.77700  Biso   1.000  C
  C55      1.0000 0.99660  0.60050  0.27700  Biso   1.000  C
  C56      1.0000 0.99660  0.39950  0.77700  Biso   1.000  C
  H41      1.0000 0.48370  0.14270  0.29180  Biso   1.000  H
  H42      1.0000 0.48370  0.85730  0.79180  Biso   1.000  H
  H43      1.0000 0.98370  0.64270  0.29180  Biso   1.000  H
  H44      1.0000 0.98370  0.35730  0.79180  Biso   1.000  H
  H45      1.0000 0.47760  0.09020  0.16490  Biso   1.000  H
  H46      1.0000 0.47760  0.90980  0.66490  Biso   1.000  H
  H47      1.0000 0.97760  0.59020  0.16490  Biso   1.000  H
  H48      1.0000 0.97760  0.40980  0.66490  Biso   1.000  H
  H49      1.0000 0.58050  0.09080  0.30850  Biso   1.000  H
  H50      1.0000 0.58050  0.90920  0.80850  Biso   1.000  H
  H51      1.0000 0.08050  0.59080  0.30850  Biso   1.000  H
  H52      1.0000 0.08050  0.40920  0.80850  Biso   1.000  H
  N1       1.0000 0.39960  0.70270  0.39780  Biso   1.000  N
  N2       1.0000 0.39960  0.29730  0.89780  Biso   1.000  N
  N3       1.0000 0.89960  0.20270  0.39780  Biso   1.000  N
  N4       1.0000 0.89960  0.79730  0.89780  Biso   1.000  N
  N5       1.0000 0.42050  0.06780  0.37310  Biso   1.000  N
  N6       1.0000 0.42050  0.93220  0.87310  Biso   1.000  N
  N7       1.0000 0.92050  0.56780  0.37310  Biso   1.000  N
  N8       1.0000 0.92050  0.43220  0.87310  Biso   1.000  N
  O1       1.0000 0.26090  0.87470  0.31850  Biso   1.000  O
  O2       1.0000 0.26090  0.12530  0.81850  Biso   1.000  O
  O3       1.0000 0.76090  0.37470  0.31850  Biso   1.000  O
  O4       1.0000 0.76090  0.62530  0.81850  Biso   1.000  O
  O5       1.0000 0.23280  0.90650  0.57060  Biso   1.000  O
  O6       1.0000 0.23280  0.09350  0.07060  Biso   1.000  O
  O7       1.0000 0.73280  0.40650  0.57060  Biso   1.000  O
  O8       1.0000 0.73280  0.59350  0.07060  Biso   1.000  O
  O9       1.0000 0.61460  0.86370  0.16110  Biso   1.000  O
  O10      1.0000 0.61460  0.13630  0.66110  Biso   1.000  O
  O11      1.0000 0.11460  0.36370  0.16110  Biso   1.000  O
  O12      1.0000 0.11460  0.63630  0.66110  Biso   1.000  O
  O13      1.0000 0.60870  0.89180  0.41750  Biso   1.000  O
  O14      1.0000 0.60870  0.10820  0.91750  Biso   1.000  O
  O15      1.0000 0.10870  0.39180  0.41750  Biso   1.000  O
  O16      1.0000 0.10870  0.60820  0.91750  Biso   1.000  O
  O17      1.0000 0.45610  0.79890  0.42150  Biso   1.000  O
  O18      1.0000 0.45610  0.20110  0.92150  Biso   1.000  O
  O19      1.0000 0.95610  0.29890  0.42150  Biso   1.000  O
  O20      1.0000 0.95610  0.70110  0.92150  Biso   1.000  O
  O21      1.0000 0.43280  0.96750  0.34890  Biso   1.000  O
  O22      1.0000 0.43280  0.03250  0.84890  Biso   1.000  O
  O23      1.0000 0.93280  0.46750  0.34890  Biso   1.000  O
  O24      1.0000 0.93280  0.53250  0.84890  Biso   1.000  O
  Cu1      1.0000 0.43542  0.88408  0.37530  Biso   1.000  Cu
  Cu2      1.0000 0.43542  0.11592  0.87530  Biso   1.000  Cu
  Cu3      1.0000 0.93542  0.38408  0.37530  Biso   1.000  Cu
  Cu4      1.0000 0.93542  0.61592  0.87530  Biso   1.000  Cu
  Br1      1.0000 0.07742  0.77234  0.53261  Biso   1.000  Br
  Br2      1.0000 0.07742  0.22766  0.03261  Biso   1.000  Br
  Br3      1.0000 0.57742  0.27234  0.53261  Biso   1.000  Br
  Br4      1.0000 0.57742  0.72766  0.03261  Biso   1.000  Br
  Br5      1.0000 0.08399  0.00067  0.23407  Biso   1.000  Br
  Br6      1.0000 0.08399  0.99933  0.73407  Biso   1.000  Br
  Br7      1.0000 0.58399  0.50067  0.23407  Biso   1.000  Br
  Br8      1.0000 0.58399  0.49933  0.73407  Biso   1.000  Br
  Br9      1.0000 0.78026  0.76430  0.43360  Biso   1.000  Br
  Br10     1.0000 0.78026  0.23570  0.93360  Biso   1.000  Br
  Br11     1.0000 0.28026  0.26430  0.43360  Biso   1.000  Br
  Br12     1.0000 0.28026  0.73570  0.93360  Biso   1.000  Br
  Br13     1.0000 0.78093  0.99434  0.15804  Biso   1.000  Br
  Br14     1.0000 0.78093  0.00566  0.65804  Biso   1.000  Br
  Br15     1.0000 0.28093  0.49434  0.15804  Biso   1.000  Br
  Br16     1.0000 0.28093  0.50566  0.65804  Biso   1.000  Br
