data_image0
_cell_length_a       17.225
_cell_length_b       14.918
_cell_length_c       11.589
_cell_angle_alpha    90
_cell_angle_beta     118.957
_cell_angle_gamma    90

_symmetry_space_group_name_H-M    "P 1"
_symmetry_int_tables_number       1

loop_
  _symmetry_equiv_pos_as_xyz
  'x, y, z'

loop_
  _atom_site_label
  _atom_site_occupancy
  _atom_site_fract_x
  _atom_site_fract_y
  _atom_site_fract_z
  _atom_site_thermal_displace_type
  _atom_site_B_iso_or_equiv
  _atom_site_type_symbol
  Cu1      1.0000 0.75077  0.31429  0.24947  Biso   1.000  Cu
  Cu2      1.0000 0.75077  0.68571  0.74947  Biso   1.000  Cu
  Cu3      1.0000 0.25077  0.81429  0.24947  Biso   1.000  Cu
  Cu4      1.0000 0.25077  0.18571  0.74947  Biso   1.000  Cu
  Cl1      1.0000 0.71116  0.39479  0.06779  Biso   1.000  Cl
  Cl2      1.0000 0.71116  0.60521  0.56779  Biso   1.000  Cl
  Cl3      1.0000 0.21116  0.89479  0.06779  Biso   1.000  Cl
  Cl4      1.0000 0.21116  0.10521  0.56779  Biso   1.000  Cl
  O1       1.0000 0.74180  0.24990  0.38760  Biso   1.000  O
  O2       1.0000 0.74180  0.75010  0.88760  Biso   1.000  O
  O3       1.0000 0.24180  0.74990  0.38760  Biso   1.000  O
  O4       1.0000 0.24180  0.25010  0.88760  Biso   1.000  O
  O5       1.0000 0.62020  0.18670  0.23430  Biso   1.000  O
  O6       1.0000 0.62020  0.81330  0.73430  Biso   1.000  O
  O7       1.0000 0.12020  0.68670  0.23430  Biso   1.000  O
  O8       1.0000 0.12020  0.31330  0.73430  Biso   1.000  O
  O9       1.0000 0.27600  0.29060  0.67570  Biso   1.000  O
  O10      1.0000 0.27600  0.70940  0.17570  Biso   1.000  O
  O11      1.0000 0.77600  0.79060  0.67570  Biso   1.000  O
  O12      1.0000 0.77600  0.20940  0.17570  Biso   1.000  O
  O13      1.0000 0.40730  0.28240  0.85350  Biso   1.000  O
  O14      1.0000 0.40730  0.71760  0.35350  Biso   1.000  O
  O15      1.0000 0.90730  0.78240  0.85350  Biso   1.000  O
  O16      1.0000 0.90730  0.21760  0.35350  Biso   1.000  O
  O17      1.0000 0.76550  0.42240  0.35350  Biso   1.000  O
  O18      1.0000 0.76550  0.57760  0.85350  Biso   1.000  O
  O19      1.0000 0.26550  0.92240  0.35350  Biso   1.000  O
  O20      1.0000 0.26550  0.07760  0.85350  Biso   1.000  O
  H1       1.0000 0.77840  0.47170  0.33620  Biso   1.000  H
  H2       1.0000 0.77840  0.52830  0.83620  Biso   1.000  H
  H3       1.0000 0.27840  0.97170  0.33620  Biso   1.000  H
  H4       1.0000 0.27840  0.02830  0.83620  Biso   1.000  H
  H5       1.0000 0.79250  0.41640  0.43390  Biso   1.000  H
  H6       1.0000 0.79250  0.58360  0.93390  Biso   1.000  H
  H7       1.0000 0.29250  0.91640  0.43390  Biso   1.000  H
  H8       1.0000 0.29250  0.08360  0.93390  Biso   1.000  H
  N1       1.0000 0.52370  0.89860  0.38720  Biso   1.000  N
  N2       1.0000 0.52370  0.10140  0.88720  Biso   1.000  N
  N3       1.0000 0.02370  0.39860  0.38720  Biso   1.000  N
  N4       1.0000 0.02370  0.60140  0.88720  Biso   1.000  N
  N5       1.0000 0.55870  0.61860  0.92910  Biso   1.000  N
  N6       1.0000 0.55870  0.38140  0.42910  Biso   1.000  N
  N7       1.0000 0.05870  0.11860  0.92910  Biso   1.000  N
  N8       1.0000 0.05870  0.88140  0.42910  Biso   1.000  N
  C1       1.0000 0.67720  0.19760  0.34980  Biso   1.000  C
  C2       1.0000 0.67720  0.80240  0.84980  Biso   1.000  C
  C3       1.0000 0.17720  0.69760  0.34980  Biso   1.000  C
  C4       1.0000 0.17720  0.30240  0.84980  Biso   1.000  C
  C5       1.0000 0.67070  0.14590  0.45700  Biso   1.000  C
  C6       1.0000 0.67070  0.85410  0.95700  Biso   1.000  C
  C7       1.0000 0.17070  0.64590  0.45700  Biso   1.000  C
  C8       1.0000 0.17070  0.35410  0.95700  Biso   1.000  C
  C9       1.0000 0.73020  0.15990  0.58830  Biso   1.000  C
  C10      1.0000 0.73020  0.84010  0.08830  Biso   1.000  C
  C11      1.0000 0.23020  0.65990  0.58830  Biso   1.000  C
  C12      1.0000 0.23020  0.34010  0.08830  Biso   1.000  C
  H9       1.0000 0.77470  0.20260  0.61210  Biso   1.000  H
  H10      1.0000 0.77470  0.79740  0.11210  Biso   1.000  H
  H11      1.0000 0.27470  0.70260  0.61210  Biso   1.000  H
  H12      1.0000 0.27470  0.29740  0.11210  Biso   1.000  H
  C13      1.0000 0.72420  0.11150  0.68330  Biso   1.000  C
  C14      1.0000 0.72420  0.88850  0.18330  Biso   1.000  C
  C15      1.0000 0.22420  0.61150  0.68330  Biso   1.000  C
  C16      1.0000 0.22420  0.38850  0.18330  Biso   1.000  C
  H13      1.0000 0.76440  0.12200  0.77160  Biso   1.000  H
  H14      1.0000 0.76440  0.87800  0.27160  Biso   1.000  H
  H15      1.0000 0.26440  0.62200  0.77160  Biso   1.000  H
  H16      1.0000 0.26440  0.37800  0.27160  Biso   1.000  H
  C17      1.0000 0.65890  0.04690  0.65030  Biso   1.000  C
  C18      1.0000 0.65890  0.95310  0.15030  Biso   1.000  C
  C19      1.0000 0.15890  0.54690  0.65030  Biso   1.000  C
  C20      1.0000 0.15890  0.45310  0.15030  Biso   1.000  C
  H17      1.0000 0.65680  0.01310  0.71620  Biso   1.000  H
  H18      1.0000 0.65680  0.98690  0.21620  Biso   1.000  H
  H19      1.0000 0.15680  0.51310  0.71620  Biso   1.000  H
  H20      1.0000 0.15680  0.48690  0.21620  Biso   1.000  H
  C21      1.0000 0.59720  0.03270  0.52050  Biso   1.000  C
  C22      1.0000 0.59720  0.96730  0.02050  Biso   1.000  C
  C23      1.0000 0.09720  0.53270  0.52050  Biso   1.000  C
  C24      1.0000 0.09720  0.46730  0.02050  Biso   1.000  C
  C25      1.0000 0.60330  0.08280  0.42360  Biso   1.000  C
  C26      1.0000 0.60330  0.91720  0.92360  Biso   1.000  C
  C27      1.0000 0.10330  0.58280  0.42360  Biso   1.000  C
  C28      1.0000 0.10330  0.41720  0.92360  Biso   1.000  C
  H21      1.0000 0.56170  0.07420  0.33540  Biso   1.000  H
  H22      1.0000 0.56170  0.92580  0.83540  Biso   1.000  H
  H23      1.0000 0.06170  0.57420  0.33540  Biso   1.000  H
  H24      1.0000 0.06170  0.42580  0.83540  Biso   1.000  H
  C29      1.0000 0.52410  0.96470  0.48290  Biso   1.000  C
  C30      1.0000 0.52410  0.03530  0.98290  Biso   1.000  C
  C31      1.0000 0.02410  0.46470  0.48290  Biso   1.000  C
  C32      1.0000 0.02410  0.53530  0.98290  Biso   1.000  C
  H25      1.0000 0.53210  0.93370  0.56150  Biso   1.000  H
  H26      1.0000 0.53210  0.06630  0.06150  Biso   1.000  H
  H27      1.0000 0.03210  0.43370  0.56150  Biso   1.000  H
  H28      1.0000 0.03210  0.56630  0.06150  Biso   1.000  H
  H29      1.0000 0.46740  0.99540  0.44450  Biso   1.000  H
  H30      1.0000 0.46740  0.00460  0.94450  Biso   1.000  H
  H31      1.0000 0.96740  0.49540  0.44450  Biso   1.000  H
  H32      1.0000 0.96740  0.50460  0.94450  Biso   1.000  H
  C33      1.0000 0.58900  0.83750  0.42800  Biso   1.000  C
  C34      1.0000 0.58900  0.16250  0.92800  Biso   1.000  C
  C35      1.0000 0.08900  0.33750  0.42800  Biso   1.000  C
  C36      1.0000 0.08900  0.66250  0.92800  Biso   1.000  C
  H33      1.0000 0.63120  0.83490  0.51690  Biso   1.000  H
  H34      1.0000 0.63120  0.16510  0.01690  Biso   1.000  H
  H35      1.0000 0.13120  0.33490  0.51690  Biso   1.000  H
  H36      1.0000 0.13120  0.66510  0.01690  Biso   1.000  H
  C37      1.0000 0.59460  0.77940  0.34160  Biso   1.000  C
  C38      1.0000 0.59460  0.22060  0.84160  Biso   1.000  C
  C39      1.0000 0.09460  0.27940  0.34160  Biso   1.000  C
  C40      1.0000 0.09460  0.72060  0.84160  Biso   1.000  C
  H37      1.0000 0.64060  0.73780  0.37190  Biso   1.000  H
  H38      1.0000 0.64060  0.26220  0.87190  Biso   1.000  H
  H39      1.0000 0.14060  0.23780  0.37190  Biso   1.000  H
  H40      1.0000 0.14060  0.76220  0.87190  Biso   1.000  H
  C41      1.0000 0.53170  0.78200  0.20790  Biso   1.000  C
  C42      1.0000 0.53170  0.21800  0.70790  Biso   1.000  C
  C43      1.0000 0.03170  0.28200  0.20790  Biso   1.000  C
  C44      1.0000 0.03170  0.71800  0.70790  Biso   1.000  C
  C45      1.0000 0.46340  0.84460  0.16930  Biso   1.000  C
  C46      1.0000 0.46340  0.15540  0.66930  Biso   1.000  C
  C47      1.0000 0.96340  0.34460  0.16930  Biso   1.000  C
  C48      1.0000 0.96340  0.65540  0.66930  Biso   1.000  C
  H41      1.0000 0.41930  0.84790  0.08160  Biso   1.000  H
  H42      1.0000 0.41930  0.15210  0.58160  Biso   1.000  H
  H43      1.0000 0.91930  0.34790  0.08160  Biso   1.000  H
  H44      1.0000 0.91930  0.65210  0.58160  Biso   1.000  H
  C49      1.0000 0.46110  0.90090  0.25990  Biso   1.000  C
  C50      1.0000 0.46110  0.09910  0.75990  Biso   1.000  C
  C51      1.0000 0.96110  0.40090  0.25990  Biso   1.000  C
  C52      1.0000 0.96110  0.59910  0.75990  Biso   1.000  C
  H45      1.0000 0.41490  0.94200  0.23290  Biso   1.000  H
  H46      1.0000 0.41490  0.05800  0.73290  Biso   1.000  H
  H47      1.0000 0.91490  0.44200  0.23290  Biso   1.000  H
  H48      1.0000 0.91490  0.55800  0.73290  Biso   1.000  H
  C53      1.0000 0.53860  0.72260  0.11010  Biso   1.000  C
  C54      1.0000 0.53860  0.27740  0.61010  Biso   1.000  C
  C55      1.0000 0.03860  0.22260  0.11010  Biso   1.000  C
  C56      1.0000 0.03860  0.77740  0.61010  Biso   1.000  C
  C57      1.0000 0.48400  0.73210  0.97680  Biso   1.000  C
  C58      1.0000 0.48400  0.26790  0.47680  Biso   1.000  C
  C59      1.0000 0.98400  0.23210  0.97680  Biso   1.000  C
  C60      1.0000 0.98400  0.76790  0.47680  Biso   1.000  C
  H49      1.0000 0.43910  0.77490  0.94610  Biso   1.000  H
  H50      1.0000 0.43910  0.22510  0.44610  Biso   1.000  H
  H51      1.0000 0.93910  0.27490  0.94610  Biso   1.000  H
  H52      1.0000 0.93910  0.72510  0.44610  Biso   1.000  H
  C61      1.0000 0.49430  0.68030  0.88900  Biso   1.000  C
  C62      1.0000 0.49430  0.31970  0.38900  Biso   1.000  C
  C63      1.0000 0.99430  0.18030  0.88900  Biso   1.000  C
  C64      1.0000 0.99430  0.81970  0.38900  Biso   1.000  C
  H53      1.0000 0.45600  0.68770  0.79920  Biso   1.000  H
  H54      1.0000 0.45600  0.31230  0.29920  Biso   1.000  H
  H55      1.0000 0.95600  0.18770  0.79920  Biso   1.000  H
  H56      1.0000 0.95600  0.81230  0.29920  Biso   1.000  H
  C65      1.0000 0.61180  0.60630  0.05830  Biso   1.000  C
  C66      1.0000 0.61180  0.39370  0.55830  Biso   1.000  C
  C67      1.0000 0.11180  0.10630  0.05830  Biso   1.000  C
  C68      1.0000 0.11180  0.89370  0.55830  Biso   1.000  C
  H57      1.0000 0.65540  0.56220  0.08620  Biso   1.000  H
  H58      1.0000 0.65540  0.43780  0.58620  Biso   1.000  H
  H59      1.0000 0.15540  0.06220  0.08620  Biso   1.000  H
  H60      1.0000 0.15540  0.93780  0.58620  Biso   1.000  H
  C69      1.0000 0.60400  0.65650  0.15020  Biso   1.000  C
  C70      1.0000 0.60400  0.34350  0.65020  Biso   1.000  C
  C71      1.0000 0.10400  0.15650  0.15020  Biso   1.000  C
  C72      1.0000 0.10400  0.84350  0.65020  Biso   1.000  C
  H61      1.0000 0.64200  0.64680  0.23950  Biso   1.000  H
  H62      1.0000 0.64200  0.35320  0.73950  Biso   1.000  H
  H63      1.0000 0.14200  0.14680  0.23950  Biso   1.000  H
  H64      1.0000 0.14200  0.85320  0.73950  Biso   1.000  H
  C73      1.0000 0.57130  0.56590  0.82990  Biso   1.000  C
  C74      1.0000 0.57130  0.43410  0.32990  Biso   1.000  C
  C75      1.0000 0.07130  0.06590  0.82990  Biso   1.000  C
  C76      1.0000 0.07130  0.93410  0.32990  Biso   1.000  C
  H65      1.0000 0.62000  0.52420  0.87550  Biso   1.000  H
  H66      1.0000 0.62000  0.47580  0.37550  Biso   1.000  H
  H67      1.0000 0.12000  0.02420  0.87550  Biso   1.000  H
  H68      1.0000 0.12000  0.97580  0.37550  Biso   1.000  H
  H69      1.0000 0.58710  0.60640  0.77910  Biso   1.000  H
  H70      1.0000 0.58710  0.39360  0.27910  Biso   1.000  H
  H71      1.0000 0.08710  0.10640  0.77910  Biso   1.000  H
  H72      1.0000 0.08710  0.89360  0.27910  Biso   1.000  H
  C77      1.0000 0.48910  0.51440  0.73720  Biso   1.000  C
  C78      1.0000 0.48910  0.48560  0.23720  Biso   1.000  C
  C79      1.0000 0.98910  0.01440  0.73720  Biso   1.000  C
  C80      1.0000 0.98910  0.98560  0.23720  Biso   1.000  C
  C81      1.0000 0.44110  0.53990  0.60640  Biso   1.000  C
  C82      1.0000 0.44110  0.46010  0.10640  Biso   1.000  C
  C83      1.0000 0.94110  0.03990  0.60640  Biso   1.000  C
  C84      1.0000 0.94110  0.96010  0.10640  Biso   1.000  C
  H73      1.0000 0.46000  0.58820  0.57560  Biso   1.000  H
  H74      1.0000 0.46000  0.41180  0.07560  Biso   1.000  H
  H75      1.0000 0.96000  0.08820  0.57560  Biso   1.000  H
  H76      1.0000 0.96000  0.91180  0.07560  Biso   1.000  H
  C85      1.0000 0.36520  0.49370  0.52150  Biso   1.000  C
  C86      1.0000 0.36520  0.50630  0.02150  Biso   1.000  C
  C87      1.0000 0.86520  0.99370  0.52150  Biso   1.000  C
  C88      1.0000 0.86520  0.00630  0.02150  Biso   1.000  C
  H77      1.0000 0.33410  0.50970  0.43290  Biso   1.000  H
  H78      1.0000 0.33410  0.49030  0.93290  Biso   1.000  H
  H79      1.0000 0.83410  0.00970  0.43290  Biso   1.000  H
  H80      1.0000 0.83410  0.99030  0.93290  Biso   1.000  H
  C89      1.0000 0.33570  0.42390  0.56790  Biso   1.000  C
  C90      1.0000 0.33570  0.57610  0.06790  Biso   1.000  C
  C91      1.0000 0.83570  0.92390  0.56790  Biso   1.000  C
  C92      1.0000 0.83570  0.07610  0.06790  Biso   1.000  C
  H81      1.0000 0.28300  0.39480  0.51130  Biso   1.000  H
  H82      1.0000 0.28300  0.60520  0.01130  Biso   1.000  H
  H83      1.0000 0.78300  0.89480  0.51130  Biso   1.000  H
  H84      1.0000 0.78300  0.10520  0.01130  Biso   1.000  H
  C93      1.0000 0.38350  0.39670  0.69770  Biso   1.000  C
  C94      1.0000 0.38350  0.60330  0.19770  Biso   1.000  C
  C95      1.0000 0.88350  0.89670  0.69770  Biso   1.000  C
  C96      1.0000 0.88350  0.10330  0.19770  Biso   1.000  C
  C97      1.0000 0.46120  0.44270  0.78180  Biso   1.000  C
  C98      1.0000 0.46120  0.55730  0.28180  Biso   1.000  C
  C99      1.0000 0.96120  0.94270  0.78180  Biso   1.000  C
  C100     1.0000 0.96120  0.05730  0.28180  Biso   1.000  C
  H85      1.0000 0.49450  0.42450  0.86910  Biso   1.000  H
  H86      1.0000 0.49450  0.57550  0.36910  Biso   1.000  H
  H87      1.0000 0.99450  0.92450  0.86910  Biso   1.000  H
  H88      1.0000 0.99450  0.07550  0.36910  Biso   1.000  H
  C101     1.0000 0.35460  0.31820  0.74870  Biso   1.000  C
  C102     1.0000 0.35460  0.68180  0.24870  Biso   1.000  C
  C103     1.0000 0.85460  0.81820  0.74870  Biso   1.000  C
  C104     1.0000 0.85460  0.18180  0.24870  Biso   1.000  C
  Cl5      1.0000 0.32101  0.89165  0.82117  Biso   1.000  Cl
  Cl6      1.0000 0.32101  0.10835  0.32117  Biso   1.000  Cl
  Cl7      1.0000 0.82101  0.39165  0.82117  Biso   1.000  Cl
  Cl8      1.0000 0.82101  0.60835  0.32117  Biso   1.000  Cl
  O21      1.0000 0.45030  0.24050  0.10850  Biso   1.000  O
  O22      1.0000 0.45030  0.75950  0.60850  Biso   1.000  O
  O23      1.0000 0.95030  0.74050  0.10850  Biso   1.000  O
  O24      1.0000 0.95030  0.25950  0.60850  Biso   1.000  O
  H89      1.0000 0.43270  0.24970  0.03000  Biso   1.000  H
  H90      1.0000 0.43270  0.75030  0.53000  Biso   1.000  H
  H91      1.0000 0.93270  0.74970  0.03000  Biso   1.000  H
  H92      1.0000 0.93270  0.25030  0.53000  Biso   1.000  H
  H93      1.0000 0.50410  0.23300  0.14270  Biso   1.000  H
  H94      1.0000 0.50410  0.76700  0.64270  Biso   1.000  H
  H95      1.0000 0.00410  0.73300  0.14270  Biso   1.000  H
  H96      1.0000 0.00410  0.26700  0.64270  Biso   1.000  H
  O25      1.0000 0.37090  0.91240  0.60610  Biso   1.000  O
  O26      1.0000 0.37090  0.08760  0.10610  Biso   1.000  O
  O27      1.0000 0.87090  0.41240  0.60610  Biso   1.000  O
  O28      1.0000 0.87090  0.58760  0.10610  Biso   1.000  O
  H97      1.0000 0.40200  0.86820  0.61650  Biso   1.000  H
  H98      1.0000 0.40200  0.13180  0.11650  Biso   1.000  H
  H99      1.0000 0.90200  0.36820  0.61650  Biso   1.000  H
  H100     1.0000 0.90200  0.63180  0.11650  Biso   1.000  H
  H101     1.0000 0.34910  0.90610  0.65460  Biso   1.000  H
  H102     1.0000 0.34910  0.09390  0.15460  Biso   1.000  H
  H103     1.0000 0.84910  0.40610  0.65460  Biso   1.000  H
  H104     1.0000 0.84910  0.59390  0.15460  Biso   1.000  H
