data_image0
_cell_length_a       16.547
_cell_length_b       4.2114
_cell_length_c       21.404
_cell_angle_alpha    90
_cell_angle_beta     93.143
_cell_angle_gamma    90

_symmetry_space_group_name_H-M    "P 1"
_symmetry_int_tables_number       1

loop_
  _symmetry_equiv_pos_as_xyz
  'x, y, z'

loop_
  _atom_site_label
  _atom_site_occupancy
  _atom_site_fract_x
  _atom_site_fract_y
  _atom_site_fract_z
  _atom_site_thermal_displace_type
  _atom_site_B_iso_or_equiv
  _atom_site_type_symbol
  Cu1      1.0000 0.25000  0.25000  0.50000  Biso   1.000  Cu
  Cu2      1.0000 0.75000  0.75000  0.50000  Biso   1.000  Cu
  Cu3      1.0000 0.75000  0.25000  0.00000  Biso   1.000  Cu
  Cu4      1.0000 0.25000  0.75000  0.00000  Biso   1.000  Cu
  S1       1.0000 0.09127  0.52140  0.76486  Biso   1.000  S
  S2       1.0000 0.59127  0.02140  0.76486  Biso   1.000  S
  S3       1.0000 0.90873  0.52140  0.73514  Biso   1.000  S
  S4       1.0000 0.40873  0.02140  0.73514  Biso   1.000  S
  S5       1.0000 0.90873  0.47860  0.23514  Biso   1.000  S
  S6       1.0000 0.40873  0.97860  0.23514  Biso   1.000  S
  S7       1.0000 0.09127  0.47860  0.26486  Biso   1.000  S
  S8       1.0000 0.59127  0.97860  0.26486  Biso   1.000  S
  N1       1.0000 0.19080  0.28200  0.57850  Biso   1.000  N
  N2       1.0000 0.69080  0.78200  0.57850  Biso   1.000  N
  N3       1.0000 0.80920  0.28200  0.92150  Biso   1.000  N
  N4       1.0000 0.30920  0.78200  0.92150  Biso   1.000  N
  N5       1.0000 0.80920  0.71800  0.42150  Biso   1.000  N
  N6       1.0000 0.30920  0.21800  0.42150  Biso   1.000  N
  N7       1.0000 0.19080  0.71800  0.07850  Biso   1.000  N
  N8       1.0000 0.69080  0.21800  0.07850  Biso   1.000  N
  C1       1.0000 0.11910  0.43000  0.58070  Biso   1.000  C
  C2       1.0000 0.61910  0.93000  0.58070  Biso   1.000  C
  C3       1.0000 0.88090  0.43000  0.91930  Biso   1.000  C
  C4       1.0000 0.38090  0.93000  0.91930  Biso   1.000  C
  C5       1.0000 0.88090  0.57000  0.41930  Biso   1.000  C
  C6       1.0000 0.38090  0.07000  0.41930  Biso   1.000  C
  C7       1.0000 0.11910  0.57000  0.08070  Biso   1.000  C
  C8       1.0000 0.61910  0.07000  0.08070  Biso   1.000  C
  H1       1.0000 0.09290  0.48780  0.54280  Biso   1.000  H
  H2       1.0000 0.59290  0.98780  0.54280  Biso   1.000  H
  H3       1.0000 0.90710  0.48780  0.95720  Biso   1.000  H
  H4       1.0000 0.40710  0.98780  0.95720  Biso   1.000  H
  H5       1.0000 0.90710  0.51220  0.45720  Biso   1.000  H
  H6       1.0000 0.40710  0.01220  0.45720  Biso   1.000  H
  H7       1.0000 0.09290  0.51220  0.04280  Biso   1.000  H
  H8       1.0000 0.59290  0.01220  0.04280  Biso   1.000  H
  C9       1.0000 0.08170  0.50200  0.63460  Biso   1.000  C
  C10      1.0000 0.58170  0.00200  0.63460  Biso   1.000  C
  C11      1.0000 0.91830  0.50200  0.86540  Biso   1.000  C
  C12      1.0000 0.41830  0.00200  0.86540  Biso   1.000  C
  C13      1.0000 0.91830  0.49800  0.36540  Biso   1.000  C
  C14      1.0000 0.41830  0.99800  0.36540  Biso   1.000  C
  C15      1.0000 0.08170  0.49800  0.13460  Biso   1.000  C
  C16      1.0000 0.58170  0.99800  0.13460  Biso   1.000  C
  H9       1.0000 0.03140  0.60190  0.63330  Biso   1.000  H
  H10      1.0000 0.53140  0.10190  0.63330  Biso   1.000  H
  H11      1.0000 0.96860  0.60190  0.86670  Biso   1.000  H
  H12      1.0000 0.46860  0.10190  0.86670  Biso   1.000  H
  H13      1.0000 0.96860  0.39810  0.36670  Biso   1.000  H
  H14      1.0000 0.46860  0.89810  0.36670  Biso   1.000  H
  H15      1.0000 0.03140  0.39810  0.13330  Biso   1.000  H
  H16      1.0000 0.53140  0.89810  0.13330  Biso   1.000  H
  C17      1.0000 0.12170  0.42080  0.69090  Biso   1.000  C
  C18      1.0000 0.62170  0.92080  0.69090  Biso   1.000  C
  C19      1.0000 0.87830  0.42080  0.80910  Biso   1.000  C
  C20      1.0000 0.37830  0.92080  0.80910  Biso   1.000  C
  C21      1.0000 0.87830  0.57920  0.30910  Biso   1.000  C
  C22      1.0000 0.37830  0.07920  0.30910  Biso   1.000  C
  C23      1.0000 0.12170  0.57920  0.19090  Biso   1.000  C
  C24      1.0000 0.62170  0.07920  0.19090  Biso   1.000  C
  C25      1.0000 0.19290  0.25100  0.68840  Biso   1.000  C
  C26      1.0000 0.69290  0.75100  0.68840  Biso   1.000  C
  C27      1.0000 0.80710  0.25100  0.81160  Biso   1.000  C
  C28      1.0000 0.30710  0.75100  0.81160  Biso   1.000  C
  C29      1.0000 0.80710  0.74900  0.31160  Biso   1.000  C
  C30      1.0000 0.30710  0.24900  0.31160  Biso   1.000  C
  C31      1.0000 0.19290  0.74900  0.18840  Biso   1.000  C
  C32      1.0000 0.69290  0.24900  0.18840  Biso   1.000  C
  H17      1.0000 0.21900  0.17920  0.72530  Biso   1.000  H
  H18      1.0000 0.71900  0.67920  0.72530  Biso   1.000  H
  H19      1.0000 0.78100  0.17920  0.77470  Biso   1.000  H
  H20      1.0000 0.28100  0.67920  0.77470  Biso   1.000  H
  H21      1.0000 0.78100  0.82080  0.27470  Biso   1.000  H
  H22      1.0000 0.28100  0.32080  0.27470  Biso   1.000  H
  H23      1.0000 0.21900  0.82080  0.22530  Biso   1.000  H
  H24      1.0000 0.71900  0.32080  0.22530  Biso   1.000  H
  C33      1.0000 0.22500  0.18900  0.63340  Biso   1.000  C
  C34      1.0000 0.72500  0.68900  0.63340  Biso   1.000  C
  C35      1.0000 0.77500  0.18900  0.86660  Biso   1.000  C
  C36      1.0000 0.27500  0.68900  0.86660  Biso   1.000  C
  C37      1.0000 0.77500  0.81100  0.36660  Biso   1.000  C
  C38      1.0000 0.27500  0.31100  0.36660  Biso   1.000  C
  C39      1.0000 0.22500  0.81100  0.13340  Biso   1.000  C
  C40      1.0000 0.72500  0.31100  0.13340  Biso   1.000  C
  H25      1.0000 0.27320  0.07500  0.63360  Biso   1.000  H
  H26      1.0000 0.77320  0.57500  0.63360  Biso   1.000  H
  H27      1.0000 0.72680  0.07500  0.86640  Biso   1.000  H
  H28      1.0000 0.22680  0.57500  0.86640  Biso   1.000  H
  H29      1.0000 0.72680  0.92500  0.36640  Biso   1.000  H
  H30      1.0000 0.22680  0.42500  0.36640  Biso   1.000  H
  H31      1.0000 0.27320  0.92500  0.13360  Biso   1.000  H
  H32      1.0000 0.77320  0.42500  0.13360  Biso   1.000  H
  C41      1.0000 0.00000  0.75200  0.75000  Biso   1.000  C
  C42      1.0000 0.50000  0.25200  0.75000  Biso   1.000  C
  C43      1.0000 0.00000  0.24800  0.25000  Biso   1.000  C
  C44      1.0000 0.50000  0.74800  0.25000  Biso   1.000  C
  H33      1.0000 0.99270  0.88800  0.78580  Biso   1.000  H
  H34      1.0000 0.49270  0.38800  0.78580  Biso   1.000  H
  H35      1.0000 0.00730  0.88800  0.71420  Biso   1.000  H
  H36      1.0000 0.50730  0.38800  0.71420  Biso   1.000  H
  H37      1.0000 0.00730  0.11200  0.21420  Biso   1.000  H
  H38      1.0000 0.50730  0.61200  0.21420  Biso   1.000  H
  H39      1.0000 0.99270  0.11200  0.28580  Biso   1.000  H
  H40      1.0000 0.49270  0.61200  0.28580  Biso   1.000  H
  C45      1.0000 0.38410  0.54300  0.56430  Biso   1.000  C
  C46      1.0000 0.88410  0.04300  0.56430  Biso   1.000  C
  C47      1.0000 0.61590  0.54300  0.93570  Biso   1.000  C
  C48      1.0000 0.11590  0.04300  0.93570  Biso   1.000  C
  C49      1.0000 0.61590  0.45700  0.43570  Biso   1.000  C
  C50      1.0000 0.11590  0.95700  0.43570  Biso   1.000  C
  C51      1.0000 0.38410  0.45700  0.06430  Biso   1.000  C
  C52      1.0000 0.88410  0.95700  0.06430  Biso   1.000  C
  H41      1.0000 0.41540  0.71860  0.57570  Biso   1.000  H
  H42      1.0000 0.91540  0.21860  0.57570  Biso   1.000  H
  H43      1.0000 0.58460  0.71860  0.92430  Biso   1.000  H
  H44      1.0000 0.08460  0.21860  0.92430  Biso   1.000  H
  H45      1.0000 0.58460  0.28140  0.42430  Biso   1.000  H
  H46      1.0000 0.08460  0.78140  0.42430  Biso   1.000  H
  H47      1.0000 0.41540  0.28140  0.07570  Biso   1.000  H
  H48      1.0000 0.91540  0.78140  0.07570  Biso   1.000  H
  O1       1.0000 0.32050  0.60720  0.53250  Biso   1.000  O
  O2       1.0000 0.82050  0.10720  0.53250  Biso   1.000  O
  O3       1.0000 0.67950  0.60720  0.96750  Biso   1.000  O
  O4       1.0000 0.17950  0.10720  0.96750  Biso   1.000  O
  O5       1.0000 0.67950  0.39280  0.46750  Biso   1.000  O
  O6       1.0000 0.17950  0.89280  0.46750  Biso   1.000  O
  O7       1.0000 0.32050  0.39280  0.03250  Biso   1.000  O
  O8       1.0000 0.82050  0.89280  0.03250  Biso   1.000  O
  O9       1.0000 0.41070  0.30400  0.58200  Biso   1.000  O
  O10      1.0000 0.91070  0.80400  0.58200  Biso   1.000  O
  O11      1.0000 0.58930  0.30400  0.91800  Biso   1.000  O
  O12      1.0000 0.08930  0.80400  0.91800  Biso   1.000  O
  O13      1.0000 0.58930  0.69600  0.41800  Biso   1.000  O
  O14      1.0000 0.08930  0.19600  0.41800  Biso   1.000  O
  O15      1.0000 0.41070  0.69600  0.08200  Biso   1.000  O
  O16      1.0000 0.91070  0.19600  0.08200  Biso   1.000  O
