data_image0
_cell_length_a       6.8518
_cell_length_b       22.723
_cell_length_c       10.5244
_cell_angle_alpha    90
_cell_angle_beta     98.435
_cell_angle_gamma    90

_symmetry_space_group_name_H-M    "P 1"
_symmetry_int_tables_number       1

loop_
  _symmetry_equiv_pos_as_xyz
  'x, y, z'

loop_
  _atom_site_label
  _atom_site_occupancy
  _atom_site_fract_x
  _atom_site_fract_y
  _atom_site_fract_z
  _atom_site_thermal_displace_type
  _atom_site_B_iso_or_equiv
  _atom_site_type_symbol
  Cu1      1.0000 0.77790  0.25681  0.92740  Biso   1.000  Cu
  Cu2      1.0000 0.72210  0.75681  0.57260  Biso   1.000  Cu
  Cu3      1.0000 0.22210  0.74319  0.07260  Biso   1.000  Cu
  Cu4      1.0000 0.27790  0.24319  0.42740  Biso   1.000  Cu
  N1       1.0000 0.05650  0.24822  0.98764  Biso   1.000  N
  N2       1.0000 0.44350  0.74822  0.51236  Biso   1.000  N
  N3       1.0000 0.94350  0.75178  0.01236  Biso   1.000  N
  N4       1.0000 0.55650  0.25178  0.48764  Biso   1.000  N
  N5       1.0000 0.82647  0.34492  0.98150  Biso   1.000  N
  N6       1.0000 0.67353  0.84492  0.51850  Biso   1.000  N
  N7       1.0000 0.17353  0.65508  0.01850  Biso   1.000  N
  N8       1.0000 0.32647  0.15508  0.48150  Biso   1.000  N
  N9       1.0000 0.51920  0.27504  0.82841  Biso   1.000  N
  N10      1.0000 0.98080  0.77504  0.67159  Biso   1.000  N
  N11      1.0000 0.48080  0.72496  0.17159  Biso   1.000  N
  N12      1.0000 0.01920  0.22496  0.32841  Biso   1.000  N
  O1       1.0000 0.74810  0.17794  0.86847  Biso   1.000  O
  O2       1.0000 0.75190  0.67794  0.63153  Biso   1.000  O
  O3       1.0000 0.25190  0.82206  0.13153  Biso   1.000  O
  O4       1.0000 0.24810  0.32206  0.36847  Biso   1.000  O
  O5       1.0000 0.31380  0.00499  0.87140  Biso   1.000  O
  O6       1.0000 0.18620  0.50499  0.62860  Biso   1.000  O
  O7       1.0000 0.68620  0.99501  0.12860  Biso   1.000  O
  O8       1.0000 0.81380  0.49501  0.37140  Biso   1.000  O
  O9       1.0000 0.72180  0.46783  0.93411  Biso   1.000  O
  O10      1.0000 0.77820  0.96783  0.56589  Biso   1.000  O
  O11      1.0000 0.27820  0.53217  0.06589  Biso   1.000  O
  O12      1.0000 0.22180  0.03217  0.43411  Biso   1.000  O
  S1       1.0000 0.15980  0.27762  0.66718  Biso   1.000  S
  S2       1.0000 0.34020  0.77762  0.83282  Biso   1.000  S
  S3       1.0000 0.84020  0.72238  0.33282  Biso   1.000  S
  S4       1.0000 0.65980  0.22238  0.16718  Biso   1.000  S
  C1       1.0000 0.08700  0.14696  0.92333  Biso   1.000  C
  C2       1.0000 0.41300  0.64696  0.57667  Biso   1.000  C
  C3       1.0000 0.91300  0.85304  0.07667  Biso   1.000  C
  C4       1.0000 0.58700  0.35304  0.42333  Biso   1.000  C
  C5       1.0000 0.88510  0.13739  0.87616  Biso   1.000  C
  C6       1.0000 0.61490  0.63739  0.62384  Biso   1.000  C
  C7       1.0000 0.11490  0.86261  0.12384  Biso   1.000  C
  C8       1.0000 0.38510  0.36261  0.37616  Biso   1.000  C
  C9       1.0000 0.83200  0.07990  0.83543  Biso   1.000  C
  C10      1.0000 0.66800  0.57990  0.66457  Biso   1.000  C
  C11      1.0000 0.16800  0.92010  0.16457  Biso   1.000  C
  C12      1.0000 0.33200  0.42010  0.33543  Biso   1.000  C
  H1       1.0000 0.69980  0.07160  0.80750  Biso   1.000  H
  H2       1.0000 0.80020  0.57160  0.69250  Biso   1.000  H
  H3       1.0000 0.30020  0.92840  0.19250  Biso   1.000  H
  H4       1.0000 0.19980  0.42840  0.30750  Biso   1.000  H
  C13      1.0000 0.96820  0.03569  0.83550  Biso   1.000  C
  C14      1.0000 0.53180  0.53569  0.66450  Biso   1.000  C
  C15      1.0000 0.03180  0.96431  0.16450  Biso   1.000  C
  C16      1.0000 0.46820  0.46431  0.33550  Biso   1.000  C
  H5       1.0000 0.92690  0.99820  0.80820  Biso   1.000  H
  H6       1.0000 0.57310  0.49820  0.69180  Biso   1.000  H
  H7       1.0000 0.07310  0.00180  0.19180  Biso   1.000  H
  H8       1.0000 0.42690  0.50180  0.30820  Biso   1.000  H
  C17      1.0000 0.16710  0.04631  0.87581  Biso   1.000  C
  C18      1.0000 0.33290  0.54631  0.62419  Biso   1.000  C
  C19      1.0000 0.83290  0.95369  0.12419  Biso   1.000  C
  C20      1.0000 0.66710  0.45369  0.37581  Biso   1.000  C
  C21      1.0000 0.22480  0.10101  0.92017  Biso   1.000  C
  C22      1.0000 0.27520  0.60101  0.57983  Biso   1.000  C
  C23      1.0000 0.77520  0.89899  0.07983  Biso   1.000  C
  C24      1.0000 0.72480  0.39899  0.42017  Biso   1.000  C
  H9       1.0000 0.35760  0.10810  0.94890  Biso   1.000  H
  H10      1.0000 0.14240  0.60810  0.55110  Biso   1.000  H
  H11      1.0000 0.64240  0.89190  0.05110  Biso   1.000  H
  H12      1.0000 0.85760  0.39190  0.44890  Biso   1.000  H
  C25      1.0000 0.25590  0.94653  0.84250  Biso   1.000  C
  C26      1.0000 0.24410  0.44653  0.65750  Biso   1.000  C
  C27      1.0000 0.74410  0.05347  0.15750  Biso   1.000  C
  C28      1.0000 0.75590  0.55347  0.34250  Biso   1.000  C
  H13      1.0000 0.16280  0.93440  0.89710  Biso   1.000  H
  H14      1.0000 0.33720  0.43440  0.60290  Biso   1.000  H
  H15      1.0000 0.83720  0.06560  0.10290  Biso   1.000  H
  H16      1.0000 0.66280  0.56560  0.39710  Biso   1.000  H
  H17      1.0000 0.36950  0.92130  0.85620  Biso   1.000  H
  H18      1.0000 0.13050  0.42130  0.64380  Biso   1.000  H
  H19      1.0000 0.63050  0.07870  0.14380  Biso   1.000  H
  H20      1.0000 0.86950  0.57870  0.35620  Biso   1.000  H
  H21      1.0000 0.19570  0.94400  0.75430  Biso   1.000  H
  H22      1.0000 0.30430  0.44400  0.74570  Biso   1.000  H
  H23      1.0000 0.80430  0.05600  0.24570  Biso   1.000  H
  H24      1.0000 0.69570  0.55600  0.25430  Biso   1.000  H
  C29      1.0000 0.16000  0.20218  0.97628  Biso   1.000  C
  C30      1.0000 0.34000  0.70218  0.52372  Biso   1.000  C
  C31      1.0000 0.84000  0.79782  0.02372  Biso   1.000  C
  C32      1.0000 0.66000  0.29782  0.47628  Biso   1.000  C
  H25      1.0000 0.29470  0.20480  0.00500  Biso   1.000  H
  H26      1.0000 0.20530  0.70480  0.49500  Biso   1.000  H
  H27      1.0000 0.70530  0.79520  0.99500  Biso   1.000  H
  H28      1.0000 0.79470  0.29520  0.50500  Biso   1.000  H
  C33      1.0000 0.15620  0.30194  0.04023  Biso   1.000  C
  C34      1.0000 0.34380  0.80194  0.45977  Biso   1.000  C
  C35      1.0000 0.84380  0.69806  0.95977  Biso   1.000  C
  C36      1.0000 0.65620  0.19806  0.54023  Biso   1.000  C
  H29      1.0000 0.22220  0.32080  0.97560  Biso   1.000  H
  H30      1.0000 0.27780  0.82080  0.52440  Biso   1.000  H
  H31      1.0000 0.77780  0.67920  0.02440  Biso   1.000  H
  H32      1.0000 0.72220  0.17920  0.47560  Biso   1.000  H
  H33      1.0000 0.25450  0.29230  0.11330  Biso   1.000  H
  H34      1.0000 0.24550  0.79230  0.38670  Biso   1.000  H
  H35      1.0000 0.74550  0.70770  0.88670  Biso   1.000  H
  H36      1.0000 0.75450  0.20770  0.61330  Biso   1.000  H
  C37      1.0000 0.00380  0.34293  0.08123  Biso   1.000  C
  C38      1.0000 0.49620  0.84293  0.41877  Biso   1.000  C
  C39      1.0000 0.99620  0.65707  0.91877  Biso   1.000  C
  C40      1.0000 0.50380  0.15707  0.58123  Biso   1.000  C
  H37      1.0000 0.96680  0.32940  0.16180  Biso   1.000  H
  H38      1.0000 0.53320  0.82940  0.33820  Biso   1.000  H
  H39      1.0000 0.03320  0.67060  0.83820  Biso   1.000  H
  H40      1.0000 0.46680  0.17060  0.66180  Biso   1.000  H
  H41      1.0000 0.05910  0.38210  0.09450  Biso   1.000  H
  H42      1.0000 0.44090  0.88210  0.40550  Biso   1.000  H
  H43      1.0000 0.94090  0.61790  0.90550  Biso   1.000  H
  H44      1.0000 0.55910  0.11790  0.59450  Biso   1.000  H
  C41      1.0000 0.86000  0.37762  0.86360  Biso   1.000  C
  C42      1.0000 0.64000  0.87762  0.63640  Biso   1.000  C
  C43      1.0000 0.14000  0.62238  0.13640  Biso   1.000  C
  C44      1.0000 0.36000  0.12238  0.36360  Biso   1.000  C
  H45      1.0000 0.74850  0.37120  0.79690  Biso   1.000  H
  H46      1.0000 0.75150  0.87120  0.70310  Biso   1.000  H
  H47      1.0000 0.25150  0.62880  0.20310  Biso   1.000  H
  H48      1.0000 0.24850  0.12880  0.29690  Biso   1.000  H
  H49      1.0000 0.97650  0.36200  0.83320  Biso   1.000  H
  H50      1.0000 0.52350  0.86200  0.66680  Biso   1.000  H
  H51      1.0000 0.02350  0.63800  0.16680  Biso   1.000  H
  H52      1.0000 0.47650  0.13800  0.33320  Biso   1.000  H
  C45      1.0000 0.88690  0.44299  0.88640  Biso   1.000  C
  C46      1.0000 0.61310  0.94299  0.61360  Biso   1.000  C
  C47      1.0000 0.11310  0.55701  0.11360  Biso   1.000  C
  C48      1.0000 0.38690  0.05701  0.38640  Biso   1.000  C
  H53      1.0000 0.00500  0.44980  0.94760  Biso   1.000  H
  H54      1.0000 0.49500  0.94980  0.55240  Biso   1.000  H
  H55      1.0000 0.99500  0.55020  0.05240  Biso   1.000  H
  H56      1.0000 0.50500  0.05020  0.44760  Biso   1.000  H
  H57      1.0000 0.90410  0.46220  0.80650  Biso   1.000  H
  H58      1.0000 0.59590  0.96220  0.69350  Biso   1.000  H
  H59      1.0000 0.09590  0.53780  0.19350  Biso   1.000  H
  H60      1.0000 0.40410  0.03780  0.30650  Biso   1.000  H
  C49      1.0000 0.69150  0.43985  0.05064  Biso   1.000  C
  C50      1.0000 0.80850  0.93985  0.44936  Biso   1.000  C
  C51      1.0000 0.30850  0.56015  0.94936  Biso   1.000  C
  C52      1.0000 0.19150  0.06015  0.55064  Biso   1.000  C
  H61      1.0000 0.57750  0.45710  0.08120  Biso   1.000  H
  H62      1.0000 0.92250  0.95710  0.41880  Biso   1.000  H
  H63      1.0000 0.42250  0.54290  0.91880  Biso   1.000  H
  H64      1.0000 0.07750  0.04290  0.58120  Biso   1.000  H
  H65      1.0000 0.80550  0.44650  0.11540  Biso   1.000  H
  H66      1.0000 0.69450  0.94650  0.38460  Biso   1.000  H
  H67      1.0000 0.19450  0.55350  0.88460  Biso   1.000  H
  H68      1.0000 0.30550  0.05350  0.61540  Biso   1.000  H
  C53      1.0000 0.65920  0.37439  0.03175  Biso   1.000  C
  C54      1.0000 0.84080  0.87439  0.46825  Biso   1.000  C
  C55      1.0000 0.34080  0.62561  0.96825  Biso   1.000  C
  C56      1.0000 0.15920  0.12561  0.53175  Biso   1.000  C
  H69      1.0000 0.64180  0.35660  0.11320  Biso   1.000  H
  H70      1.0000 0.85820  0.85660  0.38680  Biso   1.000  H
  H71      1.0000 0.35820  0.64340  0.88680  Biso   1.000  H
  H72      1.0000 0.14180  0.14340  0.61320  Biso   1.000  H
  H73      1.0000 0.53900  0.36800  0.97220  Biso   1.000  H
  H74      1.0000 0.96100  0.86800  0.52780  Biso   1.000  H
  H75      1.0000 0.46100  0.63200  0.02780  Biso   1.000  H
  H76      1.0000 0.03900  0.13200  0.47220  Biso   1.000  H
  C57      1.0000 0.37120  0.27631  0.76048  Biso   1.000  C
  C58      1.0000 0.12880  0.77631  0.73952  Biso   1.000  C
  C59      1.0000 0.62880  0.72369  0.23952  Biso   1.000  C
  C60      1.0000 0.87120  0.22369  0.26048  Biso   1.000  C
