data_image0
_cell_length_a       9.8844
_cell_length_b       9.426
_cell_length_c       18.74
_cell_angle_alpha    90
_cell_angle_beta     105.025
_cell_angle_gamma    90

_symmetry_space_group_name_H-M    "P 1"
_symmetry_int_tables_number       1

loop_
  _symmetry_equiv_pos_as_xyz
  'x, y, z'

loop_
  _atom_site_label
  _atom_site_occupancy
  _atom_site_fract_x
  _atom_site_fract_y
  _atom_site_fract_z
  _atom_site_thermal_displace_type
  _atom_site_B_iso_or_equiv
  _atom_site_type_symbol
  Cu1      1.0000 0.67073  0.13775  0.81313  Biso   1.000  Cu
  Cu2      1.0000 0.82927  0.63775  0.68687  Biso   1.000  Cu
  Cu3      1.0000 0.32927  0.86225  0.18687  Biso   1.000  Cu
  Cu4      1.0000 0.17073  0.36225  0.31313  Biso   1.000  Cu
  N1       1.0000 0.72400  0.95220  0.85588  Biso   1.000  N
  N2       1.0000 0.77600  0.45220  0.64412  Biso   1.000  N
  N3       1.0000 0.27600  0.04780  0.14412  Biso   1.000  N
  N4       1.0000 0.22400  0.54780  0.35588  Biso   1.000  N
  N5       1.0000 0.47830  0.04020  0.76394  Biso   1.000  N
  N6       1.0000 0.02170  0.54020  0.73606  Biso   1.000  N
  N7       1.0000 0.52170  0.95980  0.23606  Biso   1.000  N
  N8       1.0000 0.97830  0.45980  0.26394  Biso   1.000  N
  N9       1.0000 0.59400  0.32340  0.77740  Biso   1.000  N
  N10      1.0000 0.90600  0.82340  0.72260  Biso   1.000  N
  N11      1.0000 0.40600  0.67660  0.22260  Biso   1.000  N
  N12      1.0000 0.09400  0.17660  0.27740  Biso   1.000  N
  N13      1.0000 0.65920  0.43150  0.78536  Biso   1.000  N
  N14      1.0000 0.84080  0.93150  0.71464  Biso   1.000  N
  N15      1.0000 0.34080  0.56850  0.21464  Biso   1.000  N
  N16      1.0000 0.15920  0.06850  0.28536  Biso   1.000  N
  N17      1.0000 0.71830  0.53840  0.79090  Biso   1.000  N
  N18      1.0000 0.78170  0.03840  0.70910  Biso   1.000  N
  N19      1.0000 0.28170  0.46160  0.20910  Biso   1.000  N
  N20      1.0000 0.21830  0.96160  0.29090  Biso   1.000  N
  O1       1.0000 0.84230  0.22100  0.86896  Biso   1.000  O
  O2       1.0000 0.65770  0.72100  0.63104  Biso   1.000  O
  O3       1.0000 0.15770  0.77900  0.13104  Biso   1.000  O
  O4       1.0000 0.34230  0.27900  0.36896  Biso   1.000  O
  O5       1.0000 0.35330  0.96720  0.98930  Biso   1.000  O
  O6       1.0000 0.14670  0.46720  0.51070  Biso   1.000  O
  O7       1.0000 0.64670  0.03280  0.01070  Biso   1.000  O
  O8       1.0000 0.85330  0.53280  0.48930  Biso   1.000  O
  O9       1.0000 0.18250  0.08390  0.69089  Biso   1.000  O
  O10      1.0000 0.31750  0.58390  0.80911  Biso   1.000  O
  O11      1.0000 0.81750  0.91610  0.30911  Biso   1.000  O
  O12      1.0000 0.68250  0.41610  0.19089  Biso   1.000  O
  C1       1.0000 0.97140  0.00110  0.90230  Biso   1.000  C
  C2       1.0000 0.52860  0.50110  0.59770  Biso   1.000  C
  C3       1.0000 0.02860  0.99890  0.09770  Biso   1.000  C
  C4       1.0000 0.47140  0.49890  0.40230  Biso   1.000  C
  C5       1.0000 0.95970  0.15030  0.89620  Biso   1.000  C
  C6       1.0000 0.54030  0.65030  0.60380  Biso   1.000  C
  C7       1.0000 0.04030  0.84970  0.10380  Biso   1.000  C
  C8       1.0000 0.45970  0.34970  0.39620  Biso   1.000  C
  C9       1.0000 0.08400  0.22850  0.92410  Biso   1.000  C
  C10      1.0000 0.41600  0.72850  0.57590  Biso   1.000  C
  C11      1.0000 0.91600  0.77150  0.07590  Biso   1.000  C
  C12      1.0000 0.58400  0.27150  0.42410  Biso   1.000  C
  H1       1.0000 0.07980  0.32700  0.92210  Biso   1.000  H
  H2       1.0000 0.42020  0.82700  0.57790  Biso   1.000  H
  H3       1.0000 0.92020  0.67300  0.07790  Biso   1.000  H
  H4       1.0000 0.57980  0.17300  0.42210  Biso   1.000  H
  C13      1.0000 0.20940  0.16560  0.95350  Biso   1.000  C
  C14      1.0000 0.29060  0.66560  0.54650  Biso   1.000  C
  C15      1.0000 0.79060  0.83440  0.04650  Biso   1.000  C
  C16      1.0000 0.70940  0.33440  0.45350  Biso   1.000  C
  H5       1.0000 0.28860  0.22140  0.97110  Biso   1.000  H
  H6       1.0000 0.21140  0.72140  0.52890  Biso   1.000  H
  H7       1.0000 0.71140  0.77860  0.02890  Biso   1.000  H
  H8       1.0000 0.78860  0.27860  0.47110  Biso   1.000  H
  C17      1.0000 0.22110  0.01730  0.95780  Biso   1.000  C
  C18      1.0000 0.27890  0.51730  0.54220  Biso   1.000  C
  C19      1.0000 0.77890  0.98270  0.04220  Biso   1.000  C
  C20      1.0000 0.72110  0.48270  0.45780  Biso   1.000  C
  C21      1.0000 0.10230  0.93750  0.93290  Biso   1.000  C
  C22      1.0000 0.39770  0.43750  0.56710  Biso   1.000  C
  C23      1.0000 0.89770  0.06250  0.06710  Biso   1.000  C
  C24      1.0000 0.60230  0.56250  0.43290  Biso   1.000  C
  H9       1.0000 0.10840  0.83920  0.93630  Biso   1.000  H
  H10      1.0000 0.39160  0.33920  0.56370  Biso   1.000  H
  H11      1.0000 0.89160  0.16080  0.06370  Biso   1.000  H
  H12      1.0000 0.60840  0.66080  0.43630  Biso   1.000  H
  C25      1.0000 0.37110  0.81890  0.99490  Biso   1.000  C
  C26      1.0000 0.12890  0.31890  0.50510  Biso   1.000  C
  C27      1.0000 0.62890  0.18110  0.00510  Biso   1.000  C
  C28      1.0000 0.87110  0.68110  0.49490  Biso   1.000  C
  H13      1.0000 0.30900  0.78000  0.02160  Biso   1.000  H
  H14      1.0000 0.19100  0.28000  0.47840  Biso   1.000  H
  H15      1.0000 0.69100  0.22000  0.97840  Biso   1.000  H
  H16      1.0000 0.80900  0.72000  0.52160  Biso   1.000  H
  H17      1.0000 0.46620  0.79740  0.02050  Biso   1.000  H
  H18      1.0000 0.03380  0.29740  0.47950  Biso   1.000  H
  H19      1.0000 0.53380  0.20260  0.97950  Biso   1.000  H
  H20      1.0000 0.96620  0.70260  0.52050  Biso   1.000  H
  H21      1.0000 0.35010  0.77830  0.94630  Biso   1.000  H
  H22      1.0000 0.14990  0.27830  0.55370  Biso   1.000  H
  H23      1.0000 0.64990  0.22170  0.05370  Biso   1.000  H
  H24      1.0000 0.85010  0.72170  0.44630  Biso   1.000  H
  C29      1.0000 0.85030  0.91000  0.88400  Biso   1.000  C
  C30      1.0000 0.64970  0.41000  0.61600  Biso   1.000  C
  C31      1.0000 0.14970  0.09000  0.11600  Biso   1.000  C
  C32      1.0000 0.35030  0.59000  0.38400  Biso   1.000  C
  H25      1.0000 0.86450  0.81350  0.89330  Biso   1.000  H
  H26      1.0000 0.63550  0.31350  0.60670  Biso   1.000  H
  H27      1.0000 0.13550  0.18650  0.10670  Biso   1.000  H
  H28      1.0000 0.36450  0.68650  0.39330  Biso   1.000  H
  C33      1.0000 0.60780  0.85210  0.84470  Biso   1.000  C
  C34      1.0000 0.89220  0.35210  0.65530  Biso   1.000  C
  C35      1.0000 0.39220  0.14790  0.15530  Biso   1.000  C
  C36      1.0000 0.10780  0.64790  0.34470  Biso   1.000  C
  H29      1.0000 0.56040  0.86220  0.88380  Biso   1.000  H
  H30      1.0000 0.93960  0.36220  0.61620  Biso   1.000  H
  H31      1.0000 0.43960  0.13780  0.11620  Biso   1.000  H
  H32      1.0000 0.06040  0.63780  0.38380  Biso   1.000  H
  H33      1.0000 0.64220  0.75560  0.84550  Biso   1.000  H
  H34      1.0000 0.85780  0.25560  0.65450  Biso   1.000  H
  H35      1.0000 0.35780  0.24440  0.15450  Biso   1.000  H
  H36      1.0000 0.14220  0.74440  0.34550  Biso   1.000  H
  C37      1.0000 0.50770  0.88420  0.77060  Biso   1.000  C
  C38      1.0000 0.99230  0.38420  0.72940  Biso   1.000  C
  C39      1.0000 0.49230  0.11580  0.22940  Biso   1.000  C
  C40      1.0000 0.00770  0.61580  0.27060  Biso   1.000  C
  H37      1.0000 0.54840  0.85370  0.73130  Biso   1.000  H
  H38      1.0000 0.95160  0.35370  0.76870  Biso   1.000  H
  H39      1.0000 0.45160  0.14630  0.26870  Biso   1.000  H
  H40      1.0000 0.04840  0.64630  0.23130  Biso   1.000  H
  H41      1.0000 0.42090  0.83260  0.76590  Biso   1.000  H
  H42      1.0000 0.07910  0.33260  0.73410  Biso   1.000  H
  H43      1.0000 0.57910  0.16740  0.23410  Biso   1.000  H
  H44      1.0000 0.92090  0.66740  0.26590  Biso   1.000  H
  C41      1.0000 0.42440  0.08110  0.68530  Biso   1.000  C
  C42      1.0000 0.07560  0.58110  0.81470  Biso   1.000  C
  C43      1.0000 0.57560  0.91890  0.31470  Biso   1.000  C
  C44      1.0000 0.92440  0.41890  0.18530  Biso   1.000  C
  H45      1.0000 0.48620  0.04310  0.65730  Biso   1.000  H
  H46      1.0000 0.01380  0.54310  0.84270  Biso   1.000  H
  H47      1.0000 0.51380  0.95690  0.34270  Biso   1.000  H
  H48      1.0000 0.98620  0.45690  0.15730  Biso   1.000  H
  H49      1.0000 0.42550  0.18370  0.68130  Biso   1.000  H
  H50      1.0000 0.07450  0.68370  0.81870  Biso   1.000  H
  H51      1.0000 0.57450  0.81630  0.31870  Biso   1.000  H
  H52      1.0000 0.92550  0.31630  0.18130  Biso   1.000  H
  C45      1.0000 0.27710  0.02800  0.65170  Biso   1.000  C
  C46      1.0000 0.22290  0.52800  0.84830  Biso   1.000  C
  C47      1.0000 0.72290  0.97200  0.34830  Biso   1.000  C
  C48      1.0000 0.77710  0.47200  0.15170  Biso   1.000  C
  H53      1.0000 0.24710  0.05670  0.60030  Biso   1.000  H
  H54      1.0000 0.25290  0.55670  0.89970  Biso   1.000  H
  H55      1.0000 0.75290  0.94330  0.39970  Biso   1.000  H
  H56      1.0000 0.74710  0.44330  0.10030  Biso   1.000  H
  H57      1.0000 0.27600  0.92520  0.65350  Biso   1.000  H
  H58      1.0000 0.22400  0.42520  0.84650  Biso   1.000  H
  H59      1.0000 0.72400  0.07480  0.34650  Biso   1.000  H
  H60      1.0000 0.77600  0.57480  0.15350  Biso   1.000  H
  C49      1.0000 0.22440  0.03840  0.76560  Biso   1.000  C
  C50      1.0000 0.27560  0.53840  0.73440  Biso   1.000  C
  C51      1.0000 0.77560  0.96160  0.23440  Biso   1.000  C
  C52      1.0000 0.72440  0.46160  0.26560  Biso   1.000  C
  H61      1.0000 0.21900  0.93570  0.76730  Biso   1.000  H
  H62      1.0000 0.28100  0.43570  0.73270  Biso   1.000  H
  H63      1.0000 0.78100  0.06430  0.23270  Biso   1.000  H
  H64      1.0000 0.71900  0.56430  0.26730  Biso   1.000  H
  H65      1.0000 0.16050  0.07690  0.79210  Biso   1.000  H
  H66      1.0000 0.33950  0.57690  0.70790  Biso   1.000  H
  H67      1.0000 0.83950  0.92310  0.20790  Biso   1.000  H
  H68      1.0000 0.66050  0.42310  0.29210  Biso   1.000  H
  C53      1.0000 0.37230  0.08520  0.80330  Biso   1.000  C
  C54      1.0000 0.12770  0.58520  0.69670  Biso   1.000  C
  C55      1.0000 0.62770  0.91480  0.19670  Biso   1.000  C
  C56      1.0000 0.87230  0.41480  0.30330  Biso   1.000  C
  H69      1.0000 0.37400  0.18780  0.80730  Biso   1.000  H
  H70      1.0000 0.12600  0.68780  0.69270  Biso   1.000  H
  H71      1.0000 0.62600  0.81220  0.19270  Biso   1.000  H
  H72      1.0000 0.87400  0.31220  0.30730  Biso   1.000  H
  H73      1.0000 0.39840  0.04660  0.85290  Biso   1.000  H
  H74      1.0000 0.10160  0.54660  0.64710  Biso   1.000  H
  H75      1.0000 0.60160  0.95340  0.14710  Biso   1.000  H
  H76      1.0000 0.89840  0.45340  0.35290  Biso   1.000  H
  O13      1.0000 0.92350  0.03710  0.55230  Biso   1.000  O
  O14      1.0000 0.57650  0.53710  0.94770  Biso   1.000  O
  O15      1.0000 0.07650  0.96290  0.44770  Biso   1.000  O
  O16      1.0000 0.42350  0.46290  0.05230  Biso   1.000  O
  H77      1.0000 0.97600  0.02800  0.59530  Biso   1.000  H
  H78      1.0000 0.52400  0.52800  0.90470  Biso   1.000  H
  H79      1.0000 0.02400  0.97200  0.40470  Biso   1.000  H
  H80      1.0000 0.47600  0.47200  0.09530  Biso   1.000  H
  H81      1.0000 0.97000  0.04600  0.52130  Biso   1.000  H
  H82      1.0000 0.53000  0.54600  0.97870  Biso   1.000  H
  H83      1.0000 0.03000  0.95400  0.47870  Biso   1.000  H
  H84      1.0000 0.47000  0.45400  0.02130  Biso   1.000  H
  O17      1.0000 0.86010  0.44920  0.97370  Biso   1.000  O
  O18      1.0000 0.63990  0.94920  0.52630  Biso   1.000  O
  O19      1.0000 0.13990  0.55080  0.02630  Biso   1.000  O
  O20      1.0000 0.36010  0.05080  0.47370  Biso   1.000  O
  H85      1.0000 0.86000  0.39000  0.93970  Biso   1.000  H
  H86      1.0000 0.64000  0.89000  0.56030  Biso   1.000  H
  H87      1.0000 0.14000  0.61000  0.06030  Biso   1.000  H
  H88      1.0000 0.36000  0.11000  0.43970  Biso   1.000  H
  H89      1.0000 0.78000  0.48800  0.96500  Biso   1.000  H
  H90      1.0000 0.72000  0.98800  0.53500  Biso   1.000  H
  H91      1.0000 0.22000  0.51200  0.03500  Biso   1.000  H
  H92      1.0000 0.28000  0.01200  0.46500  Biso   1.000  H
