data_image0
_cell_length_a       7.288
_cell_length_b       9.64
_cell_length_c       9.771
_cell_angle_alpha    55.36
_cell_angle_beta     69.29
_cell_angle_gamma    70.48

_symmetry_space_group_name_H-M    "P 1"
_symmetry_int_tables_number       1

loop_
  _symmetry_equiv_pos_as_xyz
  'x, y, z'

loop_
  _atom_site_label
  _atom_site_occupancy
  _atom_site_fract_x
  _atom_site_fract_y
  _atom_site_fract_z
  _atom_site_thermal_displace_type
  _atom_site_B_iso_or_equiv
  _atom_site_type_symbol
  Cu1      1.0000 0.75485  0.06697  0.93296  Biso   1.000  Cu
  Cu2      1.0000 0.24515  0.93303  0.06704  Biso   1.000  Cu
  Cl1      1.0000 0.95410  0.80660  0.02100  Biso   1.000  Cl
  Cl2      1.0000 0.04590  0.19340  0.97900  Biso   1.000  Cl
  Cl3      1.0000 0.54550  0.97980  0.19170  Biso   1.000  Cl
  Cl4      1.0000 0.45450  0.02020  0.80830  Biso   1.000  Cl
  N1       1.0000 0.90560  0.16430  0.68720  Biso   1.000  N
  N2       1.0000 0.09440  0.83570  0.31280  Biso   1.000  N
  N3       1.0000 0.60850  0.31230  0.83230  Biso   1.000  N
  N4       1.0000 0.39150  0.68770  0.16770  Biso   1.000  N
  C1       1.0000 0.83790  0.32880  0.58190  Biso   1.000  C
  C2       1.0000 0.16210  0.67120  0.41810  Biso   1.000  C
  C3       1.0000 0.91610  0.40960  0.40860  Biso   1.000  C
  C4       1.0000 0.08390  0.59040  0.59140  Biso   1.000  C
  C5       1.0000 0.06430  0.31980  0.34240  Biso   1.000  C
  C6       1.0000 0.93570  0.68020  0.65760  Biso   1.000  C
  C7       1.0000 0.13640  0.15240  0.44970  Biso   1.000  C
  C8       1.0000 0.86360  0.84760  0.55030  Biso   1.000  C
  C9       1.0000 0.05490  0.07810  0.62100  Biso   1.000  C
  C10      1.0000 0.94510  0.92190  0.37900  Biso   1.000  C
  C11      1.0000 0.46050  0.38020  0.91730  Biso   1.000  C
  C12      1.0000 0.53950  0.61980  0.08270  Biso   1.000  C
  C13      1.0000 0.37730  0.55140  0.83880  Biso   1.000  C
  C14      1.0000 0.62270  0.44860  0.16120  Biso   1.000  C
  C15      1.0000 0.44590  0.65490  0.67010  Biso   1.000  C
  C16      1.0000 0.55410  0.34510  0.32990  Biso   1.000  C
  C17      1.0000 0.59510  0.58590  0.58030  Biso   1.000  C
  C18      1.0000 0.40490  0.41410  0.41970  Biso   1.000  C
  C19      1.0000 0.67390  0.41440  0.66560  Biso   1.000  C
  C20      1.0000 0.32610  0.58560  0.33440  Biso   1.000  C
  H1       1.0000 0.41130  0.30800  0.03530  Biso   1.000  H
  H2       1.0000 0.58870  0.69200  0.96470  Biso   1.000  H
  H3       1.0000 0.27280  0.59660  0.90210  Biso   1.000  H
  H4       1.0000 0.72720  0.40340  0.09790  Biso   1.000  H
  H5       1.0000 0.39150  0.77350  0.61440  Biso   1.000  H
  H6       1.0000 0.60850  0.22650  0.38560  Biso   1.000  H
  H7       1.0000 0.64330  0.65530  0.46140  Biso   1.000  H
  H8       1.0000 0.35670  0.34470  0.53860  Biso   1.000  H
  H9       1.0000 0.86690  0.52670  0.33660  Biso   1.000  H
  H10      1.0000 0.13310  0.47330  0.66340  Biso   1.000  H
  H11      1.0000 0.11670  0.37230  0.22310  Biso   1.000  H
  H12      1.0000 0.88330  0.62770  0.77690  Biso   1.000  H
  H13      1.0000 0.24210  0.08840  0.40590  Biso   1.000  H
  H14      1.0000 0.75790  0.91160  0.59410  Biso   1.000  H
  H15      1.0000 0.10540  0.96220  0.69480  Biso   1.000  H
  H16      1.0000 0.89460  0.03780  0.30520  Biso   1.000  H
