data_image0
_cell_length_a       17.08
_cell_length_b       8.95
_cell_length_c       7.23
_cell_angle_alpha    90
_cell_angle_beta     112.52
_cell_angle_gamma    90

_symmetry_space_group_name_H-M    "P 1"
_symmetry_int_tables_number       1

loop_
  _symmetry_equiv_pos_as_xyz
  'x, y, z'

loop_
  _atom_site_label
  _atom_site_occupancy
  _atom_site_fract_x
  _atom_site_fract_y
  _atom_site_fract_z
  _atom_site_thermal_displace_type
  _atom_site_B_iso_or_equiv
  _atom_site_type_symbol
  Cu1      1.0000 0.00000  0.43287  0.25000  Biso   1.000  Cu
  Cu2      1.0000 0.50000  0.93287  0.25000  Biso   1.000  Cu
  Cu3      1.0000 0.00000  0.56713  0.75000  Biso   1.000  Cu
  Cu4      1.0000 0.50000  0.06713  0.75000  Biso   1.000  Cu
  Cl1      1.0000 0.91396  0.60623  0.04610  Biso   1.000  Cl
  Cl2      1.0000 0.41396  0.10623  0.04610  Biso   1.000  Cl
  Cl3      1.0000 0.08604  0.60623  0.45390  Biso   1.000  Cl
  Cl4      1.0000 0.58604  0.10623  0.45390  Biso   1.000  Cl
  Cl5      1.0000 0.08604  0.39377  0.95390  Biso   1.000  Cl
  Cl6      1.0000 0.58604  0.89377  0.95390  Biso   1.000  Cl
  Cl7      1.0000 0.91396  0.39377  0.54610  Biso   1.000  Cl
  Cl8      1.0000 0.41396  0.89377  0.54610  Biso   1.000  Cl
  N1       1.0000 0.92610  0.26020  0.10110  Biso   1.000  N
  N2       1.0000 0.42610  0.76020  0.10110  Biso   1.000  N
  N3       1.0000 0.07390  0.26020  0.39890  Biso   1.000  N
  N4       1.0000 0.57390  0.76020  0.39890  Biso   1.000  N
  N5       1.0000 0.07390  0.73980  0.89890  Biso   1.000  N
  N6       1.0000 0.57390  0.23980  0.89890  Biso   1.000  N
  N7       1.0000 0.92610  0.73980  0.60110  Biso   1.000  N
  N8       1.0000 0.42610  0.23980  0.60110  Biso   1.000  N
  C1       1.0000 0.95760  0.12560  0.16780  Biso   1.000  C
  C2       1.0000 0.45760  0.62560  0.16780  Biso   1.000  C
  C3       1.0000 0.04240  0.12560  0.33220  Biso   1.000  C
  C4       1.0000 0.54240  0.62560  0.33220  Biso   1.000  C
  C5       1.0000 0.04240  0.87440  0.83220  Biso   1.000  C
  C6       1.0000 0.54240  0.37440  0.83220  Biso   1.000  C
  C7       1.0000 0.95760  0.87440  0.66780  Biso   1.000  C
  C8       1.0000 0.45760  0.37440  0.66780  Biso   1.000  C
  C9       1.0000 0.85050  0.26940  0.95300  Biso   1.000  C
  C10      1.0000 0.35050  0.76940  0.95300  Biso   1.000  C
  C11      1.0000 0.14950  0.26940  0.54700  Biso   1.000  C
  C12      1.0000 0.64950  0.76940  0.54700  Biso   1.000  C
  C13      1.0000 0.14950  0.73060  0.04700  Biso   1.000  C
  C14      1.0000 0.64950  0.23060  0.04700  Biso   1.000  C
  C15      1.0000 0.85050  0.73060  0.45300  Biso   1.000  C
  C16      1.0000 0.35050  0.23060  0.45300  Biso   1.000  C
  H1       1.0000 0.82880  0.36530  0.90280  Biso   1.000  H
  H2       1.0000 0.32880  0.86530  0.90280  Biso   1.000  H
  H3       1.0000 0.17120  0.36530  0.59720  Biso   1.000  H
  H4       1.0000 0.67120  0.86530  0.59720  Biso   1.000  H
  H5       1.0000 0.17120  0.63470  0.09720  Biso   1.000  H
  H6       1.0000 0.67120  0.13470  0.09720  Biso   1.000  H
  H7       1.0000 0.82880  0.63470  0.40280  Biso   1.000  H
  H8       1.0000 0.32880  0.13470  0.40280  Biso   1.000  H
  C17      1.0000 0.80280  0.14610  0.87000  Biso   1.000  C
  C18      1.0000 0.30280  0.64610  0.87000  Biso   1.000  C
  C19      1.0000 0.19720  0.14610  0.63000  Biso   1.000  C
  C20      1.0000 0.69720  0.64610  0.63000  Biso   1.000  C
  C21      1.0000 0.19720  0.85390  0.13000  Biso   1.000  C
  C22      1.0000 0.69720  0.35390  0.13000  Biso   1.000  C
  C23      1.0000 0.80280  0.85390  0.37000  Biso   1.000  C
  C24      1.0000 0.30280  0.35390  0.37000  Biso   1.000  C
  H9       1.0000 0.74860  0.15610  0.76490  Biso   1.000  H
  H10      1.0000 0.24860  0.65610  0.76490  Biso   1.000  H
  H11      1.0000 0.25140  0.15610  0.73510  Biso   1.000  H
  H12      1.0000 0.75140  0.65610  0.73510  Biso   1.000  H
  H13      1.0000 0.25140  0.84390  0.23510  Biso   1.000  H
  H14      1.0000 0.75140  0.34390  0.23510  Biso   1.000  H
  H15      1.0000 0.74860  0.84390  0.26490  Biso   1.000  H
  H16      1.0000 0.24860  0.34390  0.26490  Biso   1.000  H
  C25      1.0000 0.91310  0.99810  0.09130  Biso   1.000  C
  C26      1.0000 0.41310  0.49810  0.09130  Biso   1.000  C
  C27      1.0000 0.08690  0.99810  0.40870  Biso   1.000  C
  C28      1.0000 0.58690  0.49810  0.40870  Biso   1.000  C
  C29      1.0000 0.08690  0.00190  0.90870  Biso   1.000  C
  C30      1.0000 0.58690  0.50190  0.90870  Biso   1.000  C
  C31      1.0000 0.91310  0.00190  0.59130  Biso   1.000  C
  C32      1.0000 0.41310  0.50190  0.59130  Biso   1.000  C
  H17      1.0000 0.93650  0.90320  0.14180  Biso   1.000  H
  H18      1.0000 0.43650  0.40320  0.14180  Biso   1.000  H
  H19      1.0000 0.06350  0.90320  0.35820  Biso   1.000  H
  H20      1.0000 0.56350  0.40320  0.35820  Biso   1.000  H
  H21      1.0000 0.06350  0.09680  0.85820  Biso   1.000  H
  H22      1.0000 0.56350  0.59680  0.85820  Biso   1.000  H
  H23      1.0000 0.93650  0.09680  0.64180  Biso   1.000  H
  H24      1.0000 0.43650  0.59680  0.64180  Biso   1.000  H
  C33      1.0000 0.83440  0.00830  0.94120  Biso   1.000  C
  C34      1.0000 0.33440  0.50830  0.94120  Biso   1.000  C
  C35      1.0000 0.16560  0.00830  0.55880  Biso   1.000  C
  C36      1.0000 0.66560  0.50830  0.55880  Biso   1.000  C
  C37      1.0000 0.16560  0.99170  0.05880  Biso   1.000  C
  C38      1.0000 0.66560  0.49170  0.05880  Biso   1.000  C
  C39      1.0000 0.83440  0.99170  0.44120  Biso   1.000  C
  C40      1.0000 0.33440  0.49170  0.44120  Biso   1.000  C
  H25      1.0000 0.80230  0.92070  0.88740  Biso   1.000  H
  H26      1.0000 0.30230  0.42070  0.88740  Biso   1.000  H
  H27      1.0000 0.19770  0.92070  0.61260  Biso   1.000  H
  H28      1.0000 0.69770  0.42070  0.61260  Biso   1.000  H
  H29      1.0000 0.19770  0.07930  0.11260  Biso   1.000  H
  H30      1.0000 0.69770  0.57930  0.11260  Biso   1.000  H
  H31      1.0000 0.80230  0.07930  0.38740  Biso   1.000  H
  H32      1.0000 0.30230  0.57930  0.38740  Biso   1.000  H
