data_image0
_cell_length_a       16.966
_cell_length_b       9.287
_cell_length_c       7.49
_cell_angle_alpha    90
_cell_angle_beta     111.6
_cell_angle_gamma    90

_symmetry_space_group_name_H-M    "P 1"
_symmetry_int_tables_number       1

loop_
  _symmetry_equiv_pos_as_xyz
  'x, y, z'

loop_
  _atom_site_label
  _atom_site_occupancy
  _atom_site_fract_x
  _atom_site_fract_y
  _atom_site_fract_z
  _atom_site_thermal_displace_type
  _atom_site_B_iso_or_equiv
  _atom_site_type_symbol
  Br1      1.0000 0.90825  0.89050  0.04910  Biso   1.000  Br
  Br2      1.0000 0.40825  0.39050  0.04910  Biso   1.000  Br
  Br3      1.0000 0.09175  0.89050  0.45090  Biso   1.000  Br
  Br4      1.0000 0.59175  0.39050  0.45090  Biso   1.000  Br
  Br5      1.0000 0.09175  0.10950  0.95090  Biso   1.000  Br
  Br6      1.0000 0.59175  0.60950  0.95090  Biso   1.000  Br
  Br7      1.0000 0.90825  0.10950  0.54910  Biso   1.000  Br
  Br8      1.0000 0.40825  0.60950  0.54910  Biso   1.000  Br
  Cu1      1.0000 0.00000  0.07260  0.25000  Biso   1.000  Cu
  Cu2      1.0000 0.50000  0.57260  0.25000  Biso   1.000  Cu
  Cu3      1.0000 0.00000  0.92740  0.75000  Biso   1.000  Cu
  Cu4      1.0000 0.50000  0.42740  0.75000  Biso   1.000  Cu
  N1       1.0000 0.92700  0.24000  0.10600  Biso   1.000  N
  N2       1.0000 0.42700  0.74000  0.10600  Biso   1.000  N
  N3       1.0000 0.07300  0.24000  0.39400  Biso   1.000  N
  N4       1.0000 0.57300  0.74000  0.39400  Biso   1.000  N
  N5       1.0000 0.07300  0.76000  0.89400  Biso   1.000  N
  N6       1.0000 0.57300  0.26000  0.89400  Biso   1.000  N
  N7       1.0000 0.92700  0.76000  0.60600  Biso   1.000  N
  N8       1.0000 0.42700  0.26000  0.60600  Biso   1.000  N
  C1       1.0000 0.85340  0.23400  0.96200  Biso   1.000  C
  C2       1.0000 0.35340  0.73400  0.96200  Biso   1.000  C
  C3       1.0000 0.14660  0.23400  0.53800  Biso   1.000  C
  C4       1.0000 0.64660  0.73400  0.53800  Biso   1.000  C
  C5       1.0000 0.14660  0.76600  0.03800  Biso   1.000  C
  C6       1.0000 0.64660  0.26600  0.03800  Biso   1.000  C
  C7       1.0000 0.85340  0.76600  0.46200  Biso   1.000  C
  C8       1.0000 0.35340  0.26600  0.46200  Biso   1.000  C
  C9       1.0000 0.80500  0.35000  0.87600  Biso   1.000  C
  C10      1.0000 0.30500  0.85000  0.87600  Biso   1.000  C
  C11      1.0000 0.19500  0.35000  0.62400  Biso   1.000  C
  C12      1.0000 0.69500  0.85000  0.62400  Biso   1.000  C
  C13      1.0000 0.19500  0.65000  0.12400  Biso   1.000  C
  C14      1.0000 0.69500  0.15000  0.12400  Biso   1.000  C
  C15      1.0000 0.80500  0.65000  0.37600  Biso   1.000  C
  C16      1.0000 0.30500  0.15000  0.37600  Biso   1.000  C
  C17      1.0000 0.83700  0.48400  0.94400  Biso   1.000  C
  C18      1.0000 0.33700  0.98400  0.94400  Biso   1.000  C
  C19      1.0000 0.16300  0.48400  0.55600  Biso   1.000  C
  C20      1.0000 0.66300  0.98400  0.55600  Biso   1.000  C
  C21      1.0000 0.16300  0.51600  0.05600  Biso   1.000  C
  C22      1.0000 0.66300  0.01600  0.05600  Biso   1.000  C
  C23      1.0000 0.83700  0.51600  0.44400  Biso   1.000  C
  C24      1.0000 0.33700  0.01600  0.44400  Biso   1.000  C
  C25      1.0000 0.91470  0.49500  0.09200  Biso   1.000  C
  C26      1.0000 0.41470  0.99500  0.09200  Biso   1.000  C
  C27      1.0000 0.08530  0.49500  0.40800  Biso   1.000  C
  C28      1.0000 0.58530  0.99500  0.40800  Biso   1.000  C
  C29      1.0000 0.08530  0.50500  0.90800  Biso   1.000  C
  C30      1.0000 0.58530  0.00500  0.90800  Biso   1.000  C
  C31      1.0000 0.91470  0.50500  0.59200  Biso   1.000  C
  C32      1.0000 0.41470  0.00500  0.59200  Biso   1.000  C
  C33      1.0000 0.95870  0.37000  0.17000  Biso   1.000  C
  C34      1.0000 0.45870  0.87000  0.17000  Biso   1.000  C
  C35      1.0000 0.04130  0.37000  0.33000  Biso   1.000  C
  C36      1.0000 0.54130  0.87000  0.33000  Biso   1.000  C
  C37      1.0000 0.04130  0.63000  0.83000  Biso   1.000  C
  C38      1.0000 0.54130  0.13000  0.83000  Biso   1.000  C
  C39      1.0000 0.95870  0.63000  0.67000  Biso   1.000  C
  C40      1.0000 0.45870  0.13000  0.67000  Biso   1.000  C
  H1       1.0000 0.83160  0.14130  0.91370  Biso   1.000  H
  H2       1.0000 0.33160  0.64130  0.91370  Biso   1.000  H
  H3       1.0000 0.16840  0.14130  0.58630  Biso   1.000  H
  H4       1.0000 0.66840  0.64130  0.58630  Biso   1.000  H
  H5       1.0000 0.16840  0.85870  0.08630  Biso   1.000  H
  H6       1.0000 0.66840  0.35870  0.08630  Biso   1.000  H
  H7       1.0000 0.83160  0.85870  0.41370  Biso   1.000  H
  H8       1.0000 0.33160  0.35870  0.41370  Biso   1.000  H
  H9       1.0000 0.75190  0.33910  0.77300  Biso   1.000  H
  H10      1.0000 0.25190  0.83910  0.77300  Biso   1.000  H
  H11      1.0000 0.24810  0.33910  0.72700  Biso   1.000  H
  H12      1.0000 0.74810  0.83910  0.72700  Biso   1.000  H
  H13      1.0000 0.24810  0.66090  0.22700  Biso   1.000  H
  H14      1.0000 0.74810  0.16090  0.22700  Biso   1.000  H
  H15      1.0000 0.75190  0.66090  0.27300  Biso   1.000  H
  H16      1.0000 0.25190  0.16090  0.27300  Biso   1.000  H
  H17      1.0000 0.80510  0.56830  0.88960  Biso   1.000  H
  H18      1.0000 0.30510  0.06830  0.88960  Biso   1.000  H
  H19      1.0000 0.19490  0.56830  0.61040  Biso   1.000  H
  H20      1.0000 0.69490  0.06830  0.61040  Biso   1.000  H
  H21      1.0000 0.19490  0.43170  0.11040  Biso   1.000  H
  H22      1.0000 0.69490  0.93170  0.11040  Biso   1.000  H
  H23      1.0000 0.80510  0.43170  0.38960  Biso   1.000  H
  H24      1.0000 0.30510  0.93170  0.38960  Biso   1.000  H
  H25      1.0000 0.93860  0.58720  0.14120  Biso   1.000  H
  H26      1.0000 0.43860  0.08720  0.14120  Biso   1.000  H
  H27      1.0000 0.06140  0.58720  0.35880  Biso   1.000  H
  H28      1.0000 0.56140  0.08720  0.35880  Biso   1.000  H
  H29      1.0000 0.06140  0.41280  0.85880  Biso   1.000  H
  H30      1.0000 0.56140  0.91280  0.85880  Biso   1.000  H
  H31      1.0000 0.93860  0.41280  0.64120  Biso   1.000  H
  H32      1.0000 0.43860  0.91280  0.64120  Biso   1.000  H
