data_image0
_cell_length_a       16.5938
_cell_length_b       15.1034
_cell_length_c       18.0112
_cell_angle_alpha    90
_cell_angle_beta     90
_cell_angle_gamma    90

_symmetry_space_group_name_H-M    "P 1"
_symmetry_int_tables_number       1

loop_
  _symmetry_equiv_pos_as_xyz
  'x, y, z'

loop_
  _atom_site_label
  _atom_site_occupancy
  _atom_site_fract_x
  _atom_site_fract_y
  _atom_site_fract_z
  _atom_site_thermal_displace_type
  _atom_site_B_iso_or_equiv
  _atom_site_type_symbol
  U1       1.0000 0.83229  0.32499  0.99879  Biso   1.000  U
  U2       1.0000 0.16771  0.67501  0.49879  Biso   1.000  U
  U3       1.0000 0.33229  0.67501  0.99879  Biso   1.000  U
  U4       1.0000 0.66771  0.32499  0.49879  Biso   1.000  U
  U5       1.0000 0.64106  0.17746  0.00384  Biso   1.000  U
  U6       1.0000 0.35894  0.82254  0.50384  Biso   1.000  U
  U7       1.0000 0.14106  0.82254  0.00384  Biso   1.000  U
  U8       1.0000 0.85894  0.17746  0.50384  Biso   1.000  U
  Cu1      1.0000 0.76270  0.75044  0.75024  Biso   1.000  Cu
  Cu2      1.0000 0.23730  0.24956  0.25024  Biso   1.000  Cu
  Cu3      1.0000 0.26270  0.24956  0.75024  Biso   1.000  Cu
  Cu4      1.0000 0.73730  0.75044  0.25024  Biso   1.000  Cu
  O1       1.0000 0.82430  0.29970  0.90160  Biso   1.000  O
  O2       1.0000 0.17570  0.70030  0.40160  Biso   1.000  O
  O3       1.0000 0.32430  0.70030  0.90160  Biso   1.000  O
  O4       1.0000 0.67570  0.29970  0.40160  Biso   1.000  O
  O5       1.0000 0.84040  0.35640  0.09340  Biso   1.000  O
  O6       1.0000 0.15960  0.64360  0.59340  Biso   1.000  O
  O7       1.0000 0.34040  0.64360  0.09340  Biso   1.000  O
  O8       1.0000 0.65960  0.35640  0.59340  Biso   1.000  O
  O9       1.0000 0.65010  0.19070  0.90410  Biso   1.000  O
  O10      1.0000 0.34990  0.80930  0.40410  Biso   1.000  O
  O11      1.0000 0.15010  0.80930  0.90410  Biso   1.000  O
  O12      1.0000 0.84990  0.19070  0.40410  Biso   1.000  O
  O13      1.0000 0.63060  0.15750  0.09980  Biso   1.000  O
  O14      1.0000 0.36940  0.84250  0.59980  Biso   1.000  O
  O15      1.0000 0.13060  0.84250  0.09980  Biso   1.000  O
  O16      1.0000 0.86940  0.15750  0.59980  Biso   1.000  O
  O17      1.0000 0.78110  0.18020  0.02170  Biso   1.000  O
  O18      1.0000 0.21890  0.81980  0.52170  Biso   1.000  O
  O19      1.0000 0.28110  0.81980  0.02170  Biso   1.000  O
  O20      1.0000 0.71890  0.18020  0.52170  Biso   1.000  O
  O21      1.0000 0.93420  0.22100  0.01070  Biso   1.000  O
  O22      1.0000 0.06580  0.77900  0.51070  Biso   1.000  O
  O23      1.0000 0.43420  0.77900  0.01070  Biso   1.000  O
  O24      1.0000 0.56580  0.22100  0.51070  Biso   1.000  O
  O25      1.0000 0.97770  0.08590  0.03960  Biso   1.000  O
  O26      1.0000 0.02230  0.91410  0.53960  Biso   1.000  O
  O27      1.0000 0.47770  0.91410  0.03960  Biso   1.000  O
  O28      1.0000 0.52230  0.08590  0.53960  Biso   1.000  O
  O29      1.0000 0.68250  0.03080  0.98590  Biso   1.000  O
  O30      1.0000 0.31750  0.96920  0.48590  Biso   1.000  O
  O31      1.0000 0.18250  0.96920  0.98590  Biso   1.000  O
  O32      1.0000 0.81750  0.03080  0.48590  Biso   1.000  O
  O33      1.0000 0.75230  0.91030  0.95860  Biso   1.000  O
  O34      1.0000 0.24770  0.08970  0.45860  Biso   1.000  O
  O35      1.0000 0.25230  0.08970  0.95860  Biso   1.000  O
  O36      1.0000 0.74770  0.91030  0.45860  Biso   1.000  O
  O37      1.0000 0.86990  0.18200  0.17580  Biso   1.000  O
  O38      1.0000 0.13010  0.81800  0.67580  Biso   1.000  O
  O39      1.0000 0.36990  0.81800  0.17580  Biso   1.000  O
  O40      1.0000 0.63010  0.18200  0.67580  Biso   1.000  O
  H1       1.0000 0.85520  0.22200  0.20340  Biso   1.000  H
  H2       1.0000 0.14480  0.77800  0.70340  Biso   1.000  H
  H3       1.0000 0.35520  0.77800  0.20340  Biso   1.000  H
  H4       1.0000 0.64480  0.22200  0.70340  Biso   1.000  H
  O41      1.0000 0.75820  0.11490  0.21660  Biso   1.000  O
  O42      1.0000 0.24180  0.88510  0.71660  Biso   1.000  O
  O43      1.0000 0.25820  0.88510  0.21660  Biso   1.000  O
  O44      1.0000 0.74180  0.11490  0.71660  Biso   1.000  O
  O45      1.0000 0.69090  0.32380  0.01550  Biso   1.000  O
  O46      1.0000 0.30910  0.67620  0.51550  Biso   1.000  O
  O47      1.0000 0.19090  0.67620  0.01550  Biso   1.000  O
  O48      1.0000 0.80910  0.32380  0.51550  Biso   1.000  O
  O49      1.0000 0.53750  0.28220  0.00480  Biso   1.000  O
  O50      1.0000 0.46250  0.71780  0.50480  Biso   1.000  O
  O51      1.0000 0.03750  0.71780  0.00480  Biso   1.000  O
  O52      1.0000 0.96250  0.28220  0.50480  Biso   1.000  O
  O53      1.0000 0.49160  0.41930  0.02960  Biso   1.000  O
  O54      1.0000 0.50840  0.58070  0.52960  Biso   1.000  O
  O55      1.0000 0.99160  0.58070  0.02960  Biso   1.000  O
  O56      1.0000 0.00840  0.41930  0.52960  Biso   1.000  O
  O57      1.0000 0.78940  0.46920  0.96860  Biso   1.000  O
  O58      1.0000 0.21060  0.53080  0.46860  Biso   1.000  O
  O59      1.0000 0.28940  0.53080  0.96860  Biso   1.000  O
  O60      1.0000 0.71060  0.46920  0.46860  Biso   1.000  O
  O61      1.0000 0.72270  0.59020  0.94200  Biso   1.000  O
  O62      1.0000 0.27730  0.40980  0.44200  Biso   1.000  O
  O63      1.0000 0.22270  0.40980  0.94200  Biso   1.000  O
  O64      1.0000 0.77730  0.59020  0.44200  Biso   1.000  O
  O65      1.0000 0.70770  0.40060  0.20940  Biso   1.000  O
  O66      1.0000 0.29230  0.59940  0.70940  Biso   1.000  O
  O67      1.0000 0.20770  0.59940  0.20940  Biso   1.000  O
  O68      1.0000 0.79230  0.40060  0.70940  Biso   1.000  O
  H5       1.0000 0.73870  0.35010  0.20940  Biso   1.000  H
  H6       1.0000 0.26130  0.64990  0.70940  Biso   1.000  H
  H7       1.0000 0.23870  0.64990  0.20940  Biso   1.000  H
  H8       1.0000 0.76130  0.35010  0.70940  Biso   1.000  H
  O69      1.0000 0.59570  0.33450  0.16650  Biso   1.000  O
  O70      1.0000 0.40430  0.66550  0.66650  Biso   1.000  O
  O71      1.0000 0.09570  0.66550  0.16650  Biso   1.000  O
  O72      1.0000 0.90430  0.33450  0.66650  Biso   1.000  O
  O73      1.0000 0.95440  0.41150  0.97620  Biso   1.000  O
  O74      1.0000 0.04560  0.58850  0.47620  Biso   1.000  O
  O75      1.0000 0.45440  0.58850  0.97620  Biso   1.000  O
  O76      1.0000 0.54560  0.41150  0.47620  Biso   1.000  O
  H9       1.0000 0.95340  0.46640  0.99510  Biso   1.000  H
  H10      1.0000 0.04660  0.53360  0.49510  Biso   1.000  H
  H11      1.0000 0.45340  0.53360  0.99510  Biso   1.000  H
  H12      1.0000 0.54660  0.46640  0.49510  Biso   1.000  H
  H13      1.0000 0.00160  0.39010  0.98360  Biso   1.000  H
  H14      1.0000 0.99840  0.60990  0.48360  Biso   1.000  H
  H15      1.0000 0.50160  0.60990  0.98360  Biso   1.000  H
  H16      1.0000 0.49840  0.39010  0.48360  Biso   1.000  H
  O77      1.0000 0.51890  0.08770  0.98630  Biso   1.000  O
  O78      1.0000 0.48110  0.91230  0.48630  Biso   1.000  O
  O79      1.0000 0.01890  0.91230  0.98630  Biso   1.000  O
  O80      1.0000 0.98110  0.08770  0.48630  Biso   1.000  O
  H17      1.0000 0.47270  0.10660  0.00670  Biso   1.000  H
  H18      1.0000 0.52730  0.89340  0.50670  Biso   1.000  H
  H19      1.0000 0.97270  0.89340  0.00670  Biso   1.000  H
  H20      1.0000 0.02730  0.10660  0.50670  Biso   1.000  H
  H21      1.0000 0.52220  0.03530  0.00250  Biso   1.000  H
  H22      1.0000 0.47780  0.96470  0.50250  Biso   1.000  H
  H23      1.0000 0.02220  0.96470  0.00250  Biso   1.000  H
  H24      1.0000 0.97780  0.03530  0.50250  Biso   1.000  H
  O81      1.0000 0.76490  0.74230  0.62450  Biso   1.000  O
  O82      1.0000 0.23510  0.25770  0.12450  Biso   1.000  O
  O83      1.0000 0.26490  0.25770  0.62450  Biso   1.000  O
  O84      1.0000 0.73510  0.74230  0.12450  Biso   1.000  O
  H25      1.0000 0.73270  0.71720  0.58590  Biso   1.000  H
  H26      1.0000 0.26730  0.28280  0.08590  Biso   1.000  H
  H27      1.0000 0.23270  0.28280  0.58590  Biso   1.000  H
  H28      1.0000 0.76730  0.71720  0.08590  Biso   1.000  H
  H29      1.0000 0.80930  0.75710  0.60190  Biso   1.000  H
  H30      1.0000 0.19070  0.24290  0.10190  Biso   1.000  H
  H31      1.0000 0.30930  0.24290  0.60190  Biso   1.000  H
  H32      1.0000 0.69070  0.75710  0.10190  Biso   1.000  H
  O85      1.0000 0.75940  0.75390  0.88010  Biso   1.000  O
  O86      1.0000 0.24060  0.24610  0.38010  Biso   1.000  O
  O87      1.0000 0.25940  0.24610  0.88010  Biso   1.000  O
  O88      1.0000 0.74060  0.75390  0.38010  Biso   1.000  O
  H33      1.0000 0.72730  0.78760  0.90390  Biso   1.000  H
  H34      1.0000 0.27270  0.21240  0.40390  Biso   1.000  H
  H35      1.0000 0.22730  0.21240  0.90390  Biso   1.000  H
  H36      1.0000 0.77270  0.78760  0.40390  Biso   1.000  H
  H37      1.0000 0.78420  0.72340  0.91050  Biso   1.000  H
  H38      1.0000 0.21580  0.27660  0.41050  Biso   1.000  H
  H39      1.0000 0.28420  0.27660  0.91050  Biso   1.000  H
  H40      1.0000 0.71580  0.72340  0.41050  Biso   1.000  H
  O89      1.0000 0.83300  0.30490  0.27920  Biso   1.000  O
  O90      1.0000 0.16700  0.69510  0.77920  Biso   1.000  O
  O91      1.0000 0.33300  0.69510  0.27920  Biso   1.000  O
  O92      1.0000 0.66700  0.30490  0.77920  Biso   1.000  O
  O93      1.0000 0.65330  0.65750  0.53500  Biso   1.000  O
  O94      1.0000 0.34670  0.34250  0.03500  Biso   1.000  O
  O95      1.0000 0.15330  0.34250  0.53500  Biso   1.000  O
  O96      1.0000 0.84670  0.65750  0.03500  Biso   1.000  O
  H41      1.0000 0.66800  0.62090  0.50020  Biso   1.000  H
  H42      1.0000 0.33200  0.37910  0.00020  Biso   1.000  H
  H43      1.0000 0.16800  0.37910  0.50020  Biso   1.000  H
  H44      1.0000 0.83200  0.62090  0.00020  Biso   1.000  H
  H45      1.0000 0.60530  0.64290  0.53910  Biso   1.000  H
  H46      1.0000 0.39470  0.35710  0.03910  Biso   1.000  H
  H47      1.0000 0.10530  0.35710  0.53910  Biso   1.000  H
  H48      1.0000 0.89470  0.64290  0.03910  Biso   1.000  H
  O97      1.0000 0.38580  0.16750  0.01850  Biso   1.000  O
  O98      1.0000 0.61420  0.83250  0.51850  Biso   1.000  O
  O99      1.0000 0.88580  0.83250  0.01850  Biso   1.000  O
  O100     1.0000 0.11420  0.16750  0.51850  Biso   1.000  O
  O101     1.0000 0.12270  0.16640  0.03540  Biso   1.000  O
  O102     1.0000 0.87730  0.83360  0.53540  Biso   1.000  O
  O103     1.0000 0.62270  0.83360  0.03540  Biso   1.000  O
  O104     1.0000 0.37730  0.16640  0.53540  Biso   1.000  O
  O105     1.0000 0.58880  0.66480  0.00550  Biso   1.000  O
  O106     1.0000 0.41120  0.33520  0.50550  Biso   1.000  O
  O107     1.0000 0.08880  0.33520  0.00550  Biso   1.000  O
  O108     1.0000 0.91120  0.66480  0.50550  Biso   1.000  O
  N1       1.0000 0.84860  0.84580  0.75550  Biso   1.000  N
  N2       1.0000 0.15140  0.15420  0.25550  Biso   1.000  N
  N3       1.0000 0.34860  0.15420  0.75550  Biso   1.000  N
  N4       1.0000 0.65140  0.84580  0.25550  Biso   1.000  N
  N5       1.0000 0.85340  0.65690  0.75190  Biso   1.000  N
  N6       1.0000 0.14660  0.34310  0.25190  Biso   1.000  N
  N7       1.0000 0.35340  0.34310  0.75190  Biso   1.000  N
  N8       1.0000 0.64660  0.65690  0.25190  Biso   1.000  N
  N9       1.0000 0.17850  0.34580  0.75730  Biso   1.000  N
  N10      1.0000 0.82150  0.65420  0.25730  Biso   1.000  N
  N11      1.0000 0.67850  0.65420  0.75730  Biso   1.000  N
  N12      1.0000 0.32150  0.34580  0.25730  Biso   1.000  N
  N13      1.0000 0.17050  0.15500  0.74600  Biso   1.000  N
  N14      1.0000 0.82950  0.84500  0.24600  Biso   1.000  N
  N15      1.0000 0.67050  0.84500  0.74600  Biso   1.000  N
  N16      1.0000 0.32950  0.15500  0.24600  Biso   1.000  N
  C1       1.0000 0.83550  0.10730  0.03160  Biso   1.000  C
  C2       1.0000 0.16450  0.89270  0.53160  Biso   1.000  C
  C3       1.0000 0.33550  0.89270  0.03160  Biso   1.000  C
  C4       1.0000 0.66450  0.10730  0.53160  Biso   1.000  C
  C5       1.0000 0.92380  0.13920  0.03030  Biso   1.000  C
  C6       1.0000 0.07620  0.86080  0.53030  Biso   1.000  C
  C7       1.0000 0.42380  0.86080  0.03030  Biso   1.000  C
  C8       1.0000 0.57620  0.13920  0.53030  Biso   1.000  C
  C9       1.0000 0.82500  0.04350  0.96600  Biso   1.000  C
  C10      1.0000 0.17500  0.95650  0.46600  Biso   1.000  C
  C11      1.0000 0.32500  0.95650  0.96600  Biso   1.000  C
  C12      1.0000 0.67500  0.04350  0.46600  Biso   1.000  C
  H49      1.0000 0.82430  0.07740  0.92030  Biso   1.000  H
  H50      1.0000 0.17570  0.92260  0.42030  Biso   1.000  H
  H51      1.0000 0.32430  0.92260  0.92030  Biso   1.000  H
  H52      1.0000 0.67570  0.07740  0.42030  Biso   1.000  H
  H53      1.0000 0.87110  0.00400  0.96420  Biso   1.000  H
  H54      1.0000 0.12890  0.99600  0.46420  Biso   1.000  H
  H55      1.0000 0.37110  0.99600  0.96420  Biso   1.000  H
  H56      1.0000 0.62890  0.00400  0.46420  Biso   1.000  H
  C13      1.0000 0.75130  0.99040  0.97030  Biso   1.000  C
  C14      1.0000 0.24870  0.00960  0.47030  Biso   1.000  C
  C15      1.0000 0.25130  0.00960  0.97030  Biso   1.000  C
  C16      1.0000 0.74870  0.99040  0.47030  Biso   1.000  C
  C17      1.0000 0.82070  0.06020  0.10610  Biso   1.000  C
  C18      1.0000 0.17930  0.93980  0.60610  Biso   1.000  C
  C19      1.0000 0.32070  0.93980  0.10610  Biso   1.000  C
  C20      1.0000 0.67930  0.06020  0.60610  Biso   1.000  C
  H57      1.0000 0.77140  0.02600  0.10240  Biso   1.000  H
  H58      1.0000 0.22860  0.97400  0.60240  Biso   1.000  H
  H59      1.0000 0.27140  0.97400  0.10240  Biso   1.000  H
  H60      1.0000 0.72860  0.02600  0.60240  Biso   1.000  H
  H61      1.0000 0.86450  0.01920  0.11510  Biso   1.000  H
  H62      1.0000 0.13550  0.98080  0.61510  Biso   1.000  H
  H63      1.0000 0.36450  0.98080  0.11510  Biso   1.000  H
  H64      1.0000 0.63550  0.01920  0.61510  Biso   1.000  H
  C21      1.0000 0.81400  0.12220  0.17140  Biso   1.000  C
  C22      1.0000 0.18600  0.87780  0.67140  Biso   1.000  C
  C23      1.0000 0.31400  0.87780  0.17140  Biso   1.000  C
  C24      1.0000 0.68600  0.12220  0.67140  Biso   1.000  C
  C25      1.0000 0.63720  0.39780  0.02280  Biso   1.000  C
  C26      1.0000 0.36280  0.60220  0.52280  Biso   1.000  C
  C27      1.0000 0.13720  0.60220  0.02280  Biso   1.000  C
  C28      1.0000 0.86280  0.39780  0.52280  Biso   1.000  C
  C29      1.0000 0.54770  0.36350  0.02180  Biso   1.000  C
  C30      1.0000 0.45230  0.63650  0.52180  Biso   1.000  C
  C31      1.0000 0.04770  0.63650  0.02180  Biso   1.000  C
  C32      1.0000 0.95230  0.36350  0.52180  Biso   1.000  C
  C33      1.0000 0.64310  0.45600  0.95190  Biso   1.000  C
  C34      1.0000 0.35690  0.54400  0.45190  Biso   1.000  C
  C35      1.0000 0.14310  0.54400  0.95190  Biso   1.000  C
  C36      1.0000 0.85690  0.45600  0.45190  Biso   1.000  C
  H65      1.0000 0.59770  0.49630  0.94970  Biso   1.000  H
  H66      1.0000 0.40230  0.50370  0.44970  Biso   1.000  H
  H67      1.0000 0.09770  0.50370  0.94970  Biso   1.000  H
  H68      1.0000 0.90230  0.49630  0.44970  Biso   1.000  H
  H69      1.0000 0.64180  0.41870  0.90810  Biso   1.000  H
  H70      1.0000 0.35820  0.58130  0.40810  Biso   1.000  H
  H71      1.0000 0.14180  0.58130  0.90810  Biso   1.000  H
  H72      1.0000 0.85820  0.41870  0.40810  Biso   1.000  H
  C37      1.0000 0.72550  0.51090  0.95390  Biso   1.000  C
  C38      1.0000 0.27450  0.48910  0.45390  Biso   1.000  C
  C39      1.0000 0.22550  0.48910  0.95390  Biso   1.000  C
  C40      1.0000 0.77450  0.51090  0.45390  Biso   1.000  C
  C41      1.0000 0.65160  0.44970  0.09300  Biso   1.000  C
  C42      1.0000 0.34840  0.55030  0.59300  Biso   1.000  C
  C43      1.0000 0.15160  0.55030  0.09300  Biso   1.000  C
  C44      1.0000 0.84840  0.44970  0.59300  Biso   1.000  C
  H73      1.0000 0.60910  0.49310  0.09890  Biso   1.000  H
  H74      1.0000 0.39090  0.50690  0.59890  Biso   1.000  H
  H75      1.0000 0.10910  0.50690  0.09890  Biso   1.000  H
  H76      1.0000 0.89090  0.49310  0.59890  Biso   1.000  H
  H77      1.0000 0.70230  0.48130  0.08880  Biso   1.000  H
  H78      1.0000 0.29770  0.51870  0.58880  Biso   1.000  H
  H79      1.0000 0.20230  0.51870  0.08880  Biso   1.000  H
  H80      1.0000 0.79770  0.48130  0.58880  Biso   1.000  H
  C45      1.0000 0.65420  0.39080  0.16150  Biso   1.000  C
  C46      1.0000 0.34580  0.60920  0.66150  Biso   1.000  C
  C47      1.0000 0.15420  0.60920  0.16150  Biso   1.000  C
  C48      1.0000 0.84580  0.39080  0.66150  Biso   1.000  C
  C49      1.0000 0.85320  0.91140  0.70460  Biso   1.000  C
  C50      1.0000 0.14680  0.08860  0.20460  Biso   1.000  C
  C51      1.0000 0.35320  0.08860  0.70460  Biso   1.000  C
  C52      1.0000 0.64680  0.91140  0.20460  Biso   1.000  C
  H81      1.0000 0.81340  0.91230  0.66820  Biso   1.000  H
  H82      1.0000 0.18660  0.08770  0.16820  Biso   1.000  H
  H83      1.0000 0.31340  0.08770  0.66820  Biso   1.000  H
  H84      1.0000 0.68660  0.91230  0.16820  Biso   1.000  H
  C53      1.0000 0.90890  0.97500  0.70100  Biso   1.000  C
  C54      1.0000 0.09110  0.02500  0.20100  Biso   1.000  C
  C55      1.0000 0.40890  0.02500  0.70100  Biso   1.000  C
  C56      1.0000 0.59110  0.97500  0.20100  Biso   1.000  C
  H85      1.0000 0.90550  0.01960  0.66550  Biso   1.000  H
  H86      1.0000 0.09450  0.98040  0.16550  Biso   1.000  H
  H87      1.0000 0.40550  0.98040  0.66550  Biso   1.000  H
  H88      1.0000 0.59450  0.01960  0.16550  Biso   1.000  H
  C57      1.0000 0.97290  0.97310  0.75230  Biso   1.000  C
  C58      1.0000 0.02710  0.02690  0.25230  Biso   1.000  C
  C59      1.0000 0.47290  0.02690  0.75230  Biso   1.000  C
  C60      1.0000 0.52710  0.97310  0.25230  Biso   1.000  C
  C61      1.0000 0.96950  0.90730  0.80580  Biso   1.000  C
  C62      1.0000 0.03050  0.09270  0.30580  Biso   1.000  C
  C63      1.0000 0.46950  0.09270  0.80580  Biso   1.000  C
  C64      1.0000 0.53050  0.90730  0.30580  Biso   1.000  C
  H89      1.0000 0.00900  0.90410  0.84240  Biso   1.000  H
  H90      1.0000 0.99100  0.09590  0.34240  Biso   1.000  H
  H91      1.0000 0.50900  0.09590  0.84240  Biso   1.000  H
  H92      1.0000 0.49100  0.90410  0.34240  Biso   1.000  H
  C65      1.0000 0.90720  0.84620  0.80490  Biso   1.000  C
  C66      1.0000 0.09280  0.15380  0.30490  Biso   1.000  C
  C67      1.0000 0.40720  0.15380  0.80490  Biso   1.000  C
  C68      1.0000 0.59280  0.84620  0.30490  Biso   1.000  C
  H93      1.0000 0.90670  0.80270  0.84150  Biso   1.000  H
  H94      1.0000 0.09330  0.19730  0.34150  Biso   1.000  H
  H95      1.0000 0.40670  0.19730  0.84150  Biso   1.000  H
  H96      1.0000 0.59330  0.80270  0.34150  Biso   1.000  H
  C69      1.0000 0.91500  0.66350  0.70260  Biso   1.000  C
  C70      1.0000 0.08500  0.33650  0.20260  Biso   1.000  C
  C71      1.0000 0.41500  0.33650  0.70260  Biso   1.000  C
  C72      1.0000 0.58500  0.66350  0.20260  Biso   1.000  C
  H97      1.0000 0.91380  0.70770  0.66670  Biso   1.000  H
  H98      1.0000 0.08620  0.29230  0.16670  Biso   1.000  H
  H99      1.0000 0.41380  0.29230  0.66670  Biso   1.000  H
  H100     1.0000 0.58620  0.70770  0.16670  Biso   1.000  H
  C73      1.0000 0.98050  0.60480  0.70500  Biso   1.000  C
  C74      1.0000 0.01950  0.39520  0.20500  Biso   1.000  C
  C75      1.0000 0.48050  0.39520  0.70500  Biso   1.000  C
  C76      1.0000 0.51950  0.60480  0.20500  Biso   1.000  C
  H101     1.0000 0.02210  0.61100  0.67080  Biso   1.000  H
  H102     1.0000 0.97790  0.38900  0.17080  Biso   1.000  H
  H103     1.0000 0.52210  0.38900  0.67080  Biso   1.000  H
  H104     1.0000 0.47790  0.61100  0.17080  Biso   1.000  H
  C77      1.0000 0.98430  0.53770  0.75730  Biso   1.000  C
  C78      1.0000 0.01570  0.46230  0.25730  Biso   1.000  C
  C79      1.0000 0.48430  0.46230  0.75730  Biso   1.000  C
  C80      1.0000 0.51570  0.53770  0.25730  Biso   1.000  C
  C81      1.0000 0.92090  0.53490  0.80840  Biso   1.000  C
  C82      1.0000 0.07910  0.46510  0.30840  Biso   1.000  C
  C83      1.0000 0.42090  0.46510  0.80840  Biso   1.000  C
  C84      1.0000 0.57910  0.53490  0.30840  Biso   1.000  C
  H105     1.0000 0.92080  0.49240  0.84570  Biso   1.000  H
  H106     1.0000 0.07920  0.50760  0.34570  Biso   1.000  H
  H107     1.0000 0.42080  0.50760  0.84570  Biso   1.000  H
  H108     1.0000 0.57920  0.49240  0.34570  Biso   1.000  H
  C85      1.0000 0.86000  0.59380  0.80370  Biso   1.000  C
  C86      1.0000 0.14000  0.40620  0.30370  Biso   1.000  C
  C87      1.0000 0.36000  0.40620  0.80370  Biso   1.000  C
  C88      1.0000 0.64000  0.59380  0.30370  Biso   1.000  C
  H109     1.0000 0.81940  0.59030  0.83920  Biso   1.000  H
  H110     1.0000 0.18060  0.40970  0.33920  Biso   1.000  H
  H111     1.0000 0.31940  0.40970  0.83920  Biso   1.000  H
  H112     1.0000 0.68060  0.59030  0.33920  Biso   1.000  H
  C89      1.0000 0.18060  0.41900  0.71460  Biso   1.000  C
  C90      1.0000 0.81940  0.58100  0.21460  Biso   1.000  C
  C91      1.0000 0.68060  0.58100  0.71460  Biso   1.000  C
  C92      1.0000 0.31940  0.41900  0.21460  Biso   1.000  C
  H113     1.0000 0.22500  0.42710  0.68380  Biso   1.000  H
  H114     1.0000 0.77500  0.57290  0.18380  Biso   1.000  H
  H115     1.0000 0.72500  0.57290  0.68380  Biso   1.000  H
  H116     1.0000 0.27500  0.42710  0.18380  Biso   1.000  H
  C93      1.0000 0.11970  0.48390  0.71380  Biso   1.000  C
  C94      1.0000 0.88030  0.51610  0.21380  Biso   1.000  C
  C95      1.0000 0.61970  0.51610  0.71380  Biso   1.000  C
  C96      1.0000 0.38030  0.48390  0.21380  Biso   1.000  C
  H117     1.0000 0.12570  0.53400  0.68420  Biso   1.000  H
  H118     1.0000 0.87430  0.46600  0.18420  Biso   1.000  H
  H119     1.0000 0.62570  0.46600  0.68420  Biso   1.000  H
  H120     1.0000 0.37430  0.53400  0.18420  Biso   1.000  H
  C97      1.0000 0.05080  0.47370  0.75690  Biso   1.000  C
  C98      1.0000 0.94920  0.52630  0.25690  Biso   1.000  C
  C99      1.0000 0.55080  0.52630  0.75690  Biso   1.000  C
  C100     1.0000 0.44920  0.47370  0.25690  Biso   1.000  C
  C101     1.0000 0.04860  0.39690  0.80190  Biso   1.000  C
  C102     1.0000 0.95140  0.60310  0.30190  Biso   1.000  C
  C103     1.0000 0.54860  0.60310  0.80190  Biso   1.000  C
  C104     1.0000 0.45140  0.39690  0.30190  Biso   1.000  C
  H121     1.0000 0.00510  0.38650  0.83340  Biso   1.000  H
  H122     1.0000 0.99490  0.61350  0.33340  Biso   1.000  H
  H123     1.0000 0.50510  0.61350  0.83340  Biso   1.000  H
  H124     1.0000 0.49490  0.38650  0.33340  Biso   1.000  H
  C105     1.0000 0.11090  0.33830  0.79860  Biso   1.000  C
  C106     1.0000 0.88910  0.66170  0.29860  Biso   1.000  C
  C107     1.0000 0.61090  0.66170  0.79860  Biso   1.000  C
  C108     1.0000 0.38910  0.33830  0.29860  Biso   1.000  C
  H125     1.0000 0.10650  0.28790  0.82800  Biso   1.000  H
  H126     1.0000 0.89350  0.71210  0.32800  Biso   1.000  H
  H127     1.0000 0.60650  0.71210  0.82800  Biso   1.000  H
  H128     1.0000 0.39350  0.28790  0.32800  Biso   1.000  H
  C109     1.0000 0.10750  0.16550  0.70130  Biso   1.000  C
  C110     1.0000 0.89250  0.83450  0.20130  Biso   1.000  C
  C111     1.0000 0.60750  0.83450  0.70130  Biso   1.000  C
  C112     1.0000 0.39250  0.16550  0.20130  Biso   1.000  C
  H129     1.0000 0.10750  0.21250  0.66790  Biso   1.000  H
  H130     1.0000 0.89250  0.78750  0.16790  Biso   1.000  H
  H131     1.0000 0.60750  0.78750  0.66790  Biso   1.000  H
  H132     1.0000 0.39250  0.21250  0.16790  Biso   1.000  H
  C113     1.0000 0.04180  0.10870  0.70280  Biso   1.000  C
  C114     1.0000 0.95820  0.89130  0.20280  Biso   1.000  C
  C115     1.0000 0.54180  0.89130  0.70280  Biso   1.000  C
  C116     1.0000 0.45820  0.10870  0.20280  Biso   1.000  C
  H133     1.0000 0.99780  0.11920  0.67200  Biso   1.000  H
  H134     1.0000 0.00220  0.88080  0.17200  Biso   1.000  H
  H135     1.0000 0.49780  0.88080  0.67200  Biso   1.000  H
  H136     1.0000 0.50220  0.11920  0.17200  Biso   1.000  H
  C117     1.0000 0.04180  0.03830  0.74880  Biso   1.000  C
  C118     1.0000 0.95820  0.96170  0.24880  Biso   1.000  C
  C119     1.0000 0.54180  0.96170  0.74880  Biso   1.000  C
  C120     1.0000 0.45820  0.03830  0.24880  Biso   1.000  C
  C121     1.0000 0.10960  0.02850  0.79480  Biso   1.000  C
  C122     1.0000 0.89040  0.97150  0.29480  Biso   1.000  C
  C123     1.0000 0.60960  0.97150  0.79480  Biso   1.000  C
  C124     1.0000 0.39040  0.02850  0.29480  Biso   1.000  C
  H137     1.0000 0.11060  0.98260  0.82920  Biso   1.000  H
  H138     1.0000 0.88940  0.01740  0.32920  Biso   1.000  H
  H139     1.0000 0.61060  0.01740  0.82920  Biso   1.000  H
  H140     1.0000 0.38940  0.98260  0.32920  Biso   1.000  H
  C125     1.0000 0.17320  0.08370  0.79050  Biso   1.000  C
  C126     1.0000 0.82680  0.91630  0.29050  Biso   1.000  C
  C127     1.0000 0.67320  0.91630  0.79050  Biso   1.000  C
  C128     1.0000 0.32680  0.08370  0.29050  Biso   1.000  C
  H141     1.0000 0.21910  0.07240  0.81840  Biso   1.000  H
  H142     1.0000 0.78090  0.92760  0.31840  Biso   1.000  H
  H143     1.0000 0.71910  0.92760  0.81840  Biso   1.000  H
  H144     1.0000 0.28090  0.07240  0.31840  Biso   1.000  H
