data_image0
_cell_length_a       16.0646
_cell_length_b       24.026
_cell_length_c       11.9054
_cell_angle_alpha    90
_cell_angle_beta     90
_cell_angle_gamma    90

_symmetry_space_group_name_H-M    "P 1"
_symmetry_int_tables_number       1

loop_
  _symmetry_equiv_pos_as_xyz
  'x, y, z'

loop_
  _atom_site_label
  _atom_site_occupancy
  _atom_site_fract_x
  _atom_site_fract_y
  _atom_site_fract_z
  _atom_site_thermal_displace_type
  _atom_site_B_iso_or_equiv
  _atom_site_type_symbol
  Cu1      1.0000 0.46627  0.24382  0.34480  Biso   1.000  Cu
  Cu2      1.0000 0.53373  0.75618  0.84480  Biso   1.000  Cu
  Cu3      1.0000 0.03373  0.74382  0.84480  Biso   1.000  Cu
  Cu4      1.0000 0.96627  0.25618  0.34480  Biso   1.000  Cu
  S1       1.0000 0.36483  0.29269  0.70760  Biso   1.000  S
  S2       1.0000 0.63517  0.70731  0.20760  Biso   1.000  S
  S3       1.0000 0.13517  0.79269  0.20760  Biso   1.000  S
  S4       1.0000 0.86483  0.20731  0.70760  Biso   1.000  S
  S5       1.0000 0.04708  0.24736  0.89992  Biso   1.000  S
  S6       1.0000 0.95292  0.75264  0.39992  Biso   1.000  S
  S7       1.0000 0.45292  0.74736  0.39992  Biso   1.000  S
  S8       1.0000 0.54708  0.25264  0.89992  Biso   1.000  S
  F1       1.0000 0.09540  0.45890  0.01000  Biso   1.000  F
  F2       1.0000 0.90460  0.54110  0.51000  Biso   1.000  F
  F3       1.0000 0.40460  0.95890  0.51000  Biso   1.000  F
  F4       1.0000 0.59540  0.04110  0.01000  Biso   1.000  F
  F5       1.0000 0.01870  0.45720  0.86340  Biso   1.000  F
  F6       1.0000 0.98130  0.54280  0.36340  Biso   1.000  F
  F7       1.0000 0.48130  0.95720  0.36340  Biso   1.000  F
  F8       1.0000 0.51870  0.04280  0.86340  Biso   1.000  F
  F9       1.0000 0.19730  0.52070  0.94420  Biso   1.000  F
  F10      1.0000 0.80270  0.47930  0.44420  Biso   1.000  F
  F11      1.0000 0.30270  0.02070  0.44420  Biso   1.000  F
  F12      1.0000 0.69730  0.97930  0.94420  Biso   1.000  F
  F13      1.0000 0.11070  0.54220  0.80900  Biso   1.000  F
  F14      1.0000 0.88930  0.45780  0.30900  Biso   1.000  F
  F15      1.0000 0.38930  0.04220  0.30900  Biso   1.000  F
  F16      1.0000 0.61070  0.95780  0.80900  Biso   1.000  F
  F17      1.0000 0.28920  0.49120  0.79950  Biso   1.000  F
  F18      1.0000 0.71080  0.50880  0.29950  Biso   1.000  F
  F19      1.0000 0.21080  0.99120  0.29950  Biso   1.000  F
  F20      1.0000 0.78920  0.00880  0.79950  Biso   1.000  F
  F21      1.0000 0.20150  0.48750  0.66580  Biso   1.000  F
  F22      1.0000 0.79850  0.51250  0.16580  Biso   1.000  F
  F23      1.0000 0.29850  0.98750  0.16580  Biso   1.000  F
  F24      1.0000 0.70150  0.01250  0.66580  Biso   1.000  F
  O1       1.0000 0.40780  0.27250  0.47600  Biso   1.000  O
  O2       1.0000 0.59220  0.72750  0.97600  Biso   1.000  O
  O3       1.0000 0.09220  0.77250  0.97600  Biso   1.000  O
  O4       1.0000 0.90780  0.22750  0.47600  Biso   1.000  O
  O5       1.0000 0.36260  0.35310  0.40300  Biso   1.000  O
  O6       1.0000 0.63740  0.64690  0.90300  Biso   1.000  O
  O7       1.0000 0.13740  0.85310  0.90300  Biso   1.000  O
  O8       1.0000 0.86260  0.14690  0.40300  Biso   1.000  O
  O9       1.0000 0.02660  0.28770  0.21730  Biso   1.000  O
  O10      1.0000 0.97340  0.71230  0.71730  Biso   1.000  O
  O11      1.0000 0.47340  0.78770  0.71730  Biso   1.000  O
  O12      1.0000 0.52660  0.21230  0.21730  Biso   1.000  O
  O13      1.0000 0.98600  0.21080  0.12560  Biso   1.000  O
  O14      1.0000 0.01400  0.78920  0.62560  Biso   1.000  O
  O15      1.0000 0.51400  0.71080  0.62560  Biso   1.000  O
  O16      1.0000 0.48600  0.28920  0.12560  Biso   1.000  O
  N1       1.0000 0.48840  0.16360  0.44530  Biso   1.000  N
  N2       1.0000 0.51160  0.83640  0.94530  Biso   1.000  N
  N3       1.0000 0.01160  0.66360  0.94530  Biso   1.000  N
  N4       1.0000 0.98840  0.33640  0.44530  Biso   1.000  N
  N5       1.0000 0.35890  0.21930  0.26820  Biso   1.000  N
  N6       1.0000 0.64110  0.78070  0.76820  Biso   1.000  N
  N7       1.0000 0.14110  0.71930  0.76820  Biso   1.000  N
  N8       1.0000 0.85890  0.28070  0.26820  Biso   1.000  N
  N9       1.0000 0.56660  0.29070  0.39100  Biso   1.000  N
  N10      1.0000 0.43340  0.70930  0.89100  Biso   1.000  N
  N11      1.0000 0.93340  0.79070  0.89100  Biso   1.000  N
  N12      1.0000 0.06660  0.20930  0.39100  Biso   1.000  N
  C1       1.0000 0.20420  0.41150  0.79290  Biso   1.000  C
  C2       1.0000 0.79580  0.58850  0.29290  Biso   1.000  C
  C3       1.0000 0.29580  0.91150  0.29290  Biso   1.000  C
  C4       1.0000 0.70420  0.08850  0.79290  Biso   1.000  C
  C5       1.0000 0.13860  0.40100  0.85930  Biso   1.000  C
  C6       1.0000 0.86140  0.59900  0.35930  Biso   1.000  C
  C7       1.0000 0.36140  0.90100  0.35930  Biso   1.000  C
  C8       1.0000 0.63860  0.09900  0.85930  Biso   1.000  C
  C9       1.0000 0.09770  0.45340  0.89800  Biso   1.000  C
  C10      1.0000 0.90230  0.54660  0.39800  Biso   1.000  C
  C11      1.0000 0.40230  0.95340  0.39800  Biso   1.000  C
  C12      1.0000 0.59770  0.04660  0.89800  Biso   1.000  C
  C13      1.0000 0.14790  0.50150  0.84670  Biso   1.000  C
  C14      1.0000 0.85210  0.49850  0.34670  Biso   1.000  C
  C15      1.0000 0.35210  0.00150  0.34670  Biso   1.000  C
  C16      1.0000 0.64790  0.99850  0.84670  Biso   1.000  C
  C17      1.0000 0.21400  0.47300  0.77400  Biso   1.000  C
  C18      1.0000 0.78600  0.52700  0.27400  Biso   1.000  C
  C19      1.0000 0.28600  0.97300  0.27400  Biso   1.000  C
  C20      1.0000 0.71400  0.02700  0.77400  Biso   1.000  C
  C21      1.0000 0.30360  0.33080  0.79840  Biso   1.000  C
  C22      1.0000 0.69640  0.66920  0.29840  Biso   1.000  C
  C23      1.0000 0.19640  0.83080  0.29840  Biso   1.000  C
  C24      1.0000 0.80360  0.16920  0.79840  Biso   1.000  C
  C25      1.0000 0.26280  0.37290  0.74060  Biso   1.000  C
  C26      1.0000 0.73720  0.62710  0.24060  Biso   1.000  C
  C27      1.0000 0.23720  0.87290  0.24060  Biso   1.000  C
  C28      1.0000 0.76280  0.12710  0.74060  Biso   1.000  C
  C29      1.0000 0.28420  0.37440  0.62380  Biso   1.000  C
  C30      1.0000 0.71580  0.62560  0.12380  Biso   1.000  C
  C31      1.0000 0.21580  0.87440  0.12380  Biso   1.000  C
  C32      1.0000 0.78420  0.12560  0.62380  Biso   1.000  C
  C33      1.0000 0.33770  0.33350  0.59400  Biso   1.000  C
  C34      1.0000 0.66230  0.66650  0.09400  Biso   1.000  C
  C35      1.0000 0.16230  0.83350  0.09400  Biso   1.000  C
  C36      1.0000 0.83770  0.16650  0.59400  Biso   1.000  C
  C37      1.0000 0.30130  0.31570  0.92030  Biso   1.000  C
  C38      1.0000 0.69870  0.68430  0.42030  Biso   1.000  C
  C39      1.0000 0.19870  0.81570  0.42030  Biso   1.000  C
  C40      1.0000 0.80130  0.18430  0.92030  Biso   1.000  C
  C41      1.0000 0.37160  0.31990  0.47990  Biso   1.000  C
  C42      1.0000 0.62840  0.68010  0.97990  Biso   1.000  C
  C43      1.0000 0.12840  0.81990  0.97990  Biso   1.000  C
  C44      1.0000 0.87160  0.18010  0.47990  Biso   1.000  C
  C45      1.0000 0.08910  0.30200  0.82650  Biso   1.000  C
  C46      1.0000 0.91090  0.69800  0.32650  Biso   1.000  C
  C47      1.0000 0.41090  0.80200  0.32650  Biso   1.000  C
  C48      1.0000 0.58910  0.19800  0.82650  Biso   1.000  C
  C49      1.0000 0.10320  0.34710  0.89490  Biso   1.000  C
  C50      1.0000 0.89680  0.65290  0.39490  Biso   1.000  C
  C51      1.0000 0.39680  0.84710  0.39490  Biso   1.000  C
  C52      1.0000 0.60320  0.15290  0.89490  Biso   1.000  C
  C53      1.0000 0.07870  0.33650  0.00820  Biso   1.000  C
  C54      1.0000 0.92130  0.66350  0.50820  Biso   1.000  C
  C55      1.0000 0.42130  0.83650  0.50820  Biso   1.000  C
  C56      1.0000 0.57870  0.16350  0.00820  Biso   1.000  C
  C57      1.0000 0.04800  0.28450  0.02420  Biso   1.000  C
  C58      1.0000 0.95200  0.71550  0.52420  Biso   1.000  C
  C59      1.0000 0.45200  0.78450  0.52420  Biso   1.000  C
  C60      1.0000 0.54800  0.21550  0.02420  Biso   1.000  C
  C61      1.0000 0.10440  0.29480  0.70140  Biso   1.000  C
  C62      1.0000 0.89560  0.70520  0.20140  Biso   1.000  C
  C63      1.0000 0.39560  0.79480  0.20140  Biso   1.000  C
  C64      1.0000 0.60440  0.20520  0.70140  Biso   1.000  C
  C65      1.0000 0.01770  0.25790  0.12920  Biso   1.000  C
  C66      1.0000 0.98230  0.74210  0.62920  Biso   1.000  C
  C67      1.0000 0.48230  0.75790  0.62920  Biso   1.000  C
  C68      1.0000 0.51770  0.24210  0.12920  Biso   1.000  C
  C69      1.0000 0.44070  0.15120  0.53510  Biso   1.000  C
  C70      1.0000 0.55930  0.84880  0.03510  Biso   1.000  C
  C71      1.0000 0.05930  0.65120  0.03510  Biso   1.000  C
  C72      1.0000 0.94070  0.34880  0.53510  Biso   1.000  C
  C73      1.0000 0.44880  0.10350  0.59720  Biso   1.000  C
  C74      1.0000 0.55120  0.89650  0.09720  Biso   1.000  C
  C75      1.0000 0.05120  0.60350  0.09720  Biso   1.000  C
  C76      1.0000 0.94880  0.39650  0.59720  Biso   1.000  C
  C77      1.0000 0.51120  0.06680  0.56690  Biso   1.000  C
  C78      1.0000 0.48880  0.93320  0.06690  Biso   1.000  C
  C79      1.0000 0.98880  0.56680  0.06690  Biso   1.000  C
  C80      1.0000 0.01120  0.43320  0.56690  Biso   1.000  C
  C81      1.0000 0.56200  0.07780  0.47690  Biso   1.000  C
  C82      1.0000 0.43800  0.92220  0.97690  Biso   1.000  C
  C83      1.0000 0.93800  0.57780  0.97690  Biso   1.000  C
  C84      1.0000 0.06200  0.42220  0.47690  Biso   1.000  C
  C85      1.0000 0.54760  0.12680  0.41750  Biso   1.000  C
  C86      1.0000 0.45240  0.87320  0.91750  Biso   1.000  C
  C87      1.0000 0.95240  0.62680  0.91750  Biso   1.000  C
  C88      1.0000 0.04760  0.37320  0.41750  Biso   1.000  C
  C89      1.0000 0.30190  0.25650  0.23630  Biso   1.000  C
  C90      1.0000 0.69810  0.74350  0.73630  Biso   1.000  C
  C91      1.0000 0.19810  0.75650  0.73630  Biso   1.000  C
  C92      1.0000 0.80190  0.24350  0.23630  Biso   1.000  C
  C93      1.0000 0.23110  0.24240  0.17750  Biso   1.000  C
  C94      1.0000 0.76890  0.75760  0.67750  Biso   1.000  C
  C95      1.0000 0.26890  0.74240  0.67750  Biso   1.000  C
  C96      1.0000 0.73110  0.25760  0.17750  Biso   1.000  C
  C97      1.0000 0.21760  0.18720  0.15080  Biso   1.000  C
  C98      1.0000 0.78240  0.81280  0.65080  Biso   1.000  C
  C99      1.0000 0.28240  0.68720  0.65080  Biso   1.000  C
  C100     1.0000 0.71760  0.31280  0.15080  Biso   1.000  C
  C101     1.0000 0.27680  0.14910  0.18200  Biso   1.000  C
  C102     1.0000 0.72320  0.85090  0.68200  Biso   1.000  C
  C103     1.0000 0.22320  0.64910  0.68200  Biso   1.000  C
  C104     1.0000 0.77680  0.35090  0.18200  Biso   1.000  C
  C105     1.0000 0.34630  0.16640  0.24030  Biso   1.000  C
  C106     1.0000 0.65370  0.83360  0.74030  Biso   1.000  C
  C107     1.0000 0.15370  0.66640  0.74030  Biso   1.000  C
  C108     1.0000 0.84630  0.33360  0.24030  Biso   1.000  C
  C109     1.0000 0.56450  0.34580  0.37760  Biso   1.000  C
  C110     1.0000 0.43550  0.65420  0.87760  Biso   1.000  C
  C111     1.0000 0.93550  0.84580  0.87760  Biso   1.000  C
  C112     1.0000 0.06450  0.15420  0.37760  Biso   1.000  C
  C113     1.0000 0.62750  0.38040  0.41590  Biso   1.000  C
  C114     1.0000 0.37250  0.61960  0.91590  Biso   1.000  C
  C115     1.0000 0.87250  0.88040  0.91590  Biso   1.000  C
  C116     1.0000 0.12750  0.11960  0.41590  Biso   1.000  C
  C117     1.0000 0.69570  0.35680  0.46650  Biso   1.000  C
  C118     1.0000 0.30430  0.64320  0.96650  Biso   1.000  C
  C119     1.0000 0.80430  0.85680  0.96650  Biso   1.000  C
  C120     1.0000 0.19570  0.14320  0.46650  Biso   1.000  C
  C121     1.0000 0.69950  0.29940  0.47840  Biso   1.000  C
  C122     1.0000 0.30050  0.70060  0.97840  Biso   1.000  C
  C123     1.0000 0.80050  0.79940  0.97840  Biso   1.000  C
  C124     1.0000 0.19950  0.20060  0.47840  Biso   1.000  C
  C125     1.0000 0.63420  0.26840  0.43920  Biso   1.000  C
  C126     1.0000 0.36580  0.73160  0.93920  Biso   1.000  C
  C127     1.0000 0.86580  0.76840  0.93920  Biso   1.000  C
  C128     1.0000 0.13420  0.23160  0.43920  Biso   1.000  C
  H1       1.0000 0.26300  0.40150  0.57240  Biso   1.000  H
  H2       1.0000 0.73700  0.59850  0.07240  Biso   1.000  H
  H3       1.0000 0.23700  0.90150  0.07240  Biso   1.000  H
  H4       1.0000 0.76300  0.09850  0.57240  Biso   1.000  H
  H5       1.0000 0.28640  0.34790  0.96380  Biso   1.000  H
  H6       1.0000 0.71360  0.65210  0.46380  Biso   1.000  H
  H7       1.0000 0.21360  0.84790  0.46380  Biso   1.000  H
  H8       1.0000 0.78640  0.15210  0.96380  Biso   1.000  H
  H9       1.0000 0.35510  0.30260  0.94330  Biso   1.000  H
  H10      1.0000 0.64490  0.69740  0.44330  Biso   1.000  H
  H11      1.0000 0.14490  0.80260  0.44330  Biso   1.000  H
  H12      1.0000 0.85510  0.19740  0.94330  Biso   1.000  H
  H13      1.0000 0.26070  0.28690  0.93200  Biso   1.000  H
  H14      1.0000 0.73930  0.71310  0.43200  Biso   1.000  H
  H15      1.0000 0.23930  0.78690  0.43200  Biso   1.000  H
  H16      1.0000 0.76070  0.21310  0.93200  Biso   1.000  H
  H17      1.0000 0.08310  0.36340  0.06700  Biso   1.000  H
  H18      1.0000 0.91690  0.63660  0.56700  Biso   1.000  H
  H19      1.0000 0.41690  0.86340  0.56700  Biso   1.000  H
  H20      1.0000 0.58310  0.13660  0.06700  Biso   1.000  H
  H21      1.0000 0.10160  0.33050  0.66510  Biso   1.000  H
  H22      1.0000 0.89840  0.66950  0.16510  Biso   1.000  H
  H23      1.0000 0.39840  0.83050  0.16510  Biso   1.000  H
  H24      1.0000 0.60160  0.16950  0.66510  Biso   1.000  H
  H25      1.0000 0.06270  0.27070  0.67040  Biso   1.000  H
  H26      1.0000 0.93730  0.72930  0.17040  Biso   1.000  H
  H27      1.0000 0.43730  0.77070  0.17040  Biso   1.000  H
  H28      1.0000 0.56270  0.22930  0.67040  Biso   1.000  H
  H29      1.0000 0.15850  0.27880  0.68980  Biso   1.000  H
  H30      1.0000 0.84150  0.72120  0.18980  Biso   1.000  H
  H31      1.0000 0.34150  0.77880  0.18980  Biso   1.000  H
  H32      1.0000 0.65850  0.22120  0.68980  Biso   1.000  H
  H33      1.0000 0.39820  0.17720  0.55660  Biso   1.000  H
  H34      1.0000 0.60180  0.82280  0.05660  Biso   1.000  H
  H35      1.0000 0.10180  0.67720  0.05660  Biso   1.000  H
  H36      1.0000 0.89820  0.32280  0.55660  Biso   1.000  H
  H37      1.0000 0.41280  0.09570  0.65930  Biso   1.000  H
  H38      1.0000 0.58720  0.90430  0.15930  Biso   1.000  H
  H39      1.0000 0.08720  0.59570  0.15930  Biso   1.000  H
  H40      1.0000 0.91280  0.40430  0.65930  Biso   1.000  H
  H41      1.0000 0.51910  0.03320  0.60940  Biso   1.000  H
  H42      1.0000 0.48090  0.96680  0.10940  Biso   1.000  H
  H43      1.0000 0.98090  0.53320  0.10940  Biso   1.000  H
  H44      1.0000 0.01910  0.46680  0.60940  Biso   1.000  H
  H45      1.0000 0.60580  0.05280  0.45580  Biso   1.000  H
  H46      1.0000 0.39420  0.94720  0.95580  Biso   1.000  H
  H47      1.0000 0.89420  0.55280  0.95580  Biso   1.000  H
  H48      1.0000 0.10580  0.44720  0.45580  Biso   1.000  H
  H49      1.0000 0.58160  0.13450  0.35320  Biso   1.000  H
  H50      1.0000 0.41840  0.86550  0.85320  Biso   1.000  H
  H51      1.0000 0.91840  0.63450  0.85320  Biso   1.000  H
  H52      1.0000 0.08160  0.36550  0.35320  Biso   1.000  H
  H53      1.0000 0.31060  0.29490  0.25530  Biso   1.000  H
  H54      1.0000 0.68940  0.70510  0.75530  Biso   1.000  H
  H55      1.0000 0.18940  0.79490  0.75530  Biso   1.000  H
  H56      1.0000 0.81060  0.20510  0.25530  Biso   1.000  H
  H57      1.0000 0.19180  0.27050  0.15530  Biso   1.000  H
  H58      1.0000 0.80820  0.72950  0.65530  Biso   1.000  H
  H59      1.0000 0.30820  0.77050  0.65530  Biso   1.000  H
  H60      1.0000 0.69180  0.22950  0.15530  Biso   1.000  H
  H61      1.0000 0.16820  0.17580  0.11170  Biso   1.000  H
  H62      1.0000 0.83180  0.82420  0.61170  Biso   1.000  H
  H63      1.0000 0.33180  0.67580  0.61170  Biso   1.000  H
  H64      1.0000 0.66820  0.32420  0.11170  Biso   1.000  H
  H65      1.0000 0.26990  0.11050  0.16340  Biso   1.000  H
  H66      1.0000 0.73010  0.88950  0.66340  Biso   1.000  H
  H67      1.0000 0.23010  0.61050  0.66340  Biso   1.000  H
  H68      1.0000 0.76990  0.38950  0.16340  Biso   1.000  H
  H69      1.0000 0.38720  0.13920  0.26140  Biso   1.000  H
  H70      1.0000 0.61280  0.86080  0.76140  Biso   1.000  H
  H71      1.0000 0.11280  0.63920  0.76140  Biso   1.000  H
  H72      1.0000 0.88720  0.36080  0.26140  Biso   1.000  H
  H73      1.0000 0.51750  0.36220  0.34010  Biso   1.000  H
  H74      1.0000 0.48250  0.63780  0.84010  Biso   1.000  H
  H75      1.0000 0.98250  0.86220  0.84010  Biso   1.000  H
  H76      1.0000 0.01750  0.13780  0.34010  Biso   1.000  H
  H77      1.0000 0.62340  0.42000  0.40730  Biso   1.000  H
  H78      1.0000 0.37660  0.58000  0.90730  Biso   1.000  H
  H79      1.0000 0.87660  0.92000  0.90730  Biso   1.000  H
  H80      1.0000 0.12340  0.08000  0.40730  Biso   1.000  H
  H81      1.0000 0.74040  0.37980  0.49320  Biso   1.000  H
  H82      1.0000 0.25960  0.62020  0.99320  Biso   1.000  H
  H83      1.0000 0.75960  0.87980  0.99320  Biso   1.000  H
  H84      1.0000 0.24040  0.12020  0.49320  Biso   1.000  H
  H85      1.0000 0.74670  0.28190  0.51300  Biso   1.000  H
  H86      1.0000 0.25330  0.71810  0.01300  Biso   1.000  H
  H87      1.0000 0.75330  0.78190  0.01300  Biso   1.000  H
  H88      1.0000 0.24670  0.21810  0.51300  Biso   1.000  H
  H89      1.0000 0.63690  0.22860  0.44680  Biso   1.000  H
  H90      1.0000 0.36310  0.77140  0.94680  Biso   1.000  H
  H91      1.0000 0.86310  0.72860  0.94680  Biso   1.000  H
  H92      1.0000 0.13690  0.27140  0.44680  Biso   1.000  H
  O17      1.0000 0.24150  0.42890  0.34580  Biso   1.000  O
  O18      1.0000 0.75850  0.57110  0.84580  Biso   1.000  O
  O19      1.0000 0.25850  0.92890  0.84580  Biso   1.000  O
  O20      1.0000 0.74150  0.07110  0.34580  Biso   1.000  O
  C129     1.0000 0.23520  0.43120  0.23800  Biso   1.000  C
  C130     1.0000 0.76480  0.56880  0.73800  Biso   1.000  C
  C131     1.0000 0.26480  0.93120  0.73800  Biso   1.000  C
  C132     1.0000 0.73520  0.06880  0.23800  Biso   1.000  C
  C133     1.0000 0.30220  0.43630  0.16700  Biso   1.000  C
  C134     1.0000 0.69780  0.56370  0.66700  Biso   1.000  C
  C135     1.0000 0.19780  0.93630  0.66700  Biso   1.000  C
  C136     1.0000 0.80220  0.06370  0.16700  Biso   1.000  C
  H93      1.0000 0.20700  0.39790  0.21550  Biso   1.000  H
  H94      1.0000 0.79300  0.60210  0.71550  Biso   1.000  H
  H95      1.0000 0.29300  0.89790  0.71550  Biso   1.000  H
  H96      1.0000 0.70700  0.10210  0.21550  Biso   1.000  H
  H97      1.0000 0.20040  0.46290  0.22230  Biso   1.000  H
  H98      1.0000 0.79960  0.53710  0.72230  Biso   1.000  H
  H99      1.0000 0.29960  0.96290  0.72230  Biso   1.000  H
  H100     1.0000 0.70040  0.03710  0.22230  Biso   1.000  H
  H101     1.0000 0.31920  0.47460  0.16380  Biso   1.000  H
  H102     1.0000 0.68080  0.52540  0.66380  Biso   1.000  H
  H103     1.0000 0.18080  0.97460  0.66380  Biso   1.000  H
  H104     1.0000 0.81920  0.02540  0.16380  Biso   1.000  H
  H105     1.0000 0.28690  0.42390  0.09320  Biso   1.000  H
  H106     1.0000 0.71310  0.57610  0.59320  Biso   1.000  H
  H107     1.0000 0.21310  0.92390  0.59320  Biso   1.000  H
  H108     1.0000 0.78690  0.07610  0.09320  Biso   1.000  H
  H109     1.0000 0.34730  0.41400  0.19470  Biso   1.000  H
  H110     1.0000 0.65270  0.58600  0.69470  Biso   1.000  H
  H111     1.0000 0.15270  0.91400  0.69470  Biso   1.000  H
  H112     1.0000 0.84730  0.08600  0.19470  Biso   1.000  H
  H113     1.0000 0.27860  0.40710  0.36310  Biso   1.000  H
  H114     1.0000 0.72140  0.59290  0.86310  Biso   1.000  H
  H115     1.0000 0.22140  0.90710  0.86310  Biso   1.000  H
  H116     1.0000 0.77860  0.09290  0.36310  Biso   1.000  H
  N13      1.0000 0.45400  0.56100  0.58600  Biso   1.000  N
  N14      1.0000 0.54600  0.43900  0.08600  Biso   1.000  N
  N15      1.0000 0.04600  0.06100  0.08600  Biso   1.000  N
  N16      1.0000 0.95400  0.93900  0.58600  Biso   1.000  N
  C137     1.0000 0.43000  0.50800  0.55900  Biso   1.000  C
  C138     1.0000 0.57000  0.49200  0.05900  Biso   1.000  C
  C139     1.0000 0.07000  0.00800  0.05900  Biso   1.000  C
  C140     1.0000 0.93000  0.99200  0.55900  Biso   1.000  C
  C141     1.0000 0.44990  0.48660  0.46500  Biso   1.000  C
  C142     1.0000 0.55010  0.51340  0.96500  Biso   1.000  C
  C143     1.0000 0.05010  0.98660  0.96500  Biso   1.000  C
  C144     1.0000 0.94990  0.01340  0.46500  Biso   1.000  C
  C145     1.0000 0.49420  0.51010  0.38600  Biso   1.000  C
  C146     1.0000 0.50580  0.48990  0.88600  Biso   1.000  C
  C147     1.0000 0.00580  0.01010  0.88600  Biso   1.000  C
  C148     1.0000 0.99420  0.98990  0.38600  Biso   1.000  C
  C149     1.0000 0.51640  0.56730  0.41100  Biso   1.000  C
  C150     1.0000 0.48360  0.43270  0.91100  Biso   1.000  C
  C151     1.0000 0.98360  0.06730  0.91100  Biso   1.000  C
  C152     1.0000 0.01640  0.93270  0.41100  Biso   1.000  C
  C153     1.0000 0.48900  0.58590  0.51900  Biso   1.000  C
  C154     1.0000 0.51100  0.41410  0.01900  Biso   1.000  C
  C155     1.0000 0.01100  0.08590  0.01900  Biso   1.000  C
  C156     1.0000 0.98900  0.91410  0.51900  Biso   1.000  C
  H117     1.0000 0.39830  0.48590  0.61110  Biso   1.000  H
  H118     1.0000 0.60170  0.51410  0.11110  Biso   1.000  H
  H119     1.0000 0.10170  0.98590  0.11110  Biso   1.000  H
  H120     1.0000 0.89830  0.01410  0.61110  Biso   1.000  H
  H121     1.0000 0.43080  0.44950  0.45030  Biso   1.000  H
  H122     1.0000 0.56920  0.55050  0.95030  Biso   1.000  H
  H123     1.0000 0.06920  0.94950  0.95030  Biso   1.000  H
  H124     1.0000 0.93080  0.05050  0.45030  Biso   1.000  H
  H125     1.0000 0.51040  0.49150  0.31780  Biso   1.000  H
  H126     1.0000 0.48960  0.50850  0.81780  Biso   1.000  H
  H127     1.0000 0.98960  0.99150  0.81780  Biso   1.000  H
  H128     1.0000 0.01040  0.00850  0.31780  Biso   1.000  H
  H129     1.0000 0.54620  0.59060  0.35940  Biso   1.000  H
  H130     1.0000 0.45380  0.40940  0.85940  Biso   1.000  H
  H131     1.0000 0.95380  0.09060  0.85940  Biso   1.000  H
  H132     1.0000 0.04620  0.90940  0.35940  Biso   1.000  H
  H133     1.0000 0.50130  0.62370  0.53890  Biso   1.000  H
  H134     1.0000 0.49870  0.37630  0.03890  Biso   1.000  H
  H135     1.0000 0.99870  0.12370  0.03890  Biso   1.000  H
  H136     1.0000 0.00130  0.87630  0.53890  Biso   1.000  H
  N17      1.0000 0.32190  0.16620  0.85100  Biso   1.000  N
  N18      1.0000 0.67810  0.83380  0.35100  Biso   1.000  N
  N19      1.0000 0.17810  0.66620  0.35100  Biso   1.000  N
  N20      1.0000 0.82190  0.33380  0.85100  Biso   1.000  N
  C157     1.0000 0.34860  0.12400  0.90300  Biso   1.000  C
  C158     1.0000 0.65140  0.87600  0.40300  Biso   1.000  C
  C159     1.0000 0.15140  0.62400  0.40300  Biso   1.000  C
  C160     1.0000 0.84860  0.37600  0.90300  Biso   1.000  C
  C161     1.0000 0.30700  0.07970  0.90900  Biso   1.000  C
  C162     1.0000 0.69300  0.92030  0.40900  Biso   1.000  C
  C163     1.0000 0.19300  0.57970  0.40900  Biso   1.000  C
  C164     1.0000 0.80700  0.42030  0.90900  Biso   1.000  C
  C165     1.0000 0.22500  0.08240  0.84600  Biso   1.000  C
  C166     1.0000 0.77500  0.91760  0.34600  Biso   1.000  C
  C167     1.0000 0.27500  0.58240  0.34600  Biso   1.000  C
  C168     1.0000 0.72500  0.41760  0.84600  Biso   1.000  C
  C169     1.0000 0.21000  0.13100  0.80200  Biso   1.000  C
  C170     1.0000 0.79000  0.86900  0.30200  Biso   1.000  C
  C171     1.0000 0.29000  0.63100  0.30200  Biso   1.000  C
  C172     1.0000 0.71000  0.36900  0.80200  Biso   1.000  C
  C173     1.0000 0.25910  0.16920  0.80500  Biso   1.000  C
  C174     1.0000 0.74090  0.83080  0.30500  Biso   1.000  C
  C175     1.0000 0.24090  0.66920  0.30500  Biso   1.000  C
  C176     1.0000 0.75910  0.33080  0.80500  Biso   1.000  C
  H137     1.0000 0.40190  0.12540  0.93920  Biso   1.000  H
  H138     1.0000 0.59810  0.87460  0.43920  Biso   1.000  H
  H139     1.0000 0.09810  0.62540  0.43920  Biso   1.000  H
  H140     1.0000 0.90190  0.37460  0.93920  Biso   1.000  H
  H141     1.0000 0.32520  0.04740  0.94970  Biso   1.000  H
  H142     1.0000 0.67480  0.95260  0.44970  Biso   1.000  H
  H143     1.0000 0.17480  0.54740  0.44970  Biso   1.000  H
  H144     1.0000 0.82520  0.45260  0.94970  Biso   1.000  H
  H145     1.0000 0.18750  0.05140  0.83910  Biso   1.000  H
  H146     1.0000 0.81250  0.94860  0.33910  Biso   1.000  H
  H147     1.0000 0.31250  0.55140  0.33910  Biso   1.000  H
  H148     1.0000 0.68750  0.44860  0.83910  Biso   1.000  H
  H149     1.0000 0.15780  0.13730  0.76480  Biso   1.000  H
  H150     1.0000 0.84220  0.86270  0.26480  Biso   1.000  H
  H151     1.0000 0.34220  0.63730  0.26480  Biso   1.000  H
  H152     1.0000 0.65780  0.36270  0.76480  Biso   1.000  H
  H153     1.0000 0.24540  0.20340  0.76840  Biso   1.000  H
  H154     1.0000 0.75460  0.79660  0.26840  Biso   1.000  H
  H155     1.0000 0.25460  0.70340  0.26840  Biso   1.000  H
  H156     1.0000 0.74540  0.29660  0.76840  Biso   1.000  H
  F25      1.0000 0.16610  0.54330  0.89990  Biso   1.000  F
  F26      1.0000 0.83390  0.45670  0.39990  Biso   1.000  F
  F27      1.0000 0.33390  0.04330  0.39990  Biso   1.000  F
  F28      1.0000 0.66610  0.95670  0.89990  Biso   1.000  F
  F29      1.0000 0.08920  0.52220  0.76040  Biso   1.000  F
  F30      1.0000 0.91080  0.47780  0.26040  Biso   1.000  F
  F31      1.0000 0.41080  0.02220  0.26040  Biso   1.000  F
  F32      1.0000 0.58920  0.97780  0.76040  Biso   1.000  F
