data_image0
_cell_length_a       7.8267
_cell_length_b       10.6504
_cell_length_c       14.9796
_cell_angle_alpha    90
_cell_angle_beta     90.702
_cell_angle_gamma    90

_symmetry_space_group_name_H-M    "P 1"
_symmetry_int_tables_number       1

loop_
  _symmetry_equiv_pos_as_xyz
  'x, y, z'

loop_
  _atom_site_label
  _atom_site_occupancy
  _atom_site_fract_x
  _atom_site_fract_y
  _atom_site_fract_z
  _atom_site_thermal_displace_type
  _atom_site_B_iso_or_equiv
  _atom_site_type_symbol
  Cu1      1.0000 0.38380  0.58901  0.99650  Biso   1.000  Cu
  Cu2      1.0000 0.61620  0.08901  0.50350  Biso   1.000  Cu
  Cu3      1.0000 0.61620  0.41099  0.00350  Biso   1.000  Cu
  Cu4      1.0000 0.38380  0.91099  0.49650  Biso   1.000  Cu
  O1       1.0000 0.74030  0.98290  0.58822  Biso   1.000  O
  O2       1.0000 0.25970  0.48290  0.91178  Biso   1.000  O
  O3       1.0000 0.25970  0.01710  0.41178  Biso   1.000  O
  O4       1.0000 0.74030  0.51710  0.08822  Biso   1.000  O
  O5       1.0000 0.53830  0.83490  0.58620  Biso   1.000  O
  O6       1.0000 0.46170  0.33490  0.91380  Biso   1.000  O
  O7       1.0000 0.46170  0.16510  0.41380  Biso   1.000  O
  O8       1.0000 0.53830  0.66510  0.08620  Biso   1.000  O
  O9       1.0000 0.53450  0.64330  0.89875  Biso   1.000  O
  O10      1.0000 0.46550  0.14330  0.60125  Biso   1.000  O
  O11      1.0000 0.46550  0.35670  0.10125  Biso   1.000  O
  O12      1.0000 0.53450  0.85670  0.39875  Biso   1.000  O
  O13      1.0000 0.73660  0.49490  0.90611  Biso   1.000  O
  O14      1.0000 0.26340  0.99490  0.59389  Biso   1.000  O
  O15      1.0000 0.26340  0.50510  0.09389  Biso   1.000  O
  O16      1.0000 0.73660  0.00510  0.40611  Biso   1.000  O
  O17      1.0000 0.23880  0.75950  0.97865  Biso   1.000  O
  O18      1.0000 0.76120  0.25950  0.52135  Biso   1.000  O
  O19      1.0000 0.76120  0.24050  0.02135  Biso   1.000  O
  O20      1.0000 0.23880  0.74050  0.47865  Biso   1.000  O
  N1       1.0000 0.21880  0.74410  0.75270  Biso   1.000  N
  N2       1.0000 0.78120  0.24410  0.74730  Biso   1.000  N
  N3       1.0000 0.78120  0.25590  0.24730  Biso   1.000  N
  N4       1.0000 0.21880  0.75590  0.25270  Biso   1.000  N
  N5       1.0000 0.24270  0.96580  0.00940  Biso   1.000  N
  N6       1.0000 0.75730  0.46580  0.49060  Biso   1.000  N
  N7       1.0000 0.75730  0.03420  0.99060  Biso   1.000  N
  N8       1.0000 0.24270  0.53420  0.50940  Biso   1.000  N
  H1       1.0000 0.25700  0.81500  0.72700  Biso   1.000  H
  H2       1.0000 0.74300  0.31500  0.77300  Biso   1.000  H
  H3       1.0000 0.74300  0.18500  0.27300  Biso   1.000  H
  H4       1.0000 0.25700  0.68500  0.22700  Biso   1.000  H
  H5       1.0000 0.26300  0.72300  0.80610  Biso   1.000  H
  H6       1.0000 0.73700  0.22300  0.69390  Biso   1.000  H
  H7       1.0000 0.73700  0.27700  0.19390  Biso   1.000  H
  H8       1.0000 0.26300  0.77700  0.30610  Biso   1.000  H
  C1       1.0000 0.67710  0.88070  0.61333  Biso   1.000  C
  C2       1.0000 0.32290  0.38070  0.88667  Biso   1.000  C
  C3       1.0000 0.32290  0.11930  0.38667  Biso   1.000  C
  C4       1.0000 0.67710  0.61930  0.11333  Biso   1.000  C
  C5       1.0000 0.77400  0.80730  0.68230  Biso   1.000  C
  C6       1.0000 0.22600  0.30730  0.81770  Biso   1.000  C
  C7       1.0000 0.22600  0.19270  0.31770  Biso   1.000  C
  C8       1.0000 0.77400  0.69270  0.18230  Biso   1.000  C
  C9       1.0000 0.68400  0.73350  0.74225  Biso   1.000  C
  C10      1.0000 0.31600  0.23350  0.75775  Biso   1.000  C
  C11      1.0000 0.31600  0.26650  0.25775  Biso   1.000  C
  C12      1.0000 0.68400  0.76650  0.24225  Biso   1.000  C
  H9       1.0000 0.56530  0.73040  0.73940  Biso   1.000  H
  H10      1.0000 0.43470  0.23040  0.76060  Biso   1.000  H
  H11      1.0000 0.43470  0.26960  0.26060  Biso   1.000  H
  H12      1.0000 0.56530  0.76960  0.23940  Biso   1.000  H
  C13      1.0000 0.77220  0.66490  0.80598  Biso   1.000  C
  C14      1.0000 0.22780  0.16490  0.69402  Biso   1.000  C
  C15      1.0000 0.22780  0.33510  0.19402  Biso   1.000  C
  C16      1.0000 0.77220  0.83510  0.30598  Biso   1.000  C
  C17      1.0000 0.67350  0.59470  0.87546  Biso   1.000  C
  C18      1.0000 0.32650  0.09470  0.62454  Biso   1.000  C
  C19      1.0000 0.32650  0.40530  0.12454  Biso   1.000  C
  C20      1.0000 0.67350  0.90530  0.37546  Biso   1.000  C
  C21      1.0000 0.94980  0.66630  0.80920  Biso   1.000  C
  C22      1.0000 0.05020  0.16630  0.69080  Biso   1.000  C
  C23      1.0000 0.05020  0.33370  0.19080  Biso   1.000  C
  C24      1.0000 0.94980  0.83370  0.30920  Biso   1.000  C
  H13      1.0000 0.00820  0.61660  0.85050  Biso   1.000  H
  H14      1.0000 0.99180  0.11660  0.64950  Biso   1.000  H
  H15      1.0000 0.99180  0.38340  0.14950  Biso   1.000  H
  H16      1.0000 0.00820  0.88340  0.35050  Biso   1.000  H
  C25      1.0000 0.04000  0.74230  0.75060  Biso   1.000  C
  C26      1.0000 0.96000  0.24230  0.74940  Biso   1.000  C
  C27      1.0000 0.96000  0.25770  0.24940  Biso   1.000  C
  C28      1.0000 0.04000  0.75770  0.25060  Biso   1.000  C
  C29      1.0000 0.95060  0.81410  0.68750  Biso   1.000  C
  C30      1.0000 0.04940  0.31410  0.81250  Biso   1.000  C
  C31      1.0000 0.04940  0.18590  0.31250  Biso   1.000  C
  C32      1.0000 0.95060  0.68590  0.18750  Biso   1.000  C
  H17      1.0000 0.00960  0.86660  0.64900  Biso   1.000  H
  H18      1.0000 0.99040  0.36660  0.85100  Biso   1.000  H
  H19      1.0000 0.99040  0.13340  0.35100  Biso   1.000  H
  H20      1.0000 0.00960  0.63340  0.14900  Biso   1.000  H
  C33      1.0000 0.25050  0.84700  0.03030  Biso   1.000  C
  C34      1.0000 0.74950  0.34700  0.46970  Biso   1.000  C
  C35      1.0000 0.74950  0.15300  0.96970  Biso   1.000  C
  C36      1.0000 0.25050  0.65300  0.53030  Biso   1.000  C
  H21      1.0000 0.26650  0.82750  0.09030  Biso   1.000  H
  H22      1.0000 0.73350  0.32750  0.40970  Biso   1.000  H
  H23      1.0000 0.73350  0.17250  0.90970  Biso   1.000  H
  H24      1.0000 0.26650  0.67250  0.59030  Biso   1.000  H
  C37      1.0000 0.22560  0.00410  0.91860  Biso   1.000  C
  C38      1.0000 0.77440  0.50410  0.58140  Biso   1.000  C
  C39      1.0000 0.77440  0.99590  0.08140  Biso   1.000  C
  C40      1.0000 0.22560  0.49590  0.41860  Biso   1.000  C
  H25      1.0000 0.20280  0.93210  0.88190  Biso   1.000  H
  H26      1.0000 0.79720  0.43210  0.61810  Biso   1.000  H
  H27      1.0000 0.79720  0.06790  0.11810  Biso   1.000  H
  H28      1.0000 0.20280  0.56790  0.38190  Biso   1.000  H
  H29      1.0000 0.32950  0.04340  0.89990  Biso   1.000  H
  H30      1.0000 0.67050  0.54340  0.60010  Biso   1.000  H
  H31      1.0000 0.67050  0.95660  0.10010  Biso   1.000  H
  H32      1.0000 0.32950  0.45660  0.39990  Biso   1.000  H
  H33      1.0000 0.13280  0.06270  0.91290  Biso   1.000  H
  H34      1.0000 0.86720  0.56270  0.58710  Biso   1.000  H
  H35      1.0000 0.86720  0.93730  0.08710  Biso   1.000  H
  H36      1.0000 0.13280  0.43730  0.41290  Biso   1.000  H
  C41      1.0000 0.25640  0.06430  0.07630  Biso   1.000  C
  C42      1.0000 0.74360  0.56430  0.42370  Biso   1.000  C
  C43      1.0000 0.74360  0.93570  0.92370  Biso   1.000  C
  C44      1.0000 0.25640  0.43570  0.57630  Biso   1.000  C
  H37      1.0000 0.15540  0.11540  0.07430  Biso   1.000  H
  H38      1.0000 0.84460  0.61540  0.42570  Biso   1.000  H
  H39      1.0000 0.84460  0.88460  0.92570  Biso   1.000  H
  H40      1.0000 0.15540  0.38460  0.57430  Biso   1.000  H
  H41      1.0000 0.35450  0.11540  0.06440  Biso   1.000  H
  H42      1.0000 0.64550  0.61540  0.43560  Biso   1.000  H
  H43      1.0000 0.64550  0.88460  0.93560  Biso   1.000  H
  H44      1.0000 0.35450  0.38460  0.56440  Biso   1.000  H
  H45      1.0000 0.26820  0.02710  0.13440  Biso   1.000  H
  H46      1.0000 0.73180  0.52710  0.36560  Biso   1.000  H
  H47      1.0000 0.73180  0.97290  0.86560  Biso   1.000  H
  H48      1.0000 0.26820  0.47290  0.63440  Biso   1.000  H
