data_image0
_cell_length_a       11.7498
_cell_length_b       10.8664
_cell_length_c       15.2007
_cell_angle_alpha    90
_cell_angle_beta     105
_cell_angle_gamma    90

_symmetry_space_group_name_H-M    "P 1"
_symmetry_int_tables_number       1

loop_
  _symmetry_equiv_pos_as_xyz
  'x, y, z'

loop_
  _atom_site_label
  _atom_site_occupancy
  _atom_site_fract_x
  _atom_site_fract_y
  _atom_site_fract_z
  _atom_site_thermal_displace_type
  _atom_site_B_iso_or_equiv
  _atom_site_type_symbol
  Cu1      1.0000 0.00000  0.50000  0.50000  Biso   1.000  Cu
  Cu2      1.0000 0.50000  0.00000  0.00000  Biso   1.000  Cu
  O1       1.0000 0.06627  0.38052  0.42988  Biso   1.000  O
  O2       1.0000 0.43373  0.88052  0.07012  Biso   1.000  O
  O3       1.0000 0.93373  0.61948  0.57012  Biso   1.000  O
  O4       1.0000 0.56627  0.11948  0.92988  Biso   1.000  O
  O5       1.0000 0.10145  0.22226  0.52751  Biso   1.000  O
  O6       1.0000 0.39855  0.72226  0.97249  Biso   1.000  O
  O7       1.0000 0.89855  0.77774  0.47249  Biso   1.000  O
  O8       1.0000 0.60145  0.27774  0.02751  Biso   1.000  O
  O9       1.0000 0.53763  0.13383  0.13770  Biso   1.000  O
  O10      1.0000 0.96237  0.63383  0.36230  Biso   1.000  O
  O11      1.0000 0.46237  0.86617  0.86230  Biso   1.000  O
  O12      1.0000 0.03763  0.36617  0.63770  Biso   1.000  O
  H1       1.0000 0.55150  0.19510  0.10330  Biso   1.000  H
  H2       1.0000 0.94850  0.69510  0.39670  Biso   1.000  H
  H3       1.0000 0.44850  0.80490  0.89670  Biso   1.000  H
  H4       1.0000 0.05150  0.30490  0.60330  Biso   1.000  H
  N1       1.0000 0.16242  0.56382  0.55441  Biso   1.000  N
  N2       1.0000 0.33758  0.06382  0.94559  Biso   1.000  N
  N3       1.0000 0.83758  0.43618  0.44559  Biso   1.000  N
  N4       1.0000 0.66242  0.93618  0.05441  Biso   1.000  N
  C1       1.0000 0.11291  0.27792  0.45738  Biso   1.000  C
  C2       1.0000 0.38709  0.77792  0.04262  Biso   1.000  C
  C3       1.0000 0.88709  0.72208  0.54262  Biso   1.000  C
  C4       1.0000 0.61291  0.22208  0.95738  Biso   1.000  C
  C5       1.0000 0.18925  0.22002  0.40495  Biso   1.000  C
  C6       1.0000 0.31075  0.72002  0.09505  Biso   1.000  C
  C7       1.0000 0.81075  0.77998  0.59505  Biso   1.000  C
  C8       1.0000 0.68925  0.27998  0.90495  Biso   1.000  C
  H5       1.0000 0.21730  0.13867  0.41980  Biso   1.000  H
  H6       1.0000 0.28270  0.63867  0.08020  Biso   1.000  H
  H7       1.0000 0.78270  0.86133  0.58020  Biso   1.000  H
  H8       1.0000 0.71730  0.36133  0.91980  Biso   1.000  H
  C9       1.0000 0.21936  0.27916  0.33772  Biso   1.000  C
  C10      1.0000 0.28064  0.77916  0.16228  Biso   1.000  C
  C11      1.0000 0.78064  0.72084  0.66228  Biso   1.000  C
  C12      1.0000 0.71936  0.22084  0.83772  Biso   1.000  C
  H9       1.0000 0.18385  0.35739  0.32190  Biso   1.000  H
  H10      1.0000 0.31615  0.85739  0.17810  Biso   1.000  H
  H11      1.0000 0.81615  0.64261  0.67810  Biso   1.000  H
  H12      1.0000 0.68385  0.14261  0.82190  Biso   1.000  H
  C13      1.0000 0.30068  0.23817  0.28518  Biso   1.000  C
  C14      1.0000 0.19932  0.73817  0.21482  Biso   1.000  C
  C15      1.0000 0.69932  0.76183  0.71482  Biso   1.000  C
  C16      1.0000 0.80068  0.26183  0.78518  Biso   1.000  C
  C17      1.0000 0.32413  0.31651  0.21921  Biso   1.000  C
  C18      1.0000 0.17587  0.81651  0.28079  Biso   1.000  C
  C19      1.0000 0.67587  0.68349  0.78079  Biso   1.000  C
  C20      1.0000 0.82413  0.18349  0.71921  Biso   1.000  C
  H13      1.0000 0.28521  0.39381  0.20854  Biso   1.000  H
  H14      1.0000 0.21479  0.89381  0.29146  Biso   1.000  H
  H15      1.0000 0.71479  0.60619  0.79146  Biso   1.000  H
  H16      1.0000 0.78521  0.10619  0.70854  Biso   1.000  H
  C21      1.0000 0.40292  0.28454  0.16862  Biso   1.000  C
  C22      1.0000 0.09708  0.78454  0.33138  Biso   1.000  C
  C23      1.0000 0.59708  0.71546  0.83138  Biso   1.000  C
  C24      1.0000 0.90292  0.21546  0.66862  Biso   1.000  C
  H17      1.0000 0.41752  0.33933  0.12407  Biso   1.000  H
  H18      1.0000 0.08248  0.83933  0.37593  Biso   1.000  H
  H19      1.0000 0.58248  0.66067  0.87593  Biso   1.000  H
  H20      1.0000 0.91752  0.16067  0.62407  Biso   1.000  H
  C25      1.0000 0.46013  0.17121  0.18410  Biso   1.000  C
  C26      1.0000 0.03987  0.67121  0.31590  Biso   1.000  C
  C27      1.0000 0.53987  0.82879  0.81590  Biso   1.000  C
  C28      1.0000 0.96013  0.32879  0.68410  Biso   1.000  C
  C29      1.0000 0.43669  0.09068  0.24924  Biso   1.000  C
  C30      1.0000 0.06331  0.59068  0.25076  Biso   1.000  C
  C31      1.0000 0.56331  0.90932  0.75076  Biso   1.000  C
  C32      1.0000 0.93669  0.40932  0.74924  Biso   1.000  C
  H21      1.0000 0.47469  0.01286  0.25932  Biso   1.000  H
  H22      1.0000 0.02531  0.51286  0.24068  Biso   1.000  H
  H23      1.0000 0.52531  0.98714  0.74068  Biso   1.000  H
  H24      1.0000 0.97469  0.48714  0.75932  Biso   1.000  H
  C33      1.0000 0.35880  0.12420  0.29850  Biso   1.000  C
  C34      1.0000 0.14120  0.62420  0.20150  Biso   1.000  C
  C35      1.0000 0.64120  0.87580  0.70150  Biso   1.000  C
  C36      1.0000 0.85880  0.37580  0.79850  Biso   1.000  C
  H25      1.0000 0.34390  0.06893  0.34264  Biso   1.000  H
  H26      1.0000 0.15610  0.56893  0.15736  Biso   1.000  H
  H27      1.0000 0.65610  0.93107  0.65736  Biso   1.000  H
  H28      1.0000 0.84390  0.43107  0.84264  Biso   1.000  H
  C37      1.0000 0.19820  0.59536  0.64268  Biso   1.000  C
  C38      1.0000 0.30180  0.09536  0.85732  Biso   1.000  C
  C39      1.0000 0.80180  0.40464  0.35732  Biso   1.000  C
  C40      1.0000 0.69820  0.90464  0.14268  Biso   1.000  C
  H29      1.0000 0.14821  0.57873  0.68137  Biso   1.000  H
  H30      1.0000 0.35179  0.07873  0.81863  Biso   1.000  H
  H31      1.0000 0.85179  0.42127  0.31863  Biso   1.000  H
  H32      1.0000 0.64821  0.92127  0.18137  Biso   1.000  H
  C41      1.0000 0.30578  0.65135  0.67880  Biso   1.000  C
  C42      1.0000 0.19422  0.15135  0.82120  Biso   1.000  C
  C43      1.0000 0.69422  0.34865  0.32120  Biso   1.000  C
  C44      1.0000 0.80578  0.84865  0.17880  Biso   1.000  C
  H33      1.0000 0.33018  0.67088  0.74181  Biso   1.000  H
  H34      1.0000 0.16982  0.17088  0.75819  Biso   1.000  H
  H35      1.0000 0.66982  0.32912  0.25819  Biso   1.000  H
  H36      1.0000 0.83018  0.82912  0.24181  Biso   1.000  H
  C45      1.0000 0.37759  0.67866  0.62220  Biso   1.000  C
  C46      1.0000 0.12241  0.17866  0.87780  Biso   1.000  C
  C47      1.0000 0.62241  0.32134  0.37780  Biso   1.000  C
  C48      1.0000 0.87759  0.82134  0.12220  Biso   1.000  C
  H37      1.0000 0.45065  0.71947  0.64573  Biso   1.000  H
  H38      1.0000 0.04935  0.21947  0.85427  Biso   1.000  H
  H39      1.0000 0.54935  0.28053  0.35427  Biso   1.000  H
  H40      1.0000 0.95065  0.78053  0.14573  Biso   1.000  H
  C49      1.0000 0.34202  0.64587  0.53033  Biso   1.000  C
  C50      1.0000 0.15798  0.14587  0.96967  Biso   1.000  C
  C51      1.0000 0.65798  0.35413  0.46967  Biso   1.000  C
  C52      1.0000 0.84202  0.85413  0.03033  Biso   1.000  C
  C53      1.0000 0.23434  0.58636  0.50041  Biso   1.000  C
  C54      1.0000 0.26566  0.08636  0.99959  Biso   1.000  C
  C55      1.0000 0.76566  0.41364  0.49959  Biso   1.000  C
  C56      1.0000 0.73434  0.91364  0.00041  Biso   1.000  C
  H41      1.0000 0.21030  0.56028  0.43871  Biso   1.000  H
  H42      1.0000 0.28970  0.06028  0.06129  Biso   1.000  H
  H43      1.0000 0.78970  0.43972  0.56129  Biso   1.000  H
  H44      1.0000 0.71030  0.93972  0.93871  Biso   1.000  H
  C57      1.0000 0.41413  0.67537  0.46619  Biso   1.000  C
  C58      1.0000 0.08587  0.17537  0.03381  Biso   1.000  C
  C59      1.0000 0.58587  0.32463  0.53381  Biso   1.000  C
  C60      1.0000 0.91413  0.82463  0.96619  Biso   1.000  C
  C61      1.0000 0.46950  0.79070  0.47147  Biso   1.000  C
  C62      1.0000 0.03050  0.29070  0.02853  Biso   1.000  C
  C63      1.0000 0.53050  0.20930  0.52853  Biso   1.000  C
  C64      1.0000 0.96950  0.70930  0.97147  Biso   1.000  C
  H45      1.0000 0.46045  0.84886  0.51582  Biso   1.000  H
  H46      1.0000 0.03955  0.34886  0.98418  Biso   1.000  H
  H47      1.0000 0.53955  0.15114  0.48418  Biso   1.000  H
  H48      1.0000 0.96045  0.65114  0.01582  Biso   1.000  H
  C65      1.0000 0.53748  0.81990  0.41198  Biso   1.000  C
  C66      1.0000 0.96252  0.31990  0.08802  Biso   1.000  C
  C67      1.0000 0.46252  0.18010  0.58802  Biso   1.000  C
  C68      1.0000 0.03748  0.68010  0.91198  Biso   1.000  C
  H49      1.0000 0.57541  0.89767  0.41607  Biso   1.000  H
  H50      1.0000 0.92459  0.39767  0.08393  Biso   1.000  H
  H51      1.0000 0.42459  0.10233  0.58393  Biso   1.000  H
  H52      1.0000 0.07541  0.60233  0.91607  Biso   1.000  H
  C69      1.0000 0.55000  0.73580  0.34678  Biso   1.000  C
  C70      1.0000 0.95000  0.23580  0.15322  Biso   1.000  C
  C71      1.0000 0.45000  0.26420  0.65322  Biso   1.000  C
  C72      1.0000 0.05000  0.76420  0.84678  Biso   1.000  C
  H53      1.0000 0.59674  0.75574  0.30629  Biso   1.000  H
  H54      1.0000 0.90326  0.25574  0.19371  Biso   1.000  H
  H55      1.0000 0.40326  0.24426  0.69371  Biso   1.000  H
  H56      1.0000 0.09674  0.74426  0.80629  Biso   1.000  H
  C73      1.0000 0.49430  0.62210  0.34046  Biso   1.000  C
  C74      1.0000 0.00570  0.12210  0.15954  Biso   1.000  C
  C75      1.0000 0.50570  0.37790  0.65954  Biso   1.000  C
  C76      1.0000 0.99430  0.87790  0.84046  Biso   1.000  C
  H57      1.0000 0.50252  0.56479  0.29531  Biso   1.000  H
  H58      1.0000 0.99748  0.06479  0.20469  Biso   1.000  H
  H59      1.0000 0.49748  0.43521  0.70469  Biso   1.000  H
  H60      1.0000 0.00252  0.93521  0.79531  Biso   1.000  H
  C77      1.0000 0.42649  0.59194  0.40007  Biso   1.000  C
  C78      1.0000 0.07351  0.09194  0.09993  Biso   1.000  C
  C79      1.0000 0.57351  0.40806  0.59993  Biso   1.000  C
  C80      1.0000 0.92649  0.90806  0.90007  Biso   1.000  C
  H61      1.0000 0.38858  0.51412  0.39552  Biso   1.000  H
  H62      1.0000 0.11142  0.01412  0.10448  Biso   1.000  H
  H63      1.0000 0.61142  0.48588  0.60448  Biso   1.000  H
  H64      1.0000 0.88858  0.98588  0.89552  Biso   1.000  H
  O13      1.0000 0.23541  0.03167  0.62257  Biso   1.000  O
  O14      1.0000 0.26459  0.53167  0.87743  Biso   1.000  O
  O15      1.0000 0.76459  0.96833  0.37743  Biso   1.000  O
  O16      1.0000 0.73541  0.46833  0.12257  Biso   1.000  O
  H65      1.0000 0.20370  0.08800  0.58800  Biso   1.000  H
  H66      1.0000 0.29630  0.58800  0.91200  Biso   1.000  H
  H67      1.0000 0.79630  0.91200  0.41200  Biso   1.000  H
  H68      1.0000 0.70370  0.41200  0.08800  Biso   1.000  H
  C81      1.0000 0.15200  0.93950  0.62360  Biso   1.000  C
  C82      1.0000 0.34800  0.43950  0.87640  Biso   1.000  C
  C83      1.0000 0.84800  0.06050  0.37640  Biso   1.000  C
  C84      1.0000 0.65200  0.56050  0.12360  Biso   1.000  C
  H69      1.0000 0.14163  0.88791  0.56917  Biso   1.000  H
  H70      1.0000 0.35837  0.38791  0.93083  Biso   1.000  H
  H71      1.0000 0.85837  0.11209  0.43083  Biso   1.000  H
  H72      1.0000 0.64163  0.61209  0.06917  Biso   1.000  H
  H73      1.0000 0.07656  0.97764  0.62404  Biso   1.000  H
  H74      1.0000 0.42344  0.47764  0.87596  Biso   1.000  H
  H75      1.0000 0.92344  0.02236  0.37596  Biso   1.000  H
  H76      1.0000 0.57656  0.52236  0.12404  Biso   1.000  H
  H77      1.0000 0.17950  0.88858  0.67816  Biso   1.000  H
  H78      1.0000 0.32050  0.38858  0.82184  Biso   1.000  H
  H79      1.0000 0.82050  0.11142  0.32184  Biso   1.000  H
  H80      1.0000 0.67950  0.61142  0.17816  Biso   1.000  H
