data_image0
_cell_length_a       8.4342
_cell_length_b       8.6978
_cell_length_c       18.9953
_cell_angle_alpha    90
_cell_angle_beta     96.953
_cell_angle_gamma    90

_symmetry_space_group_name_H-M    "P 1"
_symmetry_int_tables_number       1

loop_
  _symmetry_equiv_pos_as_xyz
  'x, y, z'

loop_
  _atom_site_label
  _atom_site_occupancy
  _atom_site_fract_x
  _atom_site_fract_y
  _atom_site_fract_z
  _atom_site_thermal_displace_type
  _atom_site_B_iso_or_equiv
  _atom_site_type_symbol
  Cu1      1.0000 0.50000  0.50000  0.50000  Biso   1.000  Cu
  Cu2      1.0000 0.00000  0.00000  0.00000  Biso   1.000  Cu
  O1       1.0000 0.47680  0.40003  0.58877  Biso   1.000  O
  O2       1.0000 0.02320  0.90003  0.91123  Biso   1.000  O
  O3       1.0000 0.52320  0.59997  0.41123  Biso   1.000  O
  O4       1.0000 0.97680  0.09997  0.08877  Biso   1.000  O
  O5       1.0000 0.62658  0.19300  0.57315  Biso   1.000  O
  O6       1.0000 0.87342  0.69300  0.92685  Biso   1.000  O
  O7       1.0000 0.37342  0.80700  0.42685  Biso   1.000  O
  O8       1.0000 0.12658  0.30700  0.07315  Biso   1.000  O
  O9       1.0000 0.27203  0.13446  0.99229  Biso   1.000  O
  O10      1.0000 0.22797  0.63446  0.50771  Biso   1.000  O
  O11      1.0000 0.72797  0.86554  0.00771  Biso   1.000  O
  O12      1.0000 0.77203  0.36554  0.49229  Biso   1.000  O
  H1       1.0000 0.22800  0.20400  0.00920  Biso   1.000  H
  H2       1.0000 0.27200  0.70400  0.49080  Biso   1.000  H
  H3       1.0000 0.77200  0.79600  0.99080  Biso   1.000  H
  H4       1.0000 0.72800  0.29600  0.50920  Biso   1.000  H
  O13      1.0000 0.86795  0.06753  0.72408  Biso   1.000  O
  O14      1.0000 0.63205  0.56753  0.77592  Biso   1.000  O
  O15      1.0000 0.13205  0.93247  0.27592  Biso   1.000  O
  O16      1.0000 0.36795  0.43247  0.22408  Biso   1.000  O
  N1       1.0000 0.64160  0.66370  0.55406  Biso   1.000  N
  N2       1.0000 0.85840  0.16370  0.94594  Biso   1.000  N
  N3       1.0000 0.35840  0.33630  0.44594  Biso   1.000  N
  N4       1.0000 0.14160  0.83630  0.05406  Biso   1.000  N
  C1       1.0000 0.53752  0.26980  0.60803  Biso   1.000  C
  C2       1.0000 0.96248  0.76980  0.89197  Biso   1.000  C
  C3       1.0000 0.46248  0.73020  0.39197  Biso   1.000  C
  C4       1.0000 0.03752  0.23020  0.10803  Biso   1.000  C
  C5       1.0000 0.49901  0.20706  0.67667  Biso   1.000  C
  C6       1.0000 0.00099  0.70706  0.82333  Biso   1.000  C
  C7       1.0000 0.50099  0.79294  0.32333  Biso   1.000  C
  C8       1.0000 0.99901  0.29294  0.17667  Biso   1.000  C
  H5       1.0000 0.54353  0.11112  0.69271  Biso   1.000  H
  H6       1.0000 0.95647  0.61112  0.80729  Biso   1.000  H
  H7       1.0000 0.45647  0.88888  0.30729  Biso   1.000  H
  H8       1.0000 0.04353  0.38888  0.19271  Biso   1.000  H
  C9       1.0000 0.40373  0.28131  0.71654  Biso   1.000  C
  C10      1.0000 0.09627  0.78131  0.78346  Biso   1.000  C
  C11      1.0000 0.59627  0.71869  0.28346  Biso   1.000  C
  C12      1.0000 0.90373  0.21869  0.21654  Biso   1.000  C
  H9       1.0000 0.35484  0.37266  0.69696  Biso   1.000  H
  H10      1.0000 0.14516  0.87266  0.80304  Biso   1.000  H
  H11      1.0000 0.64516  0.62734  0.30304  Biso   1.000  H
  H12      1.0000 0.85484  0.12734  0.19696  Biso   1.000  H
  C13      1.0000 0.36632  0.23735  0.78716  Biso   1.000  C
  C14      1.0000 0.13368  0.73735  0.71284  Biso   1.000  C
  C15      1.0000 0.63368  0.76265  0.21284  Biso   1.000  C
  C16      1.0000 0.86632  0.26265  0.28716  Biso   1.000  C
  C17      1.0000 0.26594  0.33193  0.82145  Biso   1.000  C
  C18      1.0000 0.23406  0.83193  0.67855  Biso   1.000  C
  C19      1.0000 0.73406  0.66807  0.17855  Biso   1.000  C
  C20      1.0000 0.76594  0.16807  0.32145  Biso   1.000  C
  H13      1.0000 0.21851  0.41903  0.79714  Biso   1.000  H
  H14      1.0000 0.28149  0.91903  0.70286  Biso   1.000  H
  H15      1.0000 0.78149  0.58097  0.20286  Biso   1.000  H
  H16      1.0000 0.71851  0.08097  0.29714  Biso   1.000  H
  C21      1.0000 0.23347  0.30205  0.89035  Biso   1.000  C
  C22      1.0000 0.26653  0.80205  0.60965  Biso   1.000  C
  C23      1.0000 0.76653  0.69795  0.10965  Biso   1.000  C
  C24      1.0000 0.73347  0.19795  0.39035  Biso   1.000  C
  H17      1.0000 0.16623  0.36888  0.91294  Biso   1.000  H
  H18      1.0000 0.33377  0.86888  0.58706  Biso   1.000  H
  H19      1.0000 0.83377  0.63112  0.08706  Biso   1.000  H
  H20      1.0000 0.66623  0.13112  0.41294  Biso   1.000  H
  C25      1.0000 0.30059  0.17337  0.92561  Biso   1.000  C
  C26      1.0000 0.19941  0.67337  0.57439  Biso   1.000  C
  C27      1.0000 0.69941  0.82663  0.07439  Biso   1.000  C
  C28      1.0000 0.80059  0.32663  0.42561  Biso   1.000  C
  C29      1.0000 0.40156  0.07703  0.89253  Biso   1.000  C
  C30      1.0000 0.09844  0.57703  0.60747  Biso   1.000  C
  C31      1.0000 0.59844  0.92297  0.10747  Biso   1.000  C
  C32      1.0000 0.90156  0.42297  0.39253  Biso   1.000  C
  H21      1.0000 0.44824  0.98970  0.91693  Biso   1.000  H
  H22      1.0000 0.05176  0.48970  0.58307  Biso   1.000  H
  H23      1.0000 0.55176  0.01030  0.08307  Biso   1.000  H
  H24      1.0000 0.94824  0.51030  0.41693  Biso   1.000  H
  C33      1.0000 0.43366  0.10860  0.82430  Biso   1.000  C
  C34      1.0000 0.06634  0.60860  0.67570  Biso   1.000  C
  C35      1.0000 0.56634  0.89140  0.17570  Biso   1.000  C
  C36      1.0000 0.93366  0.39140  0.32430  Biso   1.000  C
  H25      1.0000 0.50224  0.04228  0.80219  Biso   1.000  H
  H26      1.0000 0.99776  0.54228  0.69781  Biso   1.000  H
  H27      1.0000 0.49776  0.95772  0.19781  Biso   1.000  H
  H28      1.0000 0.00224  0.45772  0.30219  Biso   1.000  H
  C37      1.0000 0.63303  0.69147  0.62329  Biso   1.000  C
  C38      1.0000 0.86697  0.19147  0.87671  Biso   1.000  C
  C39      1.0000 0.36697  0.30853  0.37671  Biso   1.000  C
  C40      1.0000 0.13303  0.80853  0.12329  Biso   1.000  C
  H29      1.0000 0.56812  0.62664  0.64811  Biso   1.000  H
  H30      1.0000 0.93188  0.12664  0.85189  Biso   1.000  H
  H31      1.0000 0.43188  0.37336  0.35189  Biso   1.000  H
  H32      1.0000 0.06812  0.87336  0.14811  Biso   1.000  H
  C41      1.0000 0.71520  0.81090  0.65974  Biso   1.000  C
  C42      1.0000 0.78480  0.31090  0.84026  Biso   1.000  C
  C43      1.0000 0.28480  0.18910  0.34026  Biso   1.000  C
  C44      1.0000 0.21520  0.68910  0.15974  Biso   1.000  C
  H33      1.0000 0.70620  0.82689  0.70857  Biso   1.000  H
  H34      1.0000 0.79380  0.32689  0.79143  Biso   1.000  H
  H35      1.0000 0.29380  0.17311  0.29143  Biso   1.000  H
  H36      1.0000 0.20620  0.67311  0.20857  Biso   1.000  H
  C45      1.0000 0.81083  0.90710  0.62440  Biso   1.000  C
  C46      1.0000 0.68917  0.40710  0.87560  Biso   1.000  C
  C47      1.0000 0.18917  0.09290  0.37560  Biso   1.000  C
  C48      1.0000 0.31083  0.59290  0.12440  Biso   1.000  C
  C49      1.0000 0.82491  0.87422  0.55374  Biso   1.000  C
  C50      1.0000 0.67509  0.37422  0.94626  Biso   1.000  C
  C51      1.0000 0.17509  0.12578  0.44626  Biso   1.000  C
  C52      1.0000 0.32491  0.62578  0.05374  Biso   1.000  C
  H37      1.0000 0.89241  0.93484  0.52829  Biso   1.000  H
  H38      1.0000 0.60759  0.43484  0.97171  Biso   1.000  H
  H39      1.0000 0.10759  0.06516  0.47171  Biso   1.000  H
  H40      1.0000 0.39241  0.56516  0.02829  Biso   1.000  H
  C53      1.0000 0.73998  0.75267  0.52080  Biso   1.000  C
  C54      1.0000 0.76002  0.25267  0.97920  Biso   1.000  C
  C55      1.0000 0.26002  0.24733  0.47920  Biso   1.000  C
  C56      1.0000 0.23998  0.74733  0.02080  Biso   1.000  C
  H41      1.0000 0.75157  0.73104  0.47267  Biso   1.000  H
  H42      1.0000 0.74843  0.23104  0.02733  Biso   1.000  H
  H43      1.0000 0.24843  0.26896  0.52733  Biso   1.000  H
  H44      1.0000 0.25157  0.76896  0.97267  Biso   1.000  H
  C57      1.0000 0.89258  0.04187  0.66351  Biso   1.000  C
  C58      1.0000 0.60742  0.54187  0.83649  Biso   1.000  C
  C59      1.0000 0.10742  0.95813  0.33649  Biso   1.000  C
  C60      1.0000 0.39258  0.45813  0.16351  Biso   1.000  C
  C61      1.0000 0.00199  0.14228  0.62648  Biso   1.000  C
  C62      1.0000 0.49801  0.64228  0.87352  Biso   1.000  C
  C63      1.0000 0.99801  0.85772  0.37352  Biso   1.000  C
  C64      1.0000 0.50199  0.35772  0.12648  Biso   1.000  C
  H45      1.0000 0.08349  0.07842  0.60813  Biso   1.000  H
  H46      1.0000 0.41651  0.57842  0.89187  Biso   1.000  H
  H47      1.0000 0.91651  0.92158  0.39187  Biso   1.000  H
  H48      1.0000 0.58349  0.42158  0.10813  Biso   1.000  H
  H49      1.0000 0.05387  0.21753  0.66011  Biso   1.000  H
  H50      1.0000 0.44613  0.71753  0.83989  Biso   1.000  H
  H51      1.0000 0.94613  0.78247  0.33989  Biso   1.000  H
  H52      1.0000 0.55387  0.28247  0.16011  Biso   1.000  H
  H53      1.0000 0.93983  0.19625  0.58707  Biso   1.000  H
  H54      1.0000 0.56017  0.69625  0.91293  Biso   1.000  H
  H55      1.0000 0.06017  0.80375  0.41293  Biso   1.000  H
  H56      1.0000 0.43983  0.30375  0.08707  Biso   1.000  H
