data_image0
_cell_length_a       8.2834
_cell_length_b       11.7042
_cell_length_c       11.5538
_cell_angle_alpha    90
_cell_angle_beta     110.899
_cell_angle_gamma    90

_symmetry_space_group_name_H-M    "P 1"
_symmetry_int_tables_number       1

loop_
  _symmetry_equiv_pos_as_xyz
  'x, y, z'

loop_
  _atom_site_label
  _atom_site_occupancy
  _atom_site_fract_x
  _atom_site_fract_y
  _atom_site_fract_z
  _atom_site_thermal_displace_type
  _atom_site_B_iso_or_equiv
  _atom_site_type_symbol
  Cu1      1.0000 0.50000  0.00000  0.00000  Biso   1.000  Cu
  Cu2      1.0000 0.50000  0.50000  0.50000  Biso   1.000  Cu
  O1       1.0000 0.49458  0.20280  0.02718  Biso   1.000  O
  O2       1.0000 0.50542  0.70280  0.47282  Biso   1.000  O
  O3       1.0000 0.50542  0.79720  0.97282  Biso   1.000  O
  O4       1.0000 0.49458  0.29720  0.52718  Biso   1.000  O
  H1       1.0000 0.45300  0.24650  0.06200  Biso   1.000  H
  H2       1.0000 0.54700  0.74650  0.43800  Biso   1.000  H
  H3       1.0000 0.54700  0.75350  0.93800  Biso   1.000  H
  H4       1.0000 0.45300  0.25350  0.56200  Biso   1.000  H
  H5       1.0000 0.55300  0.24040  0.99740  Biso   1.000  H
  H6       1.0000 0.44700  0.74040  0.50260  Biso   1.000  H
  H7       1.0000 0.44700  0.75960  0.00260  Biso   1.000  H
  H8       1.0000 0.55300  0.25960  0.49740  Biso   1.000  H
  N1       1.0000 0.23637  0.00486  0.88947  Biso   1.000  N
  N2       1.0000 0.76363  0.50486  0.61053  Biso   1.000  N
  N3       1.0000 0.76363  0.99514  0.11053  Biso   1.000  N
  N4       1.0000 0.23637  0.49514  0.38947  Biso   1.000  N
  N5       1.0000 0.57099  0.04692  0.85730  Biso   1.000  N
  N6       1.0000 0.42901  0.54692  0.64270  Biso   1.000  N
  N7       1.0000 0.42901  0.95308  0.14270  Biso   1.000  N
  N8       1.0000 0.57099  0.45308  0.35730  Biso   1.000  N
  H9       1.0000 0.49400  0.09500  0.80910  Biso   1.000  H
  H10      1.0000 0.50600  0.59500  0.69090  Biso   1.000  H
  H11      1.0000 0.50600  0.90500  0.19090  Biso   1.000  H
  H12      1.0000 0.49400  0.40500  0.30910  Biso   1.000  H
  H13      1.0000 0.66800  0.08540  0.89280  Biso   1.000  H
  H14      1.0000 0.33200  0.58540  0.60720  Biso   1.000  H
  H15      1.0000 0.33200  0.91460  0.10720  Biso   1.000  H
  H16      1.0000 0.66800  0.41460  0.39280  Biso   1.000  H
  C1       1.0000 0.15761  0.91296  0.82476  Biso   1.000  C
  C2       1.0000 0.84239  0.41296  0.67524  Biso   1.000  C
  C3       1.0000 0.84239  0.08704  0.17524  Biso   1.000  C
  C4       1.0000 0.15761  0.58704  0.32476  Biso   1.000  C
  H17      1.0000 0.22440  0.84920  0.82410  Biso   1.000  H
  H18      1.0000 0.77560  0.34920  0.67590  Biso   1.000  H
  H19      1.0000 0.77560  0.15080  0.17590  Biso   1.000  H
  H20      1.0000 0.22440  0.65080  0.32410  Biso   1.000  H
  C5       1.0000 0.98176  0.90821  0.75883  Biso   1.000  C
  C6       1.0000 0.01824  0.40821  0.74117  Biso   1.000  C
  C7       1.0000 0.01824  0.09179  0.24117  Biso   1.000  C
  C8       1.0000 0.98176  0.59179  0.25883  Biso   1.000  C
  H21      1.0000 0.93300  0.84210  0.71600  Biso   1.000  H
  H22      1.0000 0.06700  0.34210  0.78400  Biso   1.000  H
  H23      1.0000 0.06700  0.15790  0.28400  Biso   1.000  H
  H24      1.0000 0.93300  0.65790  0.21600  Biso   1.000  H
  C9       1.0000 0.87800  0.00191  0.75651  Biso   1.000  C
  C10      1.0000 0.12200  0.50191  0.74349  Biso   1.000  C
  C11      1.0000 0.12200  0.99809  0.24349  Biso   1.000  C
  C12      1.0000 0.87800  0.49809  0.25651  Biso   1.000  C
  C13      1.0000 0.95919  0.09726  0.82269  Biso   1.000  C
  C14      1.0000 0.04081  0.59726  0.67731  Biso   1.000  C
  C15      1.0000 0.04081  0.90274  0.17731  Biso   1.000  C
  C16      1.0000 0.95919  0.40274  0.32269  Biso   1.000  C
  H25      1.0000 0.89520  0.16240  0.82350  Biso   1.000  H
  H26      1.0000 0.10480  0.66240  0.67650  Biso   1.000  H
  H27      1.0000 0.10480  0.83760  0.17650  Biso   1.000  H
  H28      1.0000 0.89520  0.33760  0.32350  Biso   1.000  H
  C17      1.0000 0.13619  0.09573  0.88792  Biso   1.000  C
  C18      1.0000 0.86381  0.59573  0.61208  Biso   1.000  C
  C19      1.0000 0.86381  0.90427  0.11208  Biso   1.000  C
  C20      1.0000 0.13619  0.40427  0.38792  Biso   1.000  C
  H29      1.0000 0.18780  0.16050  0.93250  Biso   1.000  H
  H30      1.0000 0.81220  0.66050  0.56750  Biso   1.000  H
  H31      1.0000 0.81220  0.83950  0.06750  Biso   1.000  H
  H32      1.0000 0.18780  0.33950  0.43250  Biso   1.000  H
  C21      1.0000 0.59110  0.95551  0.77476  Biso   1.000  C
  C22      1.0000 0.40890  0.45551  0.72524  Biso   1.000  C
  C23      1.0000 0.40890  0.04449  0.22524  Biso   1.000  C
  C24      1.0000 0.59110  0.54449  0.27476  Biso   1.000  C
  H33      1.0000 0.47760  0.92720  0.72460  Biso   1.000  H
  H34      1.0000 0.52240  0.42720  0.77540  Biso   1.000  H
  H35      1.0000 0.52240  0.07280  0.27540  Biso   1.000  H
  H36      1.0000 0.47760  0.57280  0.22460  Biso   1.000  H
  H37      1.0000 0.65490  0.89260  0.82520  Biso   1.000  H
  H38      1.0000 0.34510  0.39260  0.67480  Biso   1.000  H
  H39      1.0000 0.34510  0.10740  0.17480  Biso   1.000  H
  H40      1.0000 0.65490  0.60740  0.32520  Biso   1.000  H
  C25      1.0000 0.68530  0.99504  0.68871  Biso   1.000  C
  C26      1.0000 0.31470  0.49504  0.81129  Biso   1.000  C
  C27      1.0000 0.31470  0.00496  0.31129  Biso   1.000  C
  C28      1.0000 0.68530  0.50496  0.18871  Biso   1.000  C
  H41      1.0000 0.66110  0.94200  0.62010  Biso   1.000  H
  H42      1.0000 0.33890  0.44200  0.87990  Biso   1.000  H
  H43      1.0000 0.33890  0.05800  0.37990  Biso   1.000  H
  H44      1.0000 0.66110  0.55800  0.12010  Biso   1.000  H
  H45      1.0000 0.64220  0.06960  0.65500  Biso   1.000  H
  H46      1.0000 0.35780  0.56960  0.84500  Biso   1.000  H
  H47      1.0000 0.35780  0.93040  0.34500  Biso   1.000  H
  H48      1.0000 0.64220  0.43040  0.15500  Biso   1.000  H
  Ni1      1.0000 0.00000  0.50000  0.00000  Biso   1.000  Ni
  Ni2      1.0000 0.00000  0.00000  0.50000  Biso   1.000  Ni
  N9       1.0000 0.70314  0.65920  0.87242  Biso   1.000  N
  N10      1.0000 0.29686  0.15920  0.62758  Biso   1.000  N
  N11      1.0000 0.29686  0.34080  0.12758  Biso   1.000  N
  N12      1.0000 0.70314  0.84080  0.37242  Biso   1.000  N
  N13      1.0000 0.24727  0.69890  0.04474  Biso   1.000  N
  N14      1.0000 0.75273  0.19890  0.45526  Biso   1.000  N
  N15      1.0000 0.75273  0.30110  0.95526  Biso   1.000  N
  N16      1.0000 0.24727  0.80110  0.54474  Biso   1.000  N
  C29      1.0000 0.81652  0.59807  0.91980  Biso   1.000  C
  C30      1.0000 0.18348  0.09807  0.58020  Biso   1.000  C
  C31      1.0000 0.18348  0.40193  0.08020  Biso   1.000  C
  C32      1.0000 0.81652  0.90193  0.41980  Biso   1.000  C
  C33      1.0000 0.15288  0.62301  0.02660  Biso   1.000  C
  C34      1.0000 0.84712  0.12301  0.47340  Biso   1.000  C
  C35      1.0000 0.84712  0.37699  0.97340  Biso   1.000  C
  C36      1.0000 0.15288  0.87699  0.52660  Biso   1.000  C
