data_image0
_cell_length_a       14.5619
_cell_length_b       6.476
_cell_length_c       7.4973
_cell_angle_alpha    90
_cell_angle_beta     95.469
_cell_angle_gamma    90

_symmetry_space_group_name_H-M    "P 1"
_symmetry_int_tables_number       1

loop_
  _symmetry_equiv_pos_as_xyz
  'x, y, z'

loop_
  _atom_site_label
  _atom_site_occupancy
  _atom_site_fract_x
  _atom_site_fract_y
  _atom_site_fract_z
  _atom_site_thermal_displace_type
  _atom_site_B_iso_or_equiv
  _atom_site_type_symbol
  Cu1      1.0000 0.25000  0.75000  0.00000  Biso   1.000  Cu
  Cu2      1.0000 0.75000  0.75000  0.00000  Biso   1.000  Cu
  Cu3      1.0000 0.75000  0.25000  0.00000  Biso   1.000  Cu
  Cu4      1.0000 0.25000  0.25000  0.00000  Biso   1.000  Cu
  O1       1.0000 0.35804  0.82627  0.87762  Biso   1.000  O
  O2       1.0000 0.64196  0.82627  0.12238  Biso   1.000  O
  O3       1.0000 0.85804  0.32627  0.87762  Biso   1.000  O
  O4       1.0000 0.14196  0.32627  0.12238  Biso   1.000  O
  O5       1.0000 0.64196  0.17373  0.12238  Biso   1.000  O
  O6       1.0000 0.35804  0.17373  0.87762  Biso   1.000  O
  O7       1.0000 0.14196  0.67373  0.12238  Biso   1.000  O
  O8       1.0000 0.85804  0.67373  0.87762  Biso   1.000  O
  N1       1.0000 0.23156  0.50000  0.84050  Biso   1.000  N
  N2       1.0000 0.76844  0.50000  0.15950  Biso   1.000  N
  N3       1.0000 0.73156  0.00000  0.84050  Biso   1.000  N
  N4       1.0000 0.26844  0.00000  0.15950  Biso   1.000  N
  N5       1.0000 0.25733  0.50000  0.69160  Biso   1.000  N
  N6       1.0000 0.74267  0.50000  0.30840  Biso   1.000  N
  N7       1.0000 0.75733  0.00000  0.69160  Biso   1.000  N
  N8       1.0000 0.24267  0.00000  0.30840  Biso   1.000  N
  N9       1.0000 0.27983  0.50000  0.55020  Biso   1.000  N
  N10      1.0000 0.72017  0.50000  0.44980  Biso   1.000  N
  N11      1.0000 0.77983  0.00000  0.55020  Biso   1.000  N
  N12      1.0000 0.22017  0.00000  0.44980  Biso   1.000  N
  C1       1.0000 0.39220  0.00000  0.84500  Biso   1.000  C
  C2       1.0000 0.60780  0.00000  0.15500  Biso   1.000  C
  C3       1.0000 0.89220  0.50000  0.84500  Biso   1.000  C
  C4       1.0000 0.10780  0.50000  0.15500  Biso   1.000  C
  C5       1.0000 0.48023  0.00000  0.75260  Biso   1.000  C
  C6       1.0000 0.51977  0.00000  0.24740  Biso   1.000  C
  C7       1.0000 0.98023  0.50000  0.75260  Biso   1.000  C
  C8       1.0000 0.01977  0.50000  0.24740  Biso   1.000  C
  H1       1.0000 0.51730  0.87615  0.78871  Biso   1.000  H
  H2       1.0000 0.48270  0.87615  0.21129  Biso   1.000  H
  H3       1.0000 0.01730  0.37615  0.78871  Biso   1.000  H
  H4       1.0000 0.98270  0.37615  0.21129  Biso   1.000  H
  H5       1.0000 0.48270  0.12385  0.21129  Biso   1.000  H
  H6       1.0000 0.51730  0.12385  0.78871  Biso   1.000  H
  H7       1.0000 0.98270  0.62385  0.21129  Biso   1.000  H
  H8       1.0000 0.01730  0.62385  0.78871  Biso   1.000  H
  C9       1.0000 0.45648  0.00000  0.54880  Biso   1.000  C
  C10      1.0000 0.54352  0.00000  0.45120  Biso   1.000  C
  C11      1.0000 0.95648  0.50000  0.54880  Biso   1.000  C
  C12      1.0000 0.04352  0.50000  0.45120  Biso   1.000  C
  H9       1.0000 0.41913  0.87631  0.51350  Biso   1.000  H
  H10      1.0000 0.58087  0.87631  0.48650  Biso   1.000  H
  H11      1.0000 0.91913  0.37631  0.51350  Biso   1.000  H
  H12      1.0000 0.08087  0.37631  0.48650  Biso   1.000  H
  H13      1.0000 0.58087  0.12369  0.48650  Biso   1.000  H
  H14      1.0000 0.41913  0.12369  0.51350  Biso   1.000  H
  H15      1.0000 0.08087  0.62369  0.48650  Biso   1.000  H
  H16      1.0000 0.91913  0.62369  0.51350  Biso   1.000  H
  O9       1.0000 0.16001  0.00000  0.81190  Biso   1.000  O
  O10      1.0000 0.83999  0.00000  0.18810  Biso   1.000  O
  O11      1.0000 0.66001  0.50000  0.81190  Biso   1.000  O
  O12      1.0000 0.33999  0.50000  0.18810  Biso   1.000  O
  H17      1.0000 0.17200  0.00000  0.70400  Biso   1.000  H
  H18      1.0000 0.82800  0.00000  0.29600  Biso   1.000  H
  H19      1.0000 0.67200  0.50000  0.70400  Biso   1.000  H
  H20      1.0000 0.32800  0.50000  0.29600  Biso   1.000  H
  H21      1.0000 0.10180  0.00000  0.79400  Biso   1.000  H
  H22      1.0000 0.89820  0.00000  0.20600  Biso   1.000  H
  H23      1.0000 0.60180  0.50000  0.79400  Biso   1.000  H
  H24      1.0000 0.39820  0.50000  0.20600  Biso   1.000  H
