data_image0
_cell_length_a       13.179
_cell_length_b       11.897
_cell_length_c       12.314
_cell_angle_alpha    90
_cell_angle_beta     96.03
_cell_angle_gamma    90

_symmetry_space_group_name_H-M    "P 1"
_symmetry_int_tables_number       1

loop_
  _symmetry_equiv_pos_as_xyz
  'x, y, z'

loop_
  _atom_site_label
  _atom_site_occupancy
  _atom_site_fract_x
  _atom_site_fract_y
  _atom_site_fract_z
  _atom_site_thermal_displace_type
  _atom_site_B_iso_or_equiv
  _atom_site_type_symbol
  C1       1.0000 0.19772  0.23174  0.28646  Biso   1.000  C
  C2       1.0000 0.19772  0.76826  0.78646  Biso   1.000  C
  C3       1.0000 0.69772  0.73174  0.28646  Biso   1.000  C
  C4       1.0000 0.69772  0.26826  0.78646  Biso   1.000  C
  C5       1.0000 0.30024  0.25386  0.24330  Biso   1.000  C
  C6       1.0000 0.30024  0.74614  0.74330  Biso   1.000  C
  C7       1.0000 0.80024  0.75386  0.24330  Biso   1.000  C
  C8       1.0000 0.80024  0.24614  0.74330  Biso   1.000  C
  H1       1.0000 0.29420  0.32610  0.20500  Biso   1.000  H
  H2       1.0000 0.29420  0.67390  0.70500  Biso   1.000  H
  H3       1.0000 0.79420  0.82610  0.20500  Biso   1.000  H
  H4       1.0000 0.79420  0.17390  0.70500  Biso   1.000  H
  C9       1.0000 0.38580  0.26687  0.33690  Biso   1.000  C
  C10      1.0000 0.38580  0.73313  0.83690  Biso   1.000  C
  C11      1.0000 0.88580  0.76687  0.33690  Biso   1.000  C
  C12      1.0000 0.88580  0.23313  0.83690  Biso   1.000  C
  H5       1.0000 0.36370  0.31820  0.39090  Biso   1.000  H
  H6       1.0000 0.36370  0.68180  0.89090  Biso   1.000  H
  H7       1.0000 0.86370  0.81820  0.39090  Biso   1.000  H
  H8       1.0000 0.86370  0.18180  0.89090  Biso   1.000  H
  H9       1.0000 0.44530  0.29930  0.30860  Biso   1.000  H
  H10      1.0000 0.44530  0.70070  0.80860  Biso   1.000  H
  H11      1.0000 0.94530  0.79930  0.30860  Biso   1.000  H
  H12      1.0000 0.94530  0.20070  0.80860  Biso   1.000  H
  C13      1.0000 0.41519  0.15402  0.39159  Biso   1.000  C
  C14      1.0000 0.41519  0.84598  0.89159  Biso   1.000  C
  C15      1.0000 0.91519  0.65402  0.39159  Biso   1.000  C
  C16      1.0000 0.91519  0.34598  0.89159  Biso   1.000  C
  H13      1.0000 0.47150  0.16510  0.44790  Biso   1.000  H
  H14      1.0000 0.47150  0.83490  0.94790  Biso   1.000  H
  H15      1.0000 0.97150  0.66510  0.44790  Biso   1.000  H
  H16      1.0000 0.97150  0.33490  0.94790  Biso   1.000  H
  H17      1.0000 0.35780  0.12470  0.42600  Biso   1.000  H
  H18      1.0000 0.35780  0.87530  0.92600  Biso   1.000  H
  H19      1.0000 0.85780  0.62470  0.42600  Biso   1.000  H
  H20      1.0000 0.85780  0.37530  0.92600  Biso   1.000  H
  C17      1.0000 0.44610  0.06954  0.30770  Biso   1.000  C
  C18      1.0000 0.44610  0.93046  0.80770  Biso   1.000  C
  C19      1.0000 0.94610  0.56954  0.30770  Biso   1.000  C
  C20      1.0000 0.94610  0.43046  0.80770  Biso   1.000  C
  H21      1.0000 0.50510  0.10110  0.27620  Biso   1.000  H
  H22      1.0000 0.50510  0.89890  0.77620  Biso   1.000  H
  H23      1.0000 0.00510  0.60110  0.27620  Biso   1.000  H
  H24      1.0000 0.00510  0.39890  0.77620  Biso   1.000  H
  C21      1.0000 0.36148  0.05469  0.21444  Biso   1.000  C
  C22      1.0000 0.36148  0.94531  0.71444  Biso   1.000  C
  C23      1.0000 0.86148  0.55469  0.21444  Biso   1.000  C
  C24      1.0000 0.86148  0.44531  0.71444  Biso   1.000  C
  H25      1.0000 0.30290  0.01970  0.24220  Biso   1.000  H
  H26      1.0000 0.30290  0.98030  0.74220  Biso   1.000  H
  H27      1.0000 0.80290  0.51970  0.24220  Biso   1.000  H
  H28      1.0000 0.80290  0.48030  0.74220  Biso   1.000  H
  H29      1.0000 0.38500  0.00520  0.15980  Biso   1.000  H
  H30      1.0000 0.38500  0.99480  0.65980  Biso   1.000  H
  H31      1.0000 0.88500  0.50520  0.15980  Biso   1.000  H
  H32      1.0000 0.88500  0.49480  0.65980  Biso   1.000  H
  C25      1.0000 0.32944  0.16732  0.16160  Biso   1.000  C
  C26      1.0000 0.32944  0.83268  0.66160  Biso   1.000  C
  C27      1.0000 0.82944  0.66732  0.16160  Biso   1.000  C
  C28      1.0000 0.82944  0.33268  0.66160  Biso   1.000  C
  H33      1.0000 0.38530  0.19660  0.12460  Biso   1.000  H
  H34      1.0000 0.38530  0.80340  0.62460  Biso   1.000  H
  H35      1.0000 0.88530  0.69660  0.12460  Biso   1.000  H
  H36      1.0000 0.88530  0.30340  0.62460  Biso   1.000  H
  H37      1.0000 0.27180  0.15520  0.10710  Biso   1.000  H
  H38      1.0000 0.27180  0.84480  0.60710  Biso   1.000  H
  H39      1.0000 0.77180  0.65520  0.10710  Biso   1.000  H
  H40      1.0000 0.77180  0.34480  0.60710  Biso   1.000  H
  C29      1.0000 0.47826  0.95599  0.35574  Biso   1.000  C
  C30      1.0000 0.47826  0.04401  0.85574  Biso   1.000  C
  C31      1.0000 0.97826  0.45599  0.35574  Biso   1.000  C
  C32      1.0000 0.97826  0.54401  0.85574  Biso   1.000  C
  C33      1.0000 0.10618  0.22595  0.61220  Biso   1.000  C
  C34      1.0000 0.10618  0.77405  0.11220  Biso   1.000  C
  C35      1.0000 0.60618  0.72595  0.61220  Biso   1.000  C
  C36      1.0000 0.60618  0.27405  0.11220  Biso   1.000  C
  H41      1.0000 0.10560  0.30370  0.62010  Biso   1.000  H
  H42      1.0000 0.10560  0.69630  0.12010  Biso   1.000  H
  H43      1.0000 0.60560  0.80370  0.62010  Biso   1.000  H
  H44      1.0000 0.60560  0.19630  0.12010  Biso   1.000  H
  C37      1.0000 0.13440  0.15250  0.69177  Biso   1.000  C
  C38      1.0000 0.13440  0.84750  0.19177  Biso   1.000  C
  C39      1.0000 0.63440  0.65250  0.69177  Biso   1.000  C
  C40      1.0000 0.63440  0.34750  0.19177  Biso   1.000  C
  H45      1.0000 0.15690  0.16910  0.76410  Biso   1.000  H
  H46      1.0000 0.15690  0.83090  0.26410  Biso   1.000  H
  H47      1.0000 0.65690  0.66910  0.76410  Biso   1.000  H
  H48      1.0000 0.65690  0.33090  0.26410  Biso   1.000  H
  C41      1.0000 0.09062  0.06032  0.54026  Biso   1.000  C
  C42      1.0000 0.09062  0.93968  0.04026  Biso   1.000  C
  C43      1.0000 0.59062  0.56032  0.54026  Biso   1.000  C
  C44      1.0000 0.59062  0.43968  0.04026  Biso   1.000  C
  C45      1.0000 0.07450  0.96600  0.46190  Biso   1.000  C
  C46      1.0000 0.07450  0.03400  0.96190  Biso   1.000  C
  C47      1.0000 0.57450  0.46600  0.46190  Biso   1.000  C
  C48      1.0000 0.57450  0.53400  0.96190  Biso   1.000  C
  H49      1.0000 0.05860  0.89900  0.50020  Biso   1.000  H
  H50      1.0000 0.05860  0.10100  0.00020  Biso   1.000  H
  H51      1.0000 0.55860  0.39900  0.50020  Biso   1.000  H
  H52      1.0000 0.55860  0.60100  0.00020  Biso   1.000  H
  H53      1.0000 0.13540  0.95420  0.42700  Biso   1.000  H
  H54      1.0000 0.13540  0.04580  0.92700  Biso   1.000  H
  H55      1.0000 0.63540  0.45420  0.42700  Biso   1.000  H
  H56      1.0000 0.63540  0.54580  0.92700  Biso   1.000  H
  H57      1.0000 0.01900  0.98380  0.40780  Biso   1.000  H
  H58      1.0000 0.01900  0.01620  0.90780  Biso   1.000  H
  H59      1.0000 0.51900  0.48380  0.40780  Biso   1.000  H
  H60      1.0000 0.51900  0.51620  0.90780  Biso   1.000  H
  C49      1.0000 0.84141  0.12450  0.43684  Biso   1.000  C
  C50      1.0000 0.84141  0.87550  0.93684  Biso   1.000  C
  C51      1.0000 0.34141  0.62450  0.43684  Biso   1.000  C
  C52      1.0000 0.34141  0.37550  0.93684  Biso   1.000  C
  H61      1.0000 0.85740  0.13380  0.51170  Biso   1.000  H
  H62      1.0000 0.85740  0.86620  0.01170  Biso   1.000  H
  H63      1.0000 0.35740  0.63380  0.51170  Biso   1.000  H
  H64      1.0000 0.35740  0.36620  0.01170  Biso   1.000  H
  C53      1.0000 0.76030  0.06790  0.38940  Biso   1.000  C
  C54      1.0000 0.76030  0.93210  0.88940  Biso   1.000  C
  C55      1.0000 0.26030  0.56790  0.38940  Biso   1.000  C
  C56      1.0000 0.26030  0.43210  0.88940  Biso   1.000  C
  H65      1.0000 0.71040  0.03170  0.42460  Biso   1.000  H
  H66      1.0000 0.71040  0.96830  0.92460  Biso   1.000  H
  H67      1.0000 0.21040  0.53170  0.42460  Biso   1.000  H
  H68      1.0000 0.21040  0.46830  0.92460  Biso   1.000  H
  C57      1.0000 0.84824  0.13368  0.26216  Biso   1.000  C
  C58      1.0000 0.84824  0.86632  0.76216  Biso   1.000  C
  C59      1.0000 0.34824  0.63368  0.26216  Biso   1.000  C
  C60      1.0000 0.34824  0.36632  0.76216  Biso   1.000  C
  C61      1.0000 0.87830  0.16050  0.15148  Biso   1.000  C
  C62      1.0000 0.87830  0.83950  0.65148  Biso   1.000  C
  C63      1.0000 0.37830  0.66050  0.15148  Biso   1.000  C
  C64      1.0000 0.37830  0.33950  0.65148  Biso   1.000  C
  H69      1.0000 0.83180  0.12480  0.09690  Biso   1.000  H
  H70      1.0000 0.83180  0.87520  0.59690  Biso   1.000  H
  H71      1.0000 0.33180  0.62480  0.09690  Biso   1.000  H
  H72      1.0000 0.33180  0.37520  0.59690  Biso   1.000  H
  H73      1.0000 0.94620  0.13360  0.14590  Biso   1.000  H
  H74      1.0000 0.94620  0.86640  0.64590  Biso   1.000  H
  H75      1.0000 0.44620  0.63360  0.14590  Biso   1.000  H
  H76      1.0000 0.44620  0.36640  0.64590  Biso   1.000  H
  H77      1.0000 0.87620  0.24040  0.14050  Biso   1.000  H
  H78      1.0000 0.87620  0.75960  0.64050  Biso   1.000  H
  H79      1.0000 0.37620  0.74040  0.14050  Biso   1.000  H
  H80      1.0000 0.37620  0.25960  0.64050  Biso   1.000  H
  N1       1.0000 0.07791  0.16816  0.51644  Biso   1.000  N
  N2       1.0000 0.07791  0.83184  0.01644  Biso   1.000  N
  N3       1.0000 0.57791  0.66816  0.51644  Biso   1.000  N
  N4       1.0000 0.57791  0.33184  0.01644  Biso   1.000  N
  N5       1.0000 0.12344  0.04764  0.64560  Biso   1.000  N
  N6       1.0000 0.12344  0.95236  0.14560  Biso   1.000  N
  N7       1.0000 0.62344  0.54764  0.64560  Biso   1.000  N
  N8       1.0000 0.62344  0.45236  0.14560  Biso   1.000  N
  H81      1.0000 0.13560  0.98470  0.67880  Biso   1.000  H
  H82      1.0000 0.13560  0.01530  0.17880  Biso   1.000  H
  H83      1.0000 0.63560  0.48470  0.67880  Biso   1.000  H
  H84      1.0000 0.63560  0.51530  0.17880  Biso   1.000  H
  N9       1.0000 0.89764  0.16677  0.35673  Biso   1.000  N
  N10      1.0000 0.89764  0.83323  0.85673  Biso   1.000  N
  N11      1.0000 0.39764  0.66677  0.35673  Biso   1.000  N
  N12      1.0000 0.39764  0.33323  0.85673  Biso   1.000  N
  N13      1.0000 0.76555  0.07396  0.28022  Biso   1.000  N
  N14      1.0000 0.76555  0.92604  0.78022  Biso   1.000  N
  N15      1.0000 0.26555  0.57396  0.28022  Biso   1.000  N
  N16      1.0000 0.26555  0.42604  0.78022  Biso   1.000  N
  H85      1.0000 0.72280  0.04440  0.23080  Biso   1.000  H
  H86      1.0000 0.72280  0.95560  0.73080  Biso   1.000  H
  H87      1.0000 0.22280  0.54440  0.23080  Biso   1.000  H
  H88      1.0000 0.22280  0.45560  0.73080  Biso   1.000  H
  O1       1.0000 0.13847  0.15720  0.24666  Biso   1.000  O
  O2       1.0000 0.13847  0.84280  0.74666  Biso   1.000  O
  O3       1.0000 0.63847  0.65720  0.24666  Biso   1.000  O
  O4       1.0000 0.63847  0.34280  0.74666  Biso   1.000  O
  O5       1.0000 0.17380  0.29511  0.36217  Biso   1.000  O
  O6       1.0000 0.17380  0.70489  0.86217  Biso   1.000  O
  O7       1.0000 0.67380  0.79511  0.36217  Biso   1.000  O
  O8       1.0000 0.67380  0.20489  0.86217  Biso   1.000  O
  O9       1.0000 0.61751  0.03906  0.63232  Biso   1.000  O
  O10      1.0000 0.61751  0.96094  0.13232  Biso   1.000  O
  O11      1.0000 0.11751  0.53906  0.63232  Biso   1.000  O
  O12      1.0000 0.11751  0.46094  0.13232  Biso   1.000  O
  O13      1.0000 0.48379  0.87543  0.28814  Biso   1.000  O
  O14      1.0000 0.48379  0.12457  0.78814  Biso   1.000  O
  O15      1.0000 0.98379  0.37543  0.28814  Biso   1.000  O
  O16      1.0000 0.98379  0.62457  0.78814  Biso   1.000  O
  O17      1.0000 0.49861  0.94147  0.45594  Biso   1.000  O
  O18      1.0000 0.49861  0.05853  0.95594  Biso   1.000  O
  O19      1.0000 0.99861  0.44147  0.45594  Biso   1.000  O
  O20      1.0000 0.99861  0.55853  0.95594  Biso   1.000  O
  Cu1      1.0000 0.03143  0.24681  0.37949  Biso   1.000  Cu
  Cu2      1.0000 0.03143  0.75319  0.87949  Biso   1.000  Cu
  Cu3      1.0000 0.53143  0.74681  0.37949  Biso   1.000  Cu
  Cu4      1.0000 0.53143  0.25319  0.87949  Biso   1.000  Cu
  H89      1.0000 0.58120  0.01500  0.58070  Biso   1.000  H
  H90      1.0000 0.58120  0.98500  0.08070  Biso   1.000  H
  H91      1.0000 0.08120  0.51500  0.58070  Biso   1.000  H
  H92      1.0000 0.08120  0.48500  0.08070  Biso   1.000  H
  H93      1.0000 0.58160  0.07360  0.67170  Biso   1.000  H
  H94      1.0000 0.58160  0.92640  0.17170  Biso   1.000  H
  H95      1.0000 0.08160  0.57360  0.67170  Biso   1.000  H
  H96      1.0000 0.08160  0.42640  0.17170  Biso   1.000  H
