data_image0
_cell_length_a       7.1082
_cell_length_b       9.7617
_cell_length_c       10.4855
_cell_angle_alpha    85.764
_cell_angle_beta     70.407
_cell_angle_gamma    87.749

_symmetry_space_group_name_H-M    "P 1"
_symmetry_int_tables_number       1

loop_
  _symmetry_equiv_pos_as_xyz
  'x, y, z'

loop_
  _atom_site_label
  _atom_site_occupancy
  _atom_site_fract_x
  _atom_site_fract_y
  _atom_site_fract_z
  _atom_site_thermal_displace_type
  _atom_site_B_iso_or_equiv
  _atom_site_type_symbol
  Cu1      1.0000 0.87853  0.48670  0.38621  Biso   1.000  Cu
  Cu2      1.0000 0.12147  0.51330  0.61379  Biso   1.000  Cu
  O1       1.0000 0.82260  0.61850  0.52280  Biso   1.000  O
  O2       1.0000 0.17740  0.38150  0.47720  Biso   1.000  O
  O3       1.0000 0.58020  0.66610  0.71390  Biso   1.000  O
  O4       1.0000 0.41980  0.33390  0.28610  Biso   1.000  O
  O5       1.0000 0.66810  0.38140  0.51950  Biso   1.000  O
  O6       1.0000 0.33190  0.61860  0.48050  Biso   1.000  O
  O7       1.0000 0.41730  0.41160  0.71030  Biso   1.000  O
  O8       1.0000 0.58270  0.58840  0.28970  Biso   1.000  O
  N1       1.0000 0.07520  0.59890  0.24110  Biso   1.000  N
  N2       1.0000 0.92480  0.40110  0.75890  Biso   1.000  N
  N3       1.0000 0.95710  0.35000  0.24780  Biso   1.000  N
  N4       1.0000 0.04290  0.65000  0.75220  Biso   1.000  N
  C1       1.0000 0.65940  0.59250  0.62240  Biso   1.000  C
  C2       1.0000 0.34060  0.40750  0.37760  Biso   1.000  C
  C3       1.0000 0.57140  0.45000  0.62030  Biso   1.000  C
  C4       1.0000 0.42860  0.55000  0.37970  Biso   1.000  C
  C5       1.0000 0.12560  0.72850  0.24960  Biso   1.000  C
  C6       1.0000 0.87440  0.27150  0.75040  Biso   1.000  C
  H1       1.0000 0.06920  0.76660  0.34490  Biso   1.000  H
  H2       1.0000 0.93080  0.23340  0.65510  Biso   1.000  H
  C7       1.0000 0.25940  0.79970  0.13970  Biso   1.000  C
  C8       1.0000 0.74060  0.20030  0.86030  Biso   1.000  C
  H3       1.0000 0.29240  0.88540  0.15830  Biso   1.000  H
  H4       1.0000 0.70760  0.11460  0.84170  Biso   1.000  H
  C9       1.0000 0.33950  0.73720  0.01960  Biso   1.000  C
  C10      1.0000 0.66050  0.26280  0.98040  Biso   1.000  C
  H5       1.0000 0.43680  0.77570  0.94500  Biso   1.000  H
  H6       1.0000 0.56320  0.22430  0.05500  Biso   1.000  H
  C11      1.0000 0.28900  0.60320  0.01010  Biso   1.000  C
  C12      1.0000 0.71100  0.39680  0.98990  Biso   1.000  C
  H7       1.0000 0.34900  0.55580  0.92480  Biso   1.000  H
  H8       1.0000 0.65100  0.44420  0.07520  Biso   1.000  H
  C13      1.0000 0.15660  0.53650  0.12430  Biso   1.000  C
  C14      1.0000 0.84340  0.46350  0.87570  Biso   1.000  C
  C15      1.0000 0.09410  0.39350  0.12900  Biso   1.000  C
  C16      1.0000 0.90590  0.60650  0.87100  Biso   1.000  C
  C17      1.0000 0.16900  0.30700  0.02440  Biso   1.000  C
  C18      1.0000 0.83100  0.69300  0.97560  Biso   1.000  C
  H9       1.0000 0.26920  0.33730  0.94470  Biso   1.000  H
  H10      1.0000 0.73080  0.66270  0.05530  Biso   1.000  H
  C19      1.0000 0.10540  0.17270  0.04390  Biso   1.000  C
  C20      1.0000 0.89460  0.82730  0.95610  Biso   1.000  C
  H11      1.0000 0.15850  0.10700  0.98200  Biso   1.000  H
  H12      1.0000 0.84150  0.89300  0.01800  Biso   1.000  H
  C21      1.0000 0.96600  0.12880  0.16570  Biso   1.000  C
  C22      1.0000 0.03400  0.87120  0.83430  Biso   1.000  C
  H13      1.0000 0.91300  0.02680  0.19420  Biso   1.000  H
  H14      1.0000 0.08700  0.97320  0.80580  Biso   1.000  H
  C23      1.0000 0.89320  0.22080  0.26550  Biso   1.000  C
  C24      1.0000 0.10680  0.77920  0.73450  Biso   1.000  C
  H15      1.0000 0.79250  0.20050  0.34610  Biso   1.000  H
  H16      1.0000 0.20750  0.79950  0.65390  Biso   1.000  H
  O9       1.0000 0.37850  0.06230  0.27330  Biso   1.000  O
  O10      1.0000 0.62150  0.93770  0.72670  Biso   1.000  O
  H17      1.0000 0.49300  0.05720  0.26300  Biso   1.000  H
  H18      1.0000 0.50700  0.94280  0.73700  Biso   1.000  H
  C25      1.0000 0.29720  0.05550  0.41780  Biso   1.000  C
  C26      1.0000 0.70280  0.94450  0.58220  Biso   1.000  C
  H19      1.0000 0.34380  0.13970  0.44010  Biso   1.000  H
  H20      1.0000 0.65620  0.86030  0.55990  Biso   1.000  H
  H21      1.0000 0.37700  0.98310  0.44390  Biso   1.000  H
  H22      1.0000 0.62300  0.01690  0.55610  Biso   1.000  H
  C27      1.0000 0.09400  0.03860  0.52590  Biso   1.000  C
  C28      1.0000 0.90600  0.96140  0.47410  Biso   1.000  C
  H23      1.0000 0.10750  0.04020  0.61380  Biso   1.000  H
  H24      1.0000 0.89250  0.95980  0.38620  Biso   1.000  H
  H25      1.0000 0.03890  0.95260  0.51840  Biso   1.000  H
  H26      1.0000 0.96110  0.04740  0.48160  Biso   1.000  H
  H27      1.0000 0.00700  0.11250  0.51400  Biso   1.000  H
  H28      1.0000 0.99300  0.88750  0.48600  Biso   1.000  H
  O11      1.0000 0.34820  0.12330  0.67640  Biso   1.000  O
  O12      1.0000 0.65180  0.87670  0.32360  Biso   1.000  O
  H29      1.0000 0.37500  0.20940  0.67440  Biso   1.000  H
  H30      1.0000 0.62500  0.79060  0.32560  Biso   1.000  H
  H31      1.0000 0.30080  0.11420  0.59850  Biso   1.000  H
  H32      1.0000 0.69920  0.88580  0.40150  Biso   1.000  H
