data_image0
_cell_length_a       9.589
_cell_length_b       17.185
_cell_length_c       14.856
_cell_angle_alpha    90
_cell_angle_beta     100.07
_cell_angle_gamma    90

_symmetry_space_group_name_H-M    "P 1"
_symmetry_int_tables_number       1

loop_
  _symmetry_equiv_pos_as_xyz
  'x, y, z'

loop_
  _atom_site_label
  _atom_site_occupancy
  _atom_site_fract_x
  _atom_site_fract_y
  _atom_site_fract_z
  _atom_site_thermal_displace_type
  _atom_site_B_iso_or_equiv
  _atom_site_type_symbol
  Cu1      1.0000 0.54303  0.24990  0.53898  Biso   1.000  Cu
  Cu2      1.0000 0.95697  0.74990  0.96102  Biso   1.000  Cu
  Cu3      1.0000 0.45697  0.75010  0.46102  Biso   1.000  Cu
  Cu4      1.0000 0.04303  0.25010  0.03898  Biso   1.000  Cu
  Mo1      1.0000 0.79135  0.19552  0.79166  Biso   1.000  Mo
  Mo2      1.0000 0.70865  0.69552  0.70834  Biso   1.000  Mo
  Mo3      1.0000 0.20865  0.80448  0.20834  Biso   1.000  Mo
  Mo4      1.0000 0.29135  0.30448  0.29166  Biso   1.000  Mo
  C1       1.0000 0.14570  0.16600  0.56810  Biso   1.000  C
  C2       1.0000 0.35430  0.66600  0.93190  Biso   1.000  C
  C3       1.0000 0.85430  0.83400  0.43190  Biso   1.000  C
  C4       1.0000 0.64570  0.33400  0.06810  Biso   1.000  C
  C5       1.0000 0.20640  0.16580  0.65750  Biso   1.000  C
  C6       1.0000 0.29360  0.66580  0.84250  Biso   1.000  C
  C7       1.0000 0.79360  0.83420  0.34250  Biso   1.000  C
  C8       1.0000 0.70640  0.33420  0.15750  Biso   1.000  C
  H1       1.0000 0.16475  0.15048  0.70665  Biso   1.000  H
  H2       1.0000 0.33525  0.65048  0.79335  Biso   1.000  H
  H3       1.0000 0.83525  0.84952  0.29335  Biso   1.000  H
  H4       1.0000 0.66475  0.34952  0.20665  Biso   1.000  H
  C9       1.0000 0.34140  0.19280  0.66090  Biso   1.000  C
  C10      1.0000 0.15860  0.69280  0.83910  Biso   1.000  C
  C11      1.0000 0.65860  0.80720  0.33910  Biso   1.000  C
  C12      1.0000 0.84140  0.30720  0.16090  Biso   1.000  C
  H5       1.0000 0.40703  0.19914  0.71440  Biso   1.000  H
  H6       1.0000 0.09297  0.69914  0.78560  Biso   1.000  H
  H7       1.0000 0.59297  0.80086  0.28560  Biso   1.000  H
  H8       1.0000 0.90703  0.30086  0.21440  Biso   1.000  H
  C13      1.0000 0.00190  0.14230  0.52080  Biso   1.000  C
  C14      1.0000 0.49810  0.64230  0.97920  Biso   1.000  C
  C15      1.0000 0.99810  0.85770  0.47920  Biso   1.000  C
  C16      1.0000 0.50190  0.35770  0.02080  Biso   1.000  C
  H9       1.0000 0.97958  0.16898  0.46330  Biso   1.000  H
  H10      1.0000 0.52042  0.66898  0.03670  Biso   1.000  H
  H11      1.0000 0.02042  0.83102  0.53670  Biso   1.000  H
  H12      1.0000 0.47958  0.33102  0.96330  Biso   1.000  H
  H13      1.0000 0.93332  0.15554  0.55822  Biso   1.000  H
  H14      1.0000 0.56668  0.65554  0.94178  Biso   1.000  H
  H15      1.0000 0.06668  0.84446  0.44178  Biso   1.000  H
  H16      1.0000 0.43332  0.34446  0.05822  Biso   1.000  H
  H17      1.0000 0.00029  0.08716  0.51040  Biso   1.000  H
  H18      1.0000 0.49971  0.58716  0.98960  Biso   1.000  H
  H19      1.0000 0.99971  0.91284  0.48960  Biso   1.000  H
  H20      1.0000 0.50029  0.41284  0.01040  Biso   1.000  H
  C17      1.0000 0.57110  0.05180  0.38000  Biso   1.000  C
  C18      1.0000 0.92890  0.55180  0.12000  Biso   1.000  C
  C19      1.0000 0.42890  0.94820  0.62000  Biso   1.000  C
  C20      1.0000 0.07110  0.44820  0.88000  Biso   1.000  C
  C21      1.0000 0.65340  0.02610  0.45820  Biso   1.000  C
  C22      1.0000 0.84660  0.52610  0.04180  Biso   1.000  C
  C23      1.0000 0.34660  0.97390  0.54180  Biso   1.000  C
  C24      1.0000 0.15340  0.47390  0.95820  Biso   1.000  C
  H21      1.0000 0.70019  0.97858  0.46783  Biso   1.000  H
  H22      1.0000 0.79981  0.47858  0.03217  Biso   1.000  H
  H23      1.0000 0.29981  0.02142  0.53217  Biso   1.000  H
  H24      1.0000 0.20019  0.52142  0.96783  Biso   1.000  H
  C25      1.0000 0.65260  0.08630  0.52090  Biso   1.000  C
  C26      1.0000 0.84740  0.58630  0.97910  Biso   1.000  C
  C27      1.0000 0.34740  0.91370  0.47910  Biso   1.000  C
  C28      1.0000 0.15260  0.41370  0.02090  Biso   1.000  C
  H25      1.0000 0.69886  0.08473  0.58131  Biso   1.000  H
  H26      1.0000 0.80114  0.58473  0.91869  Biso   1.000  H
  H27      1.0000 0.30114  0.91527  0.41869  Biso   1.000  H
  H28      1.0000 0.19886  0.41527  0.08131  Biso   1.000  H
  C29      1.0000 0.52590  0.01380  0.28800  Biso   1.000  C
  C30      1.0000 0.97410  0.51380  0.21200  Biso   1.000  C
  C31      1.0000 0.47410  0.98620  0.71200  Biso   1.000  C
  C32      1.0000 0.02590  0.48620  0.78800  Biso   1.000  C
  H29      1.0000 0.45586  0.04552  0.25104  Biso   1.000  H
  H30      1.0000 0.04414  0.54552  0.24896  Biso   1.000  H
  H31      1.0000 0.54414  0.95448  0.74896  Biso   1.000  H
  H32      1.0000 0.95586  0.45448  0.75104  Biso   1.000  H
  H33      1.0000 0.48646  0.96342  0.29618  Biso   1.000  H
  H34      1.0000 0.01354  0.46342  0.20382  Biso   1.000  H
  H35      1.0000 0.51354  0.03658  0.70382  Biso   1.000  H
  H36      1.0000 0.98646  0.53658  0.79618  Biso   1.000  H
  H37      1.0000 0.60652  0.00810  0.25832  Biso   1.000  H
  H38      1.0000 0.89348  0.50810  0.24168  Biso   1.000  H
  H39      1.0000 0.39348  0.99190  0.74168  Biso   1.000  H
  H40      1.0000 0.10652  0.49190  0.75832  Biso   1.000  H
  C33      1.0000 0.49760  0.43860  0.70590  Biso   1.000  C
  C34      1.0000 0.00240  0.93860  0.79410  Biso   1.000  C
  C35      1.0000 0.50240  0.56140  0.29410  Biso   1.000  C
  C36      1.0000 0.99760  0.06140  0.20590  Biso   1.000  C
  C37      1.0000 0.43410  0.47170  0.62610  Biso   1.000  C
  C38      1.0000 0.06590  0.97170  0.87390  Biso   1.000  C
  C39      1.0000 0.56590  0.52830  0.37390  Biso   1.000  C
  C40      1.0000 0.93410  0.02830  0.12610  Biso   1.000  C
  H41      1.0000 0.39330  0.52081  0.61765  Biso   1.000  H
  H42      1.0000 0.10670  0.02081  0.88235  Biso   1.000  H
  H43      1.0000 0.60670  0.47919  0.38235  Biso   1.000  H
  H44      1.0000 0.89330  0.97919  0.11765  Biso   1.000  H
  C41      1.0000 0.44370  0.41560  0.56010  Biso   1.000  C
  C42      1.0000 0.05630  0.91560  0.93990  Biso   1.000  C
  C43      1.0000 0.55630  0.58440  0.43990  Biso   1.000  C
  C44      1.0000 0.94370  0.08440  0.06010  Biso   1.000  C
  H45      1.0000 0.40792  0.42163  0.49812  Biso   1.000  H
  H46      1.0000 0.09208  0.92163  0.00188  Biso   1.000  H
  H47      1.0000 0.59208  0.57837  0.50188  Biso   1.000  H
  H48      1.0000 0.90792  0.07837  0.99812  Biso   1.000  H
  C45      1.0000 0.52300  0.46700  0.80350  Biso   1.000  C
  C46      1.0000 0.97700  0.96700  0.69650  Biso   1.000  C
  C47      1.0000 0.47700  0.53300  0.19650  Biso   1.000  C
  C48      1.0000 0.02300  0.03300  0.30350  Biso   1.000  C
  H49      1.0000 0.48648  0.42964  0.84146  Biso   1.000  H
  H50      1.0000 0.01352  0.92964  0.65854  Biso   1.000  H
  H51      1.0000 0.51352  0.57036  0.15854  Biso   1.000  H
  H52      1.0000 0.98648  0.07036  0.34146  Biso   1.000  H
  H53      1.0000 0.47582  0.51596  0.80679  Biso   1.000  H
  H54      1.0000 0.02418  0.01596  0.69321  Biso   1.000  H
  H55      1.0000 0.52418  0.48404  0.19321  Biso   1.000  H
  H56      1.0000 0.97582  0.98404  0.30679  Biso   1.000  H
  H57      1.0000 0.62283  0.47356  0.82449  Biso   1.000  H
  H58      1.0000 0.87717  0.97356  0.67551  Biso   1.000  H
  H59      1.0000 0.37717  0.52644  0.17551  Biso   1.000  H
  H60      1.0000 0.12283  0.02644  0.32449  Biso   1.000  H
  C49      1.0000 0.93150  0.34910  0.51510  Biso   1.000  C
  C50      1.0000 0.56850  0.84910  0.98490  Biso   1.000  C
  C51      1.0000 0.06850  0.65090  0.48490  Biso   1.000  C
  C52      1.0000 0.43150  0.15090  0.01510  Biso   1.000  C
  C53      1.0000 0.87610  0.34410  0.42400  Biso   1.000  C
  C54      1.0000 0.62390  0.84410  0.07600  Biso   1.000  C
  C55      1.0000 0.12390  0.65590  0.57600  Biso   1.000  C
  C56      1.0000 0.37610  0.15590  0.92400  Biso   1.000  C
  H61      1.0000 0.91765  0.36065  0.37526  Biso   1.000  H
  H62      1.0000 0.58235  0.86065  0.12474  Biso   1.000  H
  H63      1.0000 0.08235  0.63935  0.62474  Biso   1.000  H
  H64      1.0000 0.41765  0.13935  0.87526  Biso   1.000  H
  C57      1.0000 0.74490  0.30920  0.41970  Biso   1.000  C
  C58      1.0000 0.75510  0.80920  0.08030  Biso   1.000  C
  C59      1.0000 0.25510  0.69080  0.58030  Biso   1.000  C
  C60      1.0000 0.24490  0.19080  0.91970  Biso   1.000  C
  H65      1.0000 0.68278  0.29861  0.36566  Biso   1.000  H
  H66      1.0000 0.81722  0.79861  0.13434  Biso   1.000  H
  H67      1.0000 0.31722  0.70139  0.63434  Biso   1.000  H
  H68      1.0000 0.18278  0.20139  0.86566  Biso   1.000  H
  C61      1.0000 0.07100  0.37850  0.56290  Biso   1.000  C
  C62      1.0000 0.42900  0.87850  0.93710  Biso   1.000  C
  C63      1.0000 0.92900  0.62150  0.43710  Biso   1.000  C
  C64      1.0000 0.57100  0.12150  0.06290  Biso   1.000  C
  H69      1.0000 0.09602  0.35264  0.62080  Biso   1.000  H
  H70      1.0000 0.40398  0.85264  0.87920  Biso   1.000  H
  H71      1.0000 0.90398  0.64736  0.37920  Biso   1.000  H
  H72      1.0000 0.59602  0.14736  0.12080  Biso   1.000  H
  H73      1.0000 0.06505  0.43352  0.57264  Biso   1.000  H
  H74      1.0000 0.43495  0.93352  0.92736  Biso   1.000  H
  H75      1.0000 0.93495  0.56648  0.42736  Biso   1.000  H
  H76      1.0000 0.56505  0.06648  0.07264  Biso   1.000  H
  H77      1.0000 0.14194  0.36821  0.52618  Biso   1.000  H
  H78      1.0000 0.35806  0.86821  0.97382  Biso   1.000  H
  H79      1.0000 0.85806  0.63179  0.47382  Biso   1.000  H
  H80      1.0000 0.64194  0.13179  0.02618  Biso   1.000  H
  N1       1.0000 0.36640  0.20860  0.57800  Biso   1.000  N
  N2       1.0000 0.13360  0.70860  0.92200  Biso   1.000  N
  N3       1.0000 0.63360  0.79140  0.42200  Biso   1.000  N
  N4       1.0000 0.86640  0.29140  0.07800  Biso   1.000  N
  N5       1.0000 0.24450  0.19150  0.52180  Biso   1.000  N
  N6       1.0000 0.25550  0.69150  0.97820  Biso   1.000  N
  N7       1.0000 0.75550  0.80850  0.47820  Biso   1.000  N
  N8       1.0000 0.74450  0.30850  0.02180  Biso   1.000  N
  H81      1.0000 0.23155  0.19635  0.46332  Biso   1.000  H
  H82      1.0000 0.26845  0.69635  0.03668  Biso   1.000  H
  H83      1.0000 0.76845  0.80365  0.53668  Biso   1.000  H
  H84      1.0000 0.73155  0.30365  0.96332  Biso   1.000  H
  N9       1.0000 0.57720  0.14609  0.48300  Biso   1.000  N
  N10      1.0000 0.92280  0.64609  0.01700  Biso   1.000  N
  N11      1.0000 0.42280  0.85391  0.51700  Biso   1.000  N
  N12      1.0000 0.07720  0.35391  0.98300  Biso   1.000  N
  N13      1.0000 0.52780  0.12330  0.39670  Biso   1.000  N
  N14      1.0000 0.97220  0.62330  0.10330  Biso   1.000  N
  N15      1.0000 0.47220  0.87670  0.60330  Biso   1.000  N
  N16      1.0000 0.02780  0.37670  0.89670  Biso   1.000  N
  H85      1.0000 0.47450  0.15146  0.35690  Biso   1.000  H
  H86      1.0000 0.02550  0.65146  0.14310  Biso   1.000  H
  H87      1.0000 0.52550  0.84854  0.64310  Biso   1.000  H
  H88      1.0000 0.97450  0.34854  0.85690  Biso   1.000  H
  N17      1.0000 0.50940  0.35330  0.59610  Biso   1.000  N
  N18      1.0000 0.99060  0.85330  0.90390  Biso   1.000  N
  N19      1.0000 0.49060  0.64670  0.40390  Biso   1.000  N
  N20      1.0000 0.00940  0.14670  0.09610  Biso   1.000  N
  N21      1.0000 0.54190  0.36870  0.68580  Biso   1.000  N
  N22      1.0000 0.95810  0.86870  0.81420  Biso   1.000  N
  N23      1.0000 0.45810  0.63130  0.31420  Biso   1.000  N
  N24      1.0000 0.04190  0.13130  0.18580  Biso   1.000  N
  H89      1.0000 0.58610  0.33696  0.72565  Biso   1.000  H
  H90      1.0000 0.91390  0.83696  0.77435  Biso   1.000  H
  H91      1.0000 0.41390  0.66304  0.27435  Biso   1.000  H
  H92      1.0000 0.08610  0.16304  0.22565  Biso   1.000  H
  N25      1.0000 0.71920  0.29290  0.50180  Biso   1.000  N
  N26      1.0000 0.78080  0.79290  0.99820  Biso   1.000  N
  N27      1.0000 0.28080  0.70710  0.49820  Biso   1.000  N
  N28      1.0000 0.21920  0.20710  0.00180  Biso   1.000  N
  N29      1.0000 0.83470  0.31830  0.55960  Biso   1.000  N
  N30      1.0000 0.66530  0.81830  0.94040  Biso   1.000  N
  N31      1.0000 0.16530  0.68170  0.44040  Biso   1.000  N
  N32      1.0000 0.33470  0.18170  0.05960  Biso   1.000  N
  H93      1.0000 0.84493  0.31515  0.61815  Biso   1.000  H
  H94      1.0000 0.65507  0.81515  0.88185  Biso   1.000  H
  H95      1.0000 0.15507  0.68485  0.38185  Biso   1.000  H
  H96      1.0000 0.34493  0.18485  0.11815  Biso   1.000  H
  O1       1.0000 0.69380  0.12340  0.83100  Biso   1.000  O
  O2       1.0000 0.80620  0.62340  0.66900  Biso   1.000  O
  O3       1.0000 0.30620  0.87660  0.16900  Biso   1.000  O
  O4       1.0000 0.19380  0.37660  0.33100  Biso   1.000  O
  O5       1.0000 0.91350  0.14130  0.74280  Biso   1.000  O
  O6       1.0000 0.58650  0.64130  0.75720  Biso   1.000  O
  O7       1.0000 0.08650  0.85870  0.25720  Biso   1.000  O
  O8       1.0000 0.41350  0.35870  0.24280  Biso   1.000  O
  F1       1.0000 0.91000  0.21482  0.90084  Biso   1.000  F
  F2       1.0000 0.59000  0.71482  0.59916  Biso   1.000  F
  F3       1.0000 0.09000  0.78518  0.09916  Biso   1.000  F
  F4       1.0000 0.41000  0.28518  0.40084  Biso   1.000  F
  F5       1.0000 0.67010  0.21095  0.67807  Biso   1.000  F
  F6       1.0000 0.82990  0.71095  0.82193  Biso   1.000  F
  F7       1.0000 0.32990  0.78905  0.32193  Biso   1.000  F
  F8       1.0000 0.17010  0.28905  0.17807  Biso   1.000  F
  F9       1.0000 0.66850  0.27740  0.83579  Biso   1.000  F
  F10      1.0000 0.83150  0.77740  0.66421  Biso   1.000  F
  F11      1.0000 0.33150  0.72260  0.16421  Biso   1.000  F
  F12      1.0000 0.16850  0.22260  0.33579  Biso   1.000  F
  F13      1.0000 0.88160  0.29450  0.74889  Biso   1.000  F
  F14      1.0000 0.61840  0.79450  0.75111  Biso   1.000  F
  F15      1.0000 0.11840  0.70550  0.25111  Biso   1.000  F
  F16      1.0000 0.38160  0.20550  0.24889  Biso   1.000  F
