data_image0
_cell_length_a       15.4331
_cell_length_b       12.9048
_cell_length_c       15.7762
_cell_angle_alpha    90
_cell_angle_beta     90
_cell_angle_gamma    90

_symmetry_space_group_name_H-M    "P 1"
_symmetry_int_tables_number       1

loop_
  _symmetry_equiv_pos_as_xyz
  'x, y, z'

loop_
  _atom_site_label
  _atom_site_occupancy
  _atom_site_fract_x
  _atom_site_fract_y
  _atom_site_fract_z
  _atom_site_thermal_displace_type
  _atom_site_B_iso_or_equiv
  _atom_site_type_symbol
  C1       1.0000 0.11460  0.13540  0.40450  Biso   1.000  C
  C2       1.0000 0.38540  0.86460  0.90450  Biso   1.000  C
  C3       1.0000 0.61460  0.36460  0.59550  Biso   1.000  C
  C4       1.0000 0.88540  0.63540  0.09550  Biso   1.000  C
  C5       1.0000 0.88540  0.86460  0.59550  Biso   1.000  C
  C6       1.0000 0.61460  0.13540  0.09550  Biso   1.000  C
  C7       1.0000 0.38540  0.63540  0.40450  Biso   1.000  C
  C8       1.0000 0.11460  0.36460  0.90450  Biso   1.000  C
  H1       1.0000 0.14880  0.07620  0.40540  Biso   1.000  H
  H2       1.0000 0.35120  0.92380  0.90540  Biso   1.000  H
  H3       1.0000 0.64880  0.42380  0.59460  Biso   1.000  H
  H4       1.0000 0.85120  0.57620  0.09460  Biso   1.000  H
  H5       1.0000 0.85120  0.92380  0.59460  Biso   1.000  H
  H6       1.0000 0.64880  0.07620  0.09460  Biso   1.000  H
  H7       1.0000 0.35120  0.57620  0.40540  Biso   1.000  H
  H8       1.0000 0.14880  0.42380  0.90540  Biso   1.000  H
  C9       1.0000 0.14940  0.22440  0.36710  Biso   1.000  C
  C10      1.0000 0.35060  0.77560  0.86710  Biso   1.000  C
  C11      1.0000 0.64940  0.27560  0.63290  Biso   1.000  C
  C12      1.0000 0.85060  0.72440  0.13290  Biso   1.000  C
  C13      1.0000 0.85060  0.77560  0.63290  Biso   1.000  C
  C14      1.0000 0.64940  0.22440  0.13290  Biso   1.000  C
  C15      1.0000 0.35060  0.72440  0.36710  Biso   1.000  C
  C16      1.0000 0.14940  0.27560  0.86710  Biso   1.000  C
  C17      1.0000 0.09610  0.31160  0.36340  Biso   1.000  C
  C18      1.0000 0.40390  0.68840  0.86340  Biso   1.000  C
  C19      1.0000 0.59610  0.18840  0.63660  Biso   1.000  C
  C20      1.0000 0.90390  0.81160  0.13660  Biso   1.000  C
  C21      1.0000 0.90390  0.68840  0.63660  Biso   1.000  C
  C22      1.0000 0.59610  0.31160  0.13660  Biso   1.000  C
  C23      1.0000 0.40390  0.81160  0.36340  Biso   1.000  C
  C24      1.0000 0.09610  0.18840  0.86340  Biso   1.000  C
  H9       1.0000 0.11630  0.37220  0.33850  Biso   1.000  H
  H10      1.0000 0.38370  0.62780  0.83850  Biso   1.000  H
  H11      1.0000 0.61630  0.12780  0.66150  Biso   1.000  H
  H12      1.0000 0.88370  0.87220  0.16150  Biso   1.000  H
  H13      1.0000 0.88370  0.62780  0.66150  Biso   1.000  H
  H14      1.0000 0.61630  0.37220  0.16150  Biso   1.000  H
  H15      1.0000 0.38370  0.87220  0.33850  Biso   1.000  H
  H16      1.0000 0.11630  0.12780  0.83850  Biso   1.000  H
  C25      1.0000 0.01210  0.30790  0.39720  Biso   1.000  C
  C26      1.0000 0.48790  0.69210  0.89720  Biso   1.000  C
  C27      1.0000 0.51210  0.19210  0.60280  Biso   1.000  C
  C28      1.0000 0.98790  0.80790  0.10280  Biso   1.000  C
  C29      1.0000 0.98790  0.69210  0.60280  Biso   1.000  C
  C30      1.0000 0.51210  0.30790  0.10280  Biso   1.000  C
  C31      1.0000 0.48790  0.80790  0.39720  Biso   1.000  C
  C32      1.0000 0.01210  0.19210  0.89720  Biso   1.000  C
  C33      1.0000 0.98570  0.21380  0.43470  Biso   1.000  C
  C34      1.0000 0.51430  0.78620  0.93470  Biso   1.000  C
  C35      1.0000 0.48570  0.28620  0.56530  Biso   1.000  C
  C36      1.0000 0.01430  0.71380  0.06530  Biso   1.000  C
  C37      1.0000 0.01430  0.78620  0.56530  Biso   1.000  C
  C38      1.0000 0.48570  0.21380  0.06530  Biso   1.000  C
  C39      1.0000 0.51430  0.71380  0.43470  Biso   1.000  C
  C40      1.0000 0.98570  0.28620  0.93470  Biso   1.000  C
  H17      1.0000 0.93030  0.21040  0.45780  Biso   1.000  H
  H18      1.0000 0.56970  0.78960  0.95780  Biso   1.000  H
  H19      1.0000 0.43030  0.28960  0.54220  Biso   1.000  H
  H20      1.0000 0.06970  0.71040  0.04220  Biso   1.000  H
  H21      1.0000 0.06970  0.78960  0.54220  Biso   1.000  H
  H22      1.0000 0.43030  0.21040  0.04220  Biso   1.000  H
  H23      1.0000 0.56970  0.71040  0.45780  Biso   1.000  H
  H24      1.0000 0.93030  0.28960  0.95780  Biso   1.000  H
  C41      1.0000 0.23880  0.22110  0.33380  Biso   1.000  C
  C42      1.0000 0.26120  0.77890  0.83380  Biso   1.000  C
  C43      1.0000 0.73880  0.27890  0.66620  Biso   1.000  C
  C44      1.0000 0.76120  0.72110  0.16620  Biso   1.000  C
  C45      1.0000 0.76120  0.77890  0.66620  Biso   1.000  C
  C46      1.0000 0.73880  0.22110  0.16620  Biso   1.000  C
  C47      1.0000 0.26120  0.72110  0.33380  Biso   1.000  C
  C48      1.0000 0.23880  0.27890  0.83380  Biso   1.000  C
  C49      1.0000 0.26280  0.13910  0.28260  Biso   1.000  C
  C50      1.0000 0.23720  0.86090  0.78260  Biso   1.000  C
  C51      1.0000 0.76280  0.36090  0.71740  Biso   1.000  C
  C52      1.0000 0.73720  0.63910  0.21740  Biso   1.000  C
  C53      1.0000 0.73720  0.86090  0.71740  Biso   1.000  C
  C54      1.0000 0.76280  0.13910  0.21740  Biso   1.000  C
  C55      1.0000 0.23720  0.63910  0.28260  Biso   1.000  C
  C56      1.0000 0.26280  0.36090  0.78260  Biso   1.000  C
  H25      1.0000 0.22200  0.08980  0.26670  Biso   1.000  H
  H26      1.0000 0.27800  0.91020  0.76670  Biso   1.000  H
  H27      1.0000 0.72200  0.41020  0.73330  Biso   1.000  H
  H28      1.0000 0.77800  0.58980  0.23330  Biso   1.000  H
  H29      1.0000 0.77800  0.91020  0.73330  Biso   1.000  H
  H30      1.0000 0.72200  0.08980  0.23330  Biso   1.000  H
  H31      1.0000 0.27800  0.58980  0.26670  Biso   1.000  H
  H32      1.0000 0.22200  0.41020  0.76670  Biso   1.000  H
  C57      1.0000 0.34790  0.13040  0.25510  Biso   1.000  C
  C58      1.0000 0.15210  0.86960  0.75510  Biso   1.000  C
  C59      1.0000 0.84790  0.36960  0.74490  Biso   1.000  C
  C60      1.0000 0.65210  0.63040  0.24490  Biso   1.000  C
  C61      1.0000 0.65210  0.86960  0.74490  Biso   1.000  C
  C62      1.0000 0.84790  0.13040  0.24490  Biso   1.000  C
  C63      1.0000 0.15210  0.63040  0.25510  Biso   1.000  C
  C64      1.0000 0.34790  0.36960  0.75510  Biso   1.000  C
  H33      1.0000 0.36430  0.07610  0.21970  Biso   1.000  H
  H34      1.0000 0.13570  0.92390  0.71970  Biso   1.000  H
  H35      1.0000 0.86430  0.42390  0.78030  Biso   1.000  H
  H36      1.0000 0.63570  0.57610  0.28030  Biso   1.000  H
  H37      1.0000 0.63570  0.92390  0.78030  Biso   1.000  H
  H38      1.0000 0.86430  0.07610  0.28030  Biso   1.000  H
  H39      1.0000 0.13570  0.57610  0.21970  Biso   1.000  H
  H40      1.0000 0.36430  0.42390  0.71970  Biso   1.000  H
  C65      1.0000 0.40710  0.20230  0.28040  Biso   1.000  C
  C66      1.0000 0.09290  0.79770  0.78040  Biso   1.000  C
  C67      1.0000 0.90710  0.29770  0.71960  Biso   1.000  C
  C68      1.0000 0.59290  0.70230  0.21960  Biso   1.000  C
  C69      1.0000 0.59290  0.79770  0.71960  Biso   1.000  C
  C70      1.0000 0.90710  0.20230  0.21960  Biso   1.000  C
  C71      1.0000 0.09290  0.70230  0.28040  Biso   1.000  C
  C72      1.0000 0.40710  0.29770  0.78040  Biso   1.000  C
  H41      1.0000 0.46410  0.19680  0.26160  Biso   1.000  H
  H42      1.0000 0.03590  0.80320  0.76160  Biso   1.000  H
  H43      1.0000 0.96410  0.30320  0.73840  Biso   1.000  H
  H44      1.0000 0.53590  0.69680  0.23840  Biso   1.000  H
  H45      1.0000 0.53590  0.80320  0.73840  Biso   1.000  H
  H46      1.0000 0.96410  0.19680  0.23840  Biso   1.000  H
  H47      1.0000 0.03590  0.69680  0.26160  Biso   1.000  H
  H48      1.0000 0.46410  0.30320  0.76160  Biso   1.000  H
  C73      1.0000 0.38500  0.28150  0.33240  Biso   1.000  C
  C74      1.0000 0.11500  0.71850  0.83240  Biso   1.000  C
  C75      1.0000 0.88500  0.21850  0.66760  Biso   1.000  C
  C76      1.0000 0.61500  0.78150  0.16760  Biso   1.000  C
  C77      1.0000 0.61500  0.71850  0.66760  Biso   1.000  C
  C78      1.0000 0.88500  0.28150  0.16760  Biso   1.000  C
  C79      1.0000 0.11500  0.78150  0.33240  Biso   1.000  C
  C80      1.0000 0.38500  0.21850  0.83240  Biso   1.000  C
  C81      1.0000 0.29960  0.29240  0.36020  Biso   1.000  C
  C82      1.0000 0.20040  0.70760  0.86020  Biso   1.000  C
  C83      1.0000 0.79960  0.20760  0.63980  Biso   1.000  C
  C84      1.0000 0.70040  0.79240  0.13980  Biso   1.000  C
  C85      1.0000 0.70040  0.70760  0.63980  Biso   1.000  C
  C86      1.0000 0.79960  0.29240  0.13980  Biso   1.000  C
  C87      1.0000 0.20040  0.79240  0.36020  Biso   1.000  C
  C88      1.0000 0.29960  0.20760  0.86020  Biso   1.000  C
  H49      1.0000 0.28400  0.34670  0.39580  Biso   1.000  H
  H50      1.0000 0.21600  0.65330  0.89580  Biso   1.000  H
  H51      1.0000 0.78400  0.15330  0.60420  Biso   1.000  H
  H52      1.0000 0.71600  0.84670  0.10420  Biso   1.000  H
  H53      1.0000 0.71600  0.65330  0.60420  Biso   1.000  H
  H54      1.0000 0.78400  0.34670  0.10420  Biso   1.000  H
  H55      1.0000 0.21600  0.84670  0.39580  Biso   1.000  H
  H56      1.0000 0.28400  0.15330  0.89580  Biso   1.000  H
  C89      1.0000 0.45670  0.35330  0.36820  Biso   1.000  C
  C90      1.0000 0.04330  0.64670  0.86820  Biso   1.000  C
  C91      1.0000 0.95670  0.14670  0.63180  Biso   1.000  C
  C92      1.0000 0.54330  0.85330  0.13180  Biso   1.000  C
  C93      1.0000 0.54330  0.64670  0.63180  Biso   1.000  C
  C94      1.0000 0.95670  0.35330  0.13180  Biso   1.000  C
  C95      1.0000 0.04330  0.85330  0.36820  Biso   1.000  C
  C96      1.0000 0.45670  0.14670  0.86820  Biso   1.000  C
  C97      1.0000 0.95240  0.39640  0.39710  Biso   1.000  C
  C98      1.0000 0.54760  0.60360  0.89710  Biso   1.000  C
  C99      1.0000 0.45240  0.10360  0.60290  Biso   1.000  C
  C100     1.0000 0.04760  0.89640  0.10290  Biso   1.000  C
  C101     1.0000 0.04760  0.60360  0.60290  Biso   1.000  C
  C102     1.0000 0.45240  0.39640  0.10290  Biso   1.000  C
  C103     1.0000 0.54760  0.89640  0.39710  Biso   1.000  C
  C104     1.0000 0.95240  0.10360  0.89710  Biso   1.000  C
  C105     1.0000 0.86110  0.38250  0.39850  Biso   1.000  C
  C106     1.0000 0.63890  0.61750  0.89850  Biso   1.000  C
  C107     1.0000 0.36110  0.11750  0.60150  Biso   1.000  C
  C108     1.0000 0.13890  0.88250  0.10150  Biso   1.000  C
  C109     1.0000 0.13890  0.61750  0.60150  Biso   1.000  C
  C110     1.0000 0.36110  0.38250  0.10150  Biso   1.000  C
  C111     1.0000 0.63890  0.88250  0.39850  Biso   1.000  C
  C112     1.0000 0.86110  0.11750  0.89850  Biso   1.000  C
  H57      1.0000 0.83870  0.31600  0.39280  Biso   1.000  H
  H58      1.0000 0.66130  0.68400  0.89280  Biso   1.000  H
  H59      1.0000 0.33870  0.18400  0.60720  Biso   1.000  H
  H60      1.0000 0.16130  0.81600  0.10720  Biso   1.000  H
  H61      1.0000 0.16130  0.68400  0.60720  Biso   1.000  H
  H62      1.0000 0.33870  0.31600  0.10720  Biso   1.000  H
  H63      1.0000 0.66130  0.81600  0.39280  Biso   1.000  H
  H64      1.0000 0.83870  0.18400  0.89280  Biso   1.000  H
  C113     1.0000 0.80360  0.46570  0.40810  Biso   1.000  C
  C114     1.0000 0.69640  0.53430  0.90810  Biso   1.000  C
  C115     1.0000 0.30360  0.03430  0.59190  Biso   1.000  C
  C116     1.0000 0.19640  0.96570  0.09190  Biso   1.000  C
  C117     1.0000 0.19640  0.53430  0.59190  Biso   1.000  C
  C118     1.0000 0.30360  0.46570  0.09190  Biso   1.000  C
  C119     1.0000 0.69640  0.96570  0.40810  Biso   1.000  C
  C120     1.0000 0.80360  0.03430  0.90810  Biso   1.000  C
  C121     1.0000 0.83700  0.56490  0.41100  Biso   1.000  C
  C122     1.0000 0.66300  0.43510  0.91100  Biso   1.000  C
  C123     1.0000 0.33700  0.93510  0.58900  Biso   1.000  C
  C124     1.0000 0.16300  0.06490  0.08900  Biso   1.000  C
  C125     1.0000 0.16300  0.43510  0.58900  Biso   1.000  C
  C126     1.0000 0.33700  0.56490  0.08900  Biso   1.000  C
  C127     1.0000 0.66300  0.06490  0.41100  Biso   1.000  C
  C128     1.0000 0.83700  0.93510  0.91100  Biso   1.000  C
  H65      1.0000 0.79940  0.62070  0.41700  Biso   1.000  H
  H66      1.0000 0.70060  0.37930  0.91700  Biso   1.000  H
  H67      1.0000 0.29940  0.87930  0.58300  Biso   1.000  H
  H68      1.0000 0.20060  0.12070  0.08300  Biso   1.000  H
  H69      1.0000 0.20060  0.37930  0.58300  Biso   1.000  H
  H70      1.0000 0.29940  0.62070  0.08300  Biso   1.000  H
  H71      1.0000 0.70060  0.12070  0.41700  Biso   1.000  H
  H72      1.0000 0.79940  0.87930  0.91700  Biso   1.000  H
  C129     1.0000 0.92330  0.58260  0.40520  Biso   1.000  C
  C130     1.0000 0.57670  0.41740  0.90520  Biso   1.000  C
  C131     1.0000 0.42330  0.91740  0.59480  Biso   1.000  C
  C132     1.0000 0.07670  0.08260  0.09480  Biso   1.000  C
  C133     1.0000 0.07670  0.41740  0.59480  Biso   1.000  C
  C134     1.0000 0.42330  0.58260  0.09480  Biso   1.000  C
  C135     1.0000 0.57670  0.08260  0.40520  Biso   1.000  C
  C136     1.0000 0.92330  0.91740  0.90520  Biso   1.000  C
  H73      1.0000 0.94430  0.65020  0.40540  Biso   1.000  H
  H74      1.0000 0.55570  0.34980  0.90540  Biso   1.000  H
  H75      1.0000 0.44430  0.84980  0.59460  Biso   1.000  H
  H76      1.0000 0.05570  0.15020  0.09460  Biso   1.000  H
  H77      1.0000 0.05570  0.34980  0.59460  Biso   1.000  H
  H78      1.0000 0.44430  0.65020  0.09460  Biso   1.000  H
  H79      1.0000 0.55570  0.15020  0.40540  Biso   1.000  H
  H80      1.0000 0.94430  0.84980  0.90540  Biso   1.000  H
  C137     1.0000 0.98090  0.49910  0.39890  Biso   1.000  C
  C138     1.0000 0.51910  0.50090  0.89890  Biso   1.000  C
  C139     1.0000 0.48090  0.00090  0.60110  Biso   1.000  C
  C140     1.0000 0.01910  0.99910  0.10110  Biso   1.000  C
  C141     1.0000 0.01910  0.50090  0.60110  Biso   1.000  C
  C142     1.0000 0.48090  0.49910  0.10110  Biso   1.000  C
  C143     1.0000 0.51910  0.99910  0.39890  Biso   1.000  C
  C144     1.0000 0.98090  0.00090  0.89890  Biso   1.000  C
  H81      1.0000 0.04010  0.51250  0.39590  Biso   1.000  H
  H82      1.0000 0.45990  0.48750  0.89590  Biso   1.000  H
  H83      1.0000 0.54010  0.98750  0.60410  Biso   1.000  H
  H84      1.0000 0.95990  0.01250  0.10410  Biso   1.000  H
  H85      1.0000 0.95990  0.48750  0.60410  Biso   1.000  H
  H86      1.0000 0.54010  0.51250  0.10410  Biso   1.000  H
  H87      1.0000 0.45990  0.01250  0.39590  Biso   1.000  H
  H88      1.0000 0.04010  0.98750  0.89590  Biso   1.000  H
  C145     1.0000 0.70820  0.44940  0.40830  Biso   1.000  C
  C146     1.0000 0.79180  0.55060  0.90830  Biso   1.000  C
  C147     1.0000 0.20820  0.05060  0.59170  Biso   1.000  C
  C148     1.0000 0.29180  0.94940  0.09170  Biso   1.000  C
  C149     1.0000 0.29180  0.55060  0.59170  Biso   1.000  C
  C150     1.0000 0.20820  0.44940  0.09170  Biso   1.000  C
  C151     1.0000 0.79180  0.94940  0.40830  Biso   1.000  C
  C152     1.0000 0.70820  0.05060  0.90830  Biso   1.000  C
  Cu1      1.0000 0.50000  0.50000  0.50000  Biso   1.000  Cu
  Cu2      1.0000 0.00000  0.50000  0.00000  Biso   1.000  Cu
  Cu3      1.0000 0.00000  0.00000  0.50000  Biso   1.000  Cu
  Cu4      1.0000 0.50000  0.00000  0.00000  Biso   1.000  Cu
  N1       1.0000 0.03560  0.12940  0.43890  Biso   1.000  N
  N2       1.0000 0.46440  0.87060  0.93890  Biso   1.000  N
  N3       1.0000 0.53560  0.37060  0.56110  Biso   1.000  N
  N4       1.0000 0.96440  0.62940  0.06110  Biso   1.000  N
  N5       1.0000 0.96440  0.87060  0.56110  Biso   1.000  N
  N6       1.0000 0.53560  0.12940  0.06110  Biso   1.000  N
  N7       1.0000 0.46440  0.62940  0.43890  Biso   1.000  N
  N8       1.0000 0.03560  0.37060  0.93890  Biso   1.000  N
  O1       1.0000 0.43230  0.42050  0.41940  Biso   1.000  O
  O2       1.0000 0.06770  0.57950  0.91940  Biso   1.000  O
  O3       1.0000 0.93230  0.07950  0.58060  Biso   1.000  O
  O4       1.0000 0.56770  0.92050  0.08060  Biso   1.000  O
  O5       1.0000 0.56770  0.57950  0.58060  Biso   1.000  O
  O6       1.0000 0.93230  0.42050  0.08060  Biso   1.000  O
  O7       1.0000 0.06770  0.92050  0.41940  Biso   1.000  O
  O8       1.0000 0.43230  0.07950  0.91940  Biso   1.000  O
  O9       1.0000 0.52950  0.33580  0.34180  Biso   1.000  O
  O10      1.0000 0.97050  0.66420  0.84180  Biso   1.000  O
  O11      1.0000 0.02950  0.16420  0.65820  Biso   1.000  O
  O12      1.0000 0.47050  0.83580  0.15820  Biso   1.000  O
  O13      1.0000 0.47050  0.66420  0.65820  Biso   1.000  O
  O14      1.0000 0.02950  0.33580  0.15820  Biso   1.000  O
  O15      1.0000 0.97050  0.83580  0.34180  Biso   1.000  O
  O16      1.0000 0.52950  0.16420  0.84180  Biso   1.000  O
  O17      1.0000 0.65760  0.51510  0.43200  Biso   1.000  O
  O18      1.0000 0.84240  0.48490  0.93200  Biso   1.000  O
  O19      1.0000 0.15760  0.98490  0.56800  Biso   1.000  O
  O20      1.0000 0.34240  0.01510  0.06800  Biso   1.000  O
  O21      1.0000 0.34240  0.48490  0.56800  Biso   1.000  O
  O22      1.0000 0.15760  0.51510  0.06800  Biso   1.000  O
  O23      1.0000 0.84240  0.01510  0.43200  Biso   1.000  O
  O24      1.0000 0.65760  0.98490  0.93200  Biso   1.000  O
  O25      1.0000 0.68330  0.35490  0.38550  Biso   1.000  O
  O26      1.0000 0.81670  0.64510  0.88550  Biso   1.000  O
  O27      1.0000 0.18330  0.14510  0.61450  Biso   1.000  O
  O28      1.0000 0.31670  0.85490  0.11450  Biso   1.000  O
  O29      1.0000 0.31670  0.64510  0.61450  Biso   1.000  O
  O30      1.0000 0.18330  0.35490  0.11450  Biso   1.000  O
  O31      1.0000 0.81670  0.85490  0.38550  Biso   1.000  O
  O32      1.0000 0.68330  0.14510  0.88550  Biso   1.000  O
  H89      1.0000 0.72060  0.32870  0.35540  Biso   1.000  H
  H90      1.0000 0.77940  0.67130  0.85540  Biso   1.000  H
  H91      1.0000 0.22060  0.17130  0.64460  Biso   1.000  H
  H92      1.0000 0.27940  0.82870  0.14460  Biso   1.000  H
  H93      1.0000 0.27940  0.67130  0.64460  Biso   1.000  H
  H94      1.0000 0.22060  0.32870  0.14460  Biso   1.000  H
  H95      1.0000 0.77940  0.82870  0.35540  Biso   1.000  H
  H96      1.0000 0.72060  0.17130  0.85540  Biso   1.000  H
