data_image0
_cell_length_a       7.0572
_cell_length_b       9.1203
_cell_length_c       5.7992
_cell_angle_alpha    90
_cell_angle_beta     105.878
_cell_angle_gamma    90

_symmetry_space_group_name_H-M    "P 1"
_symmetry_int_tables_number       1

loop_
  _symmetry_equiv_pos_as_xyz
  'x, y, z'

loop_
  _atom_site_label
  _atom_site_occupancy
  _atom_site_fract_x
  _atom_site_fract_y
  _atom_site_fract_z
  _atom_site_thermal_displace_type
  _atom_site_B_iso_or_equiv
  _atom_site_type_symbol
  Cu1      1.0000 0.00969  0.66132  0.97092  Biso   1.000  Cu
  Cu2      1.0000 0.99031  0.16132  0.52908  Biso   1.000  Cu
  Cu3      1.0000 0.99031  0.33868  0.02908  Biso   1.000  Cu
  Cu4      1.0000 0.00969  0.83868  0.47092  Biso   1.000  Cu
  Cu5      1.0000 0.00000  0.00000  0.00000  Biso   1.000  Cu
  Cu6      1.0000 0.00000  0.50000  0.50000  Biso   1.000  Cu
  O1       1.0000 0.13680  0.82650  0.15440  Biso   1.000  O
  O2       1.0000 0.86320  0.32650  0.34560  Biso   1.000  O
  O3       1.0000 0.86320  0.17350  0.84560  Biso   1.000  O
  O4       1.0000 0.13680  0.67350  0.65440  Biso   1.000  O
  O5       1.0000 0.53680  0.66210  0.70370  Biso   1.000  O
  O6       1.0000 0.46320  0.16210  0.79630  Biso   1.000  O
  O7       1.0000 0.46320  0.33790  0.29630  Biso   1.000  O
  O8       1.0000 0.53680  0.83790  0.20370  Biso   1.000  O
  O9       1.0000 0.88030  0.49270  0.78310  Biso   1.000  O
  O10      1.0000 0.11970  0.99270  0.71690  Biso   1.000  O
  O11      1.0000 0.11970  0.50730  0.21690  Biso   1.000  O
  O12      1.0000 0.88030  0.00730  0.28310  Biso   1.000  O
  O13      1.0000 0.79810  0.80880  0.79510  Biso   1.000  O
  O14      1.0000 0.20190  0.30880  0.70490  Biso   1.000  O
  O15      1.0000 0.20190  0.19120  0.20490  Biso   1.000  O
  O16      1.0000 0.79810  0.69120  0.29510  Biso   1.000  O
  C1       1.0000 0.61660  0.78360  0.72810  Biso   1.000  C
  C2       1.0000 0.38340  0.28360  0.77190  Biso   1.000  C
  C3       1.0000 0.38340  0.21640  0.27190  Biso   1.000  C
  C4       1.0000 0.61660  0.71640  0.22810  Biso   1.000  C
  H1       1.0000 0.53200  0.86640  0.69270  Biso   1.000  H
  H2       1.0000 0.46800  0.36640  0.80730  Biso   1.000  H
  H3       1.0000 0.46800  0.13360  0.30730  Biso   1.000  H
  H4       1.0000 0.53200  0.63360  0.19270  Biso   1.000  H
  H5       1.0000 0.24700  0.83100  0.17100  Biso   1.000  H
  H6       1.0000 0.75300  0.33100  0.32900  Biso   1.000  H
  H7       1.0000 0.75300  0.16900  0.82900  Biso   1.000  H
  H8       1.0000 0.24700  0.66900  0.67100  Biso   1.000  H
  H9       1.0000 0.77100  0.50900  0.72900  Biso   1.000  H
  H10      1.0000 0.22900  0.00900  0.77100  Biso   1.000  H
  H11      1.0000 0.22900  0.49100  0.27100  Biso   1.000  H
  H12      1.0000 0.77100  0.99100  0.22900  Biso   1.000  H
