data_image0
_cell_length_a       6.628
_cell_length_b       9.4648
_cell_length_c       21.5033
_cell_angle_alpha    96.778
_cell_angle_beta     94.307
_cell_angle_gamma    97.886

_symmetry_space_group_name_H-M    "P 1"
_symmetry_int_tables_number       1

loop_
  _symmetry_equiv_pos_as_xyz
  'x, y, z'

loop_
  _atom_site_label
  _atom_site_occupancy
  _atom_site_fract_x
  _atom_site_fract_y
  _atom_site_fract_z
  _atom_site_thermal_displace_type
  _atom_site_B_iso_or_equiv
  _atom_site_type_symbol
  Eu1      1.0000 0.93626  0.11837  0.32187  Biso   1.000  Eu
  Eu2      1.0000 0.06374  0.88163  0.67813  Biso   1.000  Eu
  Eu3      1.0000 0.65242  0.70918  0.42220  Biso   1.000  Eu
  Eu4      1.0000 0.34758  0.29082  0.57780  Biso   1.000  Eu
  Eu5      1.0000 0.67536  0.98653  0.13876  Biso   1.000  Eu
  Eu6      1.0000 0.32464  0.01347  0.86124  Biso   1.000  Eu
  Cu1      1.0000 0.00000  0.50000  0.00000  Biso   1.000  Cu
  S1       1.0000 0.23230  0.06525  0.18550  Biso   1.000  S
  S2       1.0000 0.76770  0.93475  0.81450  Biso   1.000  S
  S3       1.0000 0.33150  0.35751  0.43562  Biso   1.000  S
  S4       1.0000 0.66850  0.64249  0.56438  Biso   1.000  S
  S5       1.0000 0.15329  0.81875  0.37622  Biso   1.000  S
  S6       1.0000 0.84671  0.18125  0.62378  Biso   1.000  S
  C1       1.0000 0.07960  0.61670  0.14930  Biso   1.000  C
  C2       1.0000 0.92040  0.38330  0.85070  Biso   1.000  C
  H1       1.0000 0.14440  0.71050  0.14980  Biso   1.000  H
  H2       1.0000 0.85560  0.28950  0.85020  Biso   1.000  H
  C3       1.0000 0.92800  0.40110  0.11740  Biso   1.000  C
  C4       1.0000 0.07200  0.59890  0.88260  Biso   1.000  C
  C5       1.0000 0.94210  0.41700  0.18220  Biso   1.000  C
  C6       1.0000 0.05790  0.58300  0.81780  Biso   1.000  C
  C7       1.0000 0.89030  0.31980  0.23030  Biso   1.000  C
  C8       1.0000 0.10970  0.68020  0.76970  Biso   1.000  C
  C9       1.0000 0.82140  0.28860  0.06750  Biso   1.000  C
  C10      1.0000 0.17860  0.71140  0.93250  Biso   1.000  C
  C11      1.0000 0.47760  0.47140  0.28190  Biso   1.000  C
  C12      1.0000 0.52240  0.52860  0.71810  Biso   1.000  C
  H3       1.0000 0.43110  0.39510  0.30320  Biso   1.000  H
  H4       1.0000 0.56890  0.60490  0.69680  Biso   1.000  H
  C13      1.0000 0.55160  0.59530  0.20440  Biso   1.000  C
  C14      1.0000 0.44840  0.40470  0.79560  Biso   1.000  C
  C15      1.0000 0.60180  0.68130  0.26120  Biso   1.000  C
  C16      1.0000 0.39820  0.31870  0.73880  Biso   1.000  C
  C17      1.0000 0.56620  0.61640  0.13740  Biso   1.000  C
  C18      1.0000 0.43380  0.38360  0.86260  Biso   1.000  C
  C19      1.0000 0.70150  0.83120  0.28060  Biso   1.000  C
  C20      1.0000 0.29850  0.16880  0.71940  Biso   1.000  C
  N1       1.0000 0.01590  0.52610  0.09750  Biso   1.000  N
  N2       1.0000 0.98410  0.47390  0.90250  Biso   1.000  N
  N3       1.0000 0.03790  0.55480  0.20080  Biso   1.000  N
  N4       1.0000 0.96210  0.44520  0.79920  Biso   1.000  N
  H5       1.0000 0.06660  0.59500  0.23900  Biso   1.000  H
  H6       1.0000 0.93340  0.40500  0.76100  Biso   1.000  H
  N5       1.0000 0.47430  0.46300  0.21900  Biso   1.000  N
  N6       1.0000 0.52570  0.53700  0.78100  Biso   1.000  N
  H7       1.0000 0.43110  0.38750  0.19250  Biso   1.000  H
  H8       1.0000 0.56890  0.61250  0.80750  Biso   1.000  H
  N7       1.0000 0.55490  0.60140  0.30956  Biso   1.000  N
  N8       1.0000 0.44510  0.39860  0.69044  Biso   1.000  N
  O1       1.0000 0.95100  0.36460  0.28647  Biso   1.000  O
  O2       1.0000 0.04900  0.63540  0.71353  Biso   1.000  O
  O3       1.0000 0.79550  0.19290  0.21474  Biso   1.000  O
  O4       1.0000 0.20450  0.80710  0.78526  Biso   1.000  O
  O5       1.0000 0.72570  0.17480  0.08115  Biso   1.000  O
  O6       1.0000 0.27430  0.82520  0.91885  Biso   1.000  O
  O7       1.0000 0.82710  0.31470  0.01171  Biso   1.000  O
  O8       1.0000 0.17290  0.68530  0.98829  Biso   1.000  O
  O9       1.0000 0.53010  0.50600  0.09811  Biso   1.000  O
  O10      1.0000 0.46990  0.49400  0.90189  Biso   1.000  O
  O11      1.0000 0.61560  0.74030  0.12448  Biso   1.000  O
  O12      1.0000 0.38440  0.25970  0.87552  Biso   1.000  O
  O13      1.0000 0.77080  0.91340  0.24256  Biso   1.000  O
  O14      1.0000 0.22920  0.08660  0.75744  Biso   1.000  O
  O15      1.0000 0.72210  0.87460  0.33919  Biso   1.000  O
  O16      1.0000 0.27790  0.12540  0.66081  Biso   1.000  O
  O17      1.0000 0.19050  0.12470  0.24923  Biso   1.000  O
  O18      1.0000 0.80950  0.87530  0.75077  Biso   1.000  O
  O19      1.0000 0.33460  0.17720  0.15420  Biso   1.000  O
  O20      1.0000 0.66540  0.82280  0.84580  Biso   1.000  O
  O21      1.0000 0.37010  0.95680  0.19230  Biso   1.000  O
  O22      1.0000 0.62990  0.04320  0.80770  Biso   1.000  O
  O23      1.0000 0.04180  0.99680  0.14949  Biso   1.000  O
  O24      1.0000 0.95820  0.00320  0.85051  Biso   1.000  O
  O25      1.0000 0.49080  0.28460  0.46372  Biso   1.000  O
  O26      1.0000 0.50920  0.71540  0.53628  Biso   1.000  O
  O27      1.0000 0.41270  0.49940  0.42151  Biso   1.000  O
  O28      1.0000 0.58730  0.50060  0.57849  Biso   1.000  O
  O29      1.0000 0.22810  0.27090  0.37810  Biso   1.000  O
  O30      1.0000 0.77190  0.72910  0.62190  Biso   1.000  O
  O31      1.0000 0.18110  0.37050  0.48352  Biso   1.000  O
  O32      1.0000 0.81890  0.62950  0.51648  Biso   1.000  O
  O33      1.0000 0.00880  0.79530  0.42445  Biso   1.000  O
  O34      1.0000 0.99120  0.20470  0.57555  Biso   1.000  O
  O35      1.0000 0.15280  0.96640  0.36020  Biso   1.000  O
  O36      1.0000 0.84720  0.03360  0.63980  Biso   1.000  O
  O37      1.0000 0.35860  0.81270  0.40534  Biso   1.000  O
  O38      1.0000 0.64140  0.18730  0.59466  Biso   1.000  O
  O39      1.0000 0.09700  0.71440  0.32120  Biso   1.000  O
  O40      1.0000 0.90300  0.28560  0.67880  Biso   1.000  O
  O41      1.0000 0.84250  0.50230  0.39729  Biso   1.000  O
  O42      1.0000 0.15750  0.49770  0.60271  Biso   1.000  O
  O43      1.0000 0.57130  0.13530  0.32367  Biso   1.000  O
  O44      1.0000 0.42870  0.86470  0.67633  Biso   1.000  O
  O45      1.0000 0.39640  0.93100  0.05513  Biso   1.000  O
  O46      1.0000 0.60360  0.06900  0.94487  Biso   1.000  O
  O47      1.0000 0.26340  0.38670  0.00165  Biso   1.000  O
  O48      1.0000 0.73660  0.61330  0.99835  Biso   1.000  O
  O49      1.0000 0.72500  0.94210  0.48745  Biso   1.000  O
  O50      1.0000 0.27500  0.05790  0.51255  Biso   1.000  O
  O51      1.0000 0.82670  0.90490  0.03400  Biso   1.000  O
  O52      1.0000 0.17330  0.09510  0.96600  Biso   1.000  O
  O53      1.0000 0.84750  0.18560  0.42874  Biso   1.000  O
  O54      1.0000 0.15250  0.81440  0.57126  Biso   1.000  O
  H9       1.0000 0.90440  0.48860  0.43140  Biso   1.000  H
  H10      1.0000 0.09560  0.51140  0.56860  Biso   1.000  H
  H11      1.0000 0.91930  0.48690  0.36720  Biso   1.000  H
  H12      1.0000 0.08070  0.51310  0.63280  Biso   1.000  H
  H13      1.0000 0.49490  0.12090  0.28730  Biso   1.000  H
  H14      1.0000 0.50510  0.87910  0.71270  Biso   1.000  H
  H15      1.0000 0.49970  0.08170  0.35280  Biso   1.000  H
  H16      1.0000 0.50030  0.91830  0.64720  Biso   1.000  H
  H17      1.0000 0.27490  0.93080  0.07570  Biso   1.000  H
  H18      1.0000 0.72510  0.06920  0.92430  Biso   1.000  H
  H19      1.0000 0.39960  0.01020  0.03210  Biso   1.000  H
  H20      1.0000 0.60040  0.98980  0.96790  Biso   1.000  H
  H21      1.0000 0.34190  0.42120  0.03820  Biso   1.000  H
  H22      1.0000 0.65810  0.57880  0.96180  Biso   1.000  H
  H23      1.0000 0.34370  0.39310  0.96900  Biso   1.000  H
  H24      1.0000 0.65630  0.60690  0.03100  Biso   1.000  H
  H25      1.0000 0.79290  0.01800  0.47890  Biso   1.000  H
  H26      1.0000 0.20710  0.98200  0.52110  Biso   1.000  H
  H27      1.0000 0.67700  0.96120  0.52270  Biso   1.000  H
  H28      1.0000 0.32300  0.03880  0.47730  Biso   1.000  H
  H29      1.0000 0.76870  0.82000  0.02220  Biso   1.000  H
  H30      1.0000 0.23130  0.18000  0.97780  Biso   1.000  H
  H31      1.0000 0.94500  0.90350  0.04880  Biso   1.000  H
  H32      1.0000 0.05500  0.09650  0.95120  Biso   1.000  H
  H33      1.0000 0.92540  0.24890  0.45750  Biso   1.000  H
  H34      1.0000 0.07460  0.75110  0.54250  Biso   1.000  H
  H35      1.0000 0.72010  0.20520  0.42800  Biso   1.000  H
  H36      1.0000 0.27990  0.79480  0.57200  Biso   1.000  H
