data_image0
_cell_length_a       18.7085
_cell_length_b       19.5216
_cell_length_c       10.3967
_cell_angle_alpha    90
_cell_angle_beta     90
_cell_angle_gamma    90

_symmetry_space_group_name_H-M    "P 1"
_symmetry_int_tables_number       1

loop_
  _symmetry_equiv_pos_as_xyz
  'x, y, z'

loop_
  _atom_site_label
  _atom_site_occupancy
  _atom_site_fract_x
  _atom_site_fract_y
  _atom_site_fract_z
  _atom_site_thermal_displace_type
  _atom_site_B_iso_or_equiv
  _atom_site_type_symbol
  Cu1      1.0000 0.09414  0.42623  0.93908  Biso   1.000  Cu
  Cu2      1.0000 0.40586  0.57377  0.93908  Biso   1.000  Cu
  Cu3      1.0000 0.40586  0.92623  0.56092  Biso   1.000  Cu
  Cu4      1.0000 0.09414  0.07377  0.56092  Biso   1.000  Cu
  Cu5      1.0000 0.90586  0.57377  0.06092  Biso   1.000  Cu
  Cu6      1.0000 0.59414  0.42623  0.06092  Biso   1.000  Cu
  Cu7      1.0000 0.59414  0.07377  0.43908  Biso   1.000  Cu
  Cu8      1.0000 0.90586  0.92623  0.43908  Biso   1.000  Cu
  V1       1.0000 0.01886  0.25000  0.25000  Biso   1.000  V
  V2       1.0000 0.48114  0.75000  0.25000  Biso   1.000  V
  V3       1.0000 0.98114  0.75000  0.75000  Biso   1.000  V
  V4       1.0000 0.51886  0.25000  0.75000  Biso   1.000  V
  V5       1.0000 0.89626  0.36016  0.30771  Biso   1.000  V
  V6       1.0000 0.60374  0.63984  0.30771  Biso   1.000  V
  V7       1.0000 0.60374  0.86016  0.19229  Biso   1.000  V
  V8       1.0000 0.89626  0.13984  0.19229  Biso   1.000  V
  V9       1.0000 0.10374  0.63984  0.69229  Biso   1.000  V
  V10      1.0000 0.39626  0.36016  0.69229  Biso   1.000  V
  V11      1.0000 0.39626  0.13984  0.80771  Biso   1.000  V
  V12      1.0000 0.10374  0.86016  0.80771  Biso   1.000  V
  V13      1.0000 0.77465  0.25000  0.25000  Biso   1.000  V
  V14      1.0000 0.72535  0.75000  0.25000  Biso   1.000  V
  V15      1.0000 0.22535  0.75000  0.75000  Biso   1.000  V
  V16      1.0000 0.27465  0.25000  0.75000  Biso   1.000  V
  P1       1.0000 0.95717  0.34186  0.02021  Biso   1.000  P
  P2       1.0000 0.54283  0.65814  0.02021  Biso   1.000  P
  P3       1.0000 0.54283  0.84186  0.47979  Biso   1.000  P
  P4       1.0000 0.95717  0.15814  0.47979  Biso   1.000  P
  P5       1.0000 0.04283  0.65814  0.97979  Biso   1.000  P
  P6       1.0000 0.45717  0.34186  0.97979  Biso   1.000  P
  P7       1.0000 0.45717  0.15814  0.52021  Biso   1.000  P
  P8       1.0000 0.04283  0.84186  0.52021  Biso   1.000  P
  P9       1.0000 0.83712  0.26469  0.53617  Biso   1.000  P
  P10      1.0000 0.66288  0.73531  0.53617  Biso   1.000  P
  P11      1.0000 0.66288  0.76469  0.96383  Biso   1.000  P
  P12      1.0000 0.83712  0.23531  0.96383  Biso   1.000  P
  P13      1.0000 0.16288  0.73531  0.46383  Biso   1.000  P
  P14      1.0000 0.33712  0.26469  0.46383  Biso   1.000  P
  P15      1.0000 0.33712  0.23531  0.03617  Biso   1.000  P
  P16      1.0000 0.16288  0.76469  0.03617  Biso   1.000  P
  F1       1.0000 0.89738  0.25000  0.25000  Biso   1.000  F
  F2       1.0000 0.60262  0.75000  0.25000  Biso   1.000  F
  F3       1.0000 0.10262  0.75000  0.75000  Biso   1.000  F
  F4       1.0000 0.39738  0.25000  0.75000  Biso   1.000  F
  O1       1.0000 0.99881  0.39298  0.93910  Biso   1.000  O
  O2       1.0000 0.50119  0.60702  0.93910  Biso   1.000  O
  O3       1.0000 0.50119  0.89298  0.56090  Biso   1.000  O
  O4       1.0000 0.99881  0.10702  0.56090  Biso   1.000  O
  O5       1.0000 0.00119  0.60702  0.06090  Biso   1.000  O
  O6       1.0000 0.49881  0.39298  0.06090  Biso   1.000  O
  O7       1.0000 0.49881  0.10702  0.43910  Biso   1.000  O
  O8       1.0000 0.00119  0.89298  0.43910  Biso   1.000  O
  O9       1.0000 0.00669  0.28766  0.07780  Biso   1.000  O
  O10      1.0000 0.49331  0.71234  0.07780  Biso   1.000  O
  O11      1.0000 0.49331  0.78766  0.42220  Biso   1.000  O
  O12      1.0000 0.00669  0.21234  0.42220  Biso   1.000  O
  O13      1.0000 0.99331  0.71234  0.92220  Biso   1.000  O
  O14      1.0000 0.50669  0.28766  0.92220  Biso   1.000  O
  O15      1.0000 0.50669  0.21234  0.57780  Biso   1.000  O
  O16      1.0000 0.99331  0.78766  0.57780  Biso   1.000  O
  O17      1.0000 0.91166  0.37735  0.12270  Biso   1.000  O
  O18      1.0000 0.58834  0.62265  0.12270  Biso   1.000  O
  O19      1.0000 0.58834  0.87735  0.37730  Biso   1.000  O
  O20      1.0000 0.91166  0.12265  0.37730  Biso   1.000  O
  O21      1.0000 0.08834  0.62265  0.87730  Biso   1.000  O
  O22      1.0000 0.41166  0.37735  0.87730  Biso   1.000  O
  O23      1.0000 0.41166  0.12265  0.62270  Biso   1.000  O
  O24      1.0000 0.08834  0.87735  0.62270  Biso   1.000  O
  O25      1.0000 0.10500  0.25000  0.25000  Biso   1.000  O
  O26      1.0000 0.39500  0.75000  0.25000  Biso   1.000  O
  O27      1.0000 0.89500  0.75000  0.75000  Biso   1.000  O
  O28      1.0000 0.60500  0.25000  0.75000  Biso   1.000  O
  O29      1.0000 0.99359  0.33560  0.31530  Biso   1.000  O
  O30      1.0000 0.50641  0.66440  0.31530  Biso   1.000  O
  O31      1.0000 0.50641  0.83560  0.18470  Biso   1.000  O
  O32      1.0000 0.99359  0.16440  0.18470  Biso   1.000  O
  O33      1.0000 0.00641  0.66440  0.68470  Biso   1.000  O
  O34      1.0000 0.49359  0.33560  0.68470  Biso   1.000  O
  O35      1.0000 0.49359  0.16440  0.81530  Biso   1.000  O
  O36      1.0000 0.00641  0.83560  0.81530  Biso   1.000  O
  O37      1.0000 0.89634  0.43897  0.35060  Biso   1.000  O
  O38      1.0000 0.60366  0.56103  0.35060  Biso   1.000  O
  O39      1.0000 0.60366  0.93897  0.14940  Biso   1.000  O
  O40      1.0000 0.89634  0.06103  0.14940  Biso   1.000  O
  O41      1.0000 0.10366  0.56103  0.64940  Biso   1.000  O
  O42      1.0000 0.39634  0.43897  0.64940  Biso   1.000  O
  O43      1.0000 0.39634  0.06103  0.85060  Biso   1.000  O
  O44      1.0000 0.10366  0.93897  0.85060  Biso   1.000  O
  O45      1.0000 0.80091  0.34114  0.27400  Biso   1.000  O
  O46      1.0000 0.69909  0.65886  0.27400  Biso   1.000  O
  O47      1.0000 0.69909  0.84114  0.22600  Biso   1.000  O
  O48      1.0000 0.80091  0.15886  0.22600  Biso   1.000  O
  O49      1.0000 0.19909  0.65886  0.72600  Biso   1.000  O
  O50      1.0000 0.30091  0.34114  0.72600  Biso   1.000  O
  O51      1.0000 0.30091  0.15886  0.77400  Biso   1.000  O
  O52      1.0000 0.19909  0.84114  0.77400  Biso   1.000  O
  O53      1.0000 0.88187  0.32301  0.48080  Biso   1.000  O
  O54      1.0000 0.61813  0.67699  0.48080  Biso   1.000  O
  O55      1.0000 0.61813  0.82301  0.01920  Biso   1.000  O
  O56      1.0000 0.88187  0.17699  0.01920  Biso   1.000  O
  O57      1.0000 0.11813  0.67699  0.51920  Biso   1.000  O
  O58      1.0000 0.38187  0.32301  0.51920  Biso   1.000  O
  O59      1.0000 0.38187  0.17699  0.98080  Biso   1.000  O
  O60      1.0000 0.11813  0.82301  0.98080  Biso   1.000  O
  O61      1.0000 0.78615  0.26531  0.06350  Biso   1.000  O
  O62      1.0000 0.71385  0.73469  0.06350  Biso   1.000  O
  O63      1.0000 0.71385  0.76531  0.43650  Biso   1.000  O
  O64      1.0000 0.78615  0.23469  0.43650  Biso   1.000  O
  O65      1.0000 0.21385  0.73469  0.93650  Biso   1.000  O
  O66      1.0000 0.28615  0.26531  0.93650  Biso   1.000  O
  O67      1.0000 0.28615  0.23469  0.56350  Biso   1.000  O
  O68      1.0000 0.21385  0.76531  0.56350  Biso   1.000  O
  O69      1.0000 0.68920  0.25000  0.25000  Biso   1.000  O
  O70      1.0000 0.81080  0.75000  0.25000  Biso   1.000  O
  O71      1.0000 0.31080  0.75000  0.75000  Biso   1.000  O
  O72      1.0000 0.18920  0.25000  0.75000  Biso   1.000  O
  O73      1.0000 0.79638  0.28827  0.65640  Biso   1.000  O
  O74      1.0000 0.70362  0.71173  0.65640  Biso   1.000  O
  O75      1.0000 0.70362  0.78827  0.84360  Biso   1.000  O
  O76      1.0000 0.79638  0.21173  0.84360  Biso   1.000  O
  O77      1.0000 0.20362  0.71173  0.34360  Biso   1.000  O
  O78      1.0000 0.29638  0.28827  0.34360  Biso   1.000  O
  O79      1.0000 0.29638  0.21173  0.15640  Biso   1.000  O
  O80      1.0000 0.20362  0.78827  0.15640  Biso   1.000  O
  O81      1.0000 0.15900  0.33668  0.02050  Biso   1.000  O
  O82      1.0000 0.34100  0.66332  0.02050  Biso   1.000  O
  O83      1.0000 0.34100  0.83668  0.47950  Biso   1.000  O
  O84      1.0000 0.15900  0.16332  0.47950  Biso   1.000  O
  O85      1.0000 0.84100  0.66332  0.97950  Biso   1.000  O
  O86      1.0000 0.65900  0.33668  0.97950  Biso   1.000  O
  O87      1.0000 0.65900  0.16332  0.52050  Biso   1.000  O
  O88      1.0000 0.84100  0.83668  0.52050  Biso   1.000  O
  N1       1.0000 0.09773  0.46823  0.11650  Biso   1.000  N
  N2       1.0000 0.40227  0.53177  0.11650  Biso   1.000  N
  N3       1.0000 0.40227  0.96823  0.38350  Biso   1.000  N
  N4       1.0000 0.09773  0.03177  0.38350  Biso   1.000  N
  N5       1.0000 0.90227  0.53177  0.88350  Biso   1.000  N
  N6       1.0000 0.59773  0.46823  0.88350  Biso   1.000  N
  N7       1.0000 0.59773  0.03177  0.61650  Biso   1.000  N
  N8       1.0000 0.90227  0.96823  0.61650  Biso   1.000  N
  N9       1.0000 0.18457  0.47589  0.92420  Biso   1.000  N
  N10      1.0000 0.31543  0.52411  0.92420  Biso   1.000  N
  N11      1.0000 0.31543  0.97589  0.57580  Biso   1.000  N
  N12      1.0000 0.18457  0.02411  0.57580  Biso   1.000  N
  N13      1.0000 0.81543  0.52411  0.07580  Biso   1.000  N
  N14      1.0000 0.68457  0.47589  0.07580  Biso   1.000  N
  N15      1.0000 0.68457  0.02411  0.42420  Biso   1.000  N
  N16      1.0000 0.81543  0.97589  0.42420  Biso   1.000  N
  N17      1.0000 0.11703  0.41398  0.75080  Biso   1.000  N
  N18      1.0000 0.38297  0.58602  0.75080  Biso   1.000  N
  N19      1.0000 0.38297  0.91398  0.74920  Biso   1.000  N
  N20      1.0000 0.11703  0.08602  0.74920  Biso   1.000  N
  N21      1.0000 0.88297  0.58602  0.24920  Biso   1.000  N
  N22      1.0000 0.61703  0.41398  0.24920  Biso   1.000  N
  N23      1.0000 0.61703  0.08602  0.25080  Biso   1.000  N
  N24      1.0000 0.88297  0.91398  0.25080  Biso   1.000  N
  C1       1.0000 0.04550  0.47320  0.20390  Biso   1.000  C
  C2       1.0000 0.45450  0.52680  0.20390  Biso   1.000  C
  C3       1.0000 0.45450  0.97320  0.29610  Biso   1.000  C
  C4       1.0000 0.04550  0.02680  0.29610  Biso   1.000  C
  C5       1.0000 0.95450  0.52680  0.79610  Biso   1.000  C
  C6       1.0000 0.54550  0.47320  0.79610  Biso   1.000  C
  C7       1.0000 0.54550  0.02680  0.70390  Biso   1.000  C
  C8       1.0000 0.95450  0.97320  0.70390  Biso   1.000  C
  H1       1.0000 0.00070  0.45250  0.18590  Biso   1.000  H
  H2       1.0000 0.49930  0.54750  0.18590  Biso   1.000  H
  H3       1.0000 0.49930  0.95250  0.31410  Biso   1.000  H
  H4       1.0000 0.00070  0.04750  0.31410  Biso   1.000  H
  H5       1.0000 0.99930  0.54750  0.81410  Biso   1.000  H
  H6       1.0000 0.50070  0.45250  0.81410  Biso   1.000  H
  H7       1.0000 0.50070  0.04750  0.68590  Biso   1.000  H
  H8       1.0000 0.99930  0.95250  0.68590  Biso   1.000  H
  C9       1.0000 0.05420  0.50750  0.31980  Biso   1.000  C
  C10      1.0000 0.44580  0.49250  0.31980  Biso   1.000  C
  C11      1.0000 0.44580  0.00750  0.18020  Biso   1.000  C
  C12      1.0000 0.05420  0.99250  0.18020  Biso   1.000  C
  C13      1.0000 0.94580  0.49250  0.68020  Biso   1.000  C
  C14      1.0000 0.55420  0.50750  0.68020  Biso   1.000  C
  C15      1.0000 0.55420  0.99250  0.81980  Biso   1.000  C
  C16      1.0000 0.94580  0.00750  0.81980  Biso   1.000  C
  H9       1.0000 0.01680  0.50840  0.38170  Biso   1.000  H
  H10      1.0000 0.48320  0.49160  0.38170  Biso   1.000  H
  H11      1.0000 0.48320  0.00840  0.11830  Biso   1.000  H
  H12      1.0000 0.01680  0.99160  0.11830  Biso   1.000  H
  H13      1.0000 0.98320  0.49160  0.61830  Biso   1.000  H
  H14      1.0000 0.51680  0.50840  0.61830  Biso   1.000  H
  H15      1.0000 0.51680  0.99160  0.88170  Biso   1.000  H
  H16      1.0000 0.98320  0.00840  0.88170  Biso   1.000  H
  C17      1.0000 0.11830  0.54050  0.34360  Biso   1.000  C
  C18      1.0000 0.38170  0.45950  0.34360  Biso   1.000  C
  C19      1.0000 0.38170  0.04050  0.15640  Biso   1.000  C
  C20      1.0000 0.11830  0.95950  0.15640  Biso   1.000  C
  C21      1.0000 0.88170  0.45950  0.65640  Biso   1.000  C
  C22      1.0000 0.61830  0.54050  0.65640  Biso   1.000  C
  C23      1.0000 0.61830  0.95950  0.84360  Biso   1.000  C
  C24      1.0000 0.88170  0.04050  0.84360  Biso   1.000  C
  H17      1.0000 0.12490  0.56580  0.42080  Biso   1.000  H
  H18      1.0000 0.37510  0.43420  0.42080  Biso   1.000  H
  H19      1.0000 0.37510  0.06580  0.07920  Biso   1.000  H
  H20      1.0000 0.12490  0.93420  0.07920  Biso   1.000  H
  H21      1.0000 0.87510  0.43420  0.57920  Biso   1.000  H
  H22      1.0000 0.62490  0.56580  0.57920  Biso   1.000  H
  H23      1.0000 0.62490  0.93420  0.92080  Biso   1.000  H
  H24      1.0000 0.87510  0.06580  0.92080  Biso   1.000  H
  C25      1.0000 0.17290  0.53640  0.25370  Biso   1.000  C
  C26      1.0000 0.32710  0.46360  0.25370  Biso   1.000  C
  C27      1.0000 0.32710  0.03640  0.24630  Biso   1.000  C
  C28      1.0000 0.17290  0.96360  0.24630  Biso   1.000  C
  C29      1.0000 0.82710  0.46360  0.74630  Biso   1.000  C
  C30      1.0000 0.67290  0.53640  0.74630  Biso   1.000  C
  C31      1.0000 0.67290  0.96360  0.75370  Biso   1.000  C
  C32      1.0000 0.82710  0.03640  0.75370  Biso   1.000  C
  H25      1.0000 0.21700  0.55930  0.26770  Biso   1.000  H
  H26      1.0000 0.28300  0.44070  0.26770  Biso   1.000  H
  H27      1.0000 0.28300  0.05930  0.23230  Biso   1.000  H
  H28      1.0000 0.21700  0.94070  0.23230  Biso   1.000  H
  H29      1.0000 0.78300  0.44070  0.73230  Biso   1.000  H
  H30      1.0000 0.71700  0.55930  0.73230  Biso   1.000  H
  H31      1.0000 0.71700  0.94070  0.76770  Biso   1.000  H
  H32      1.0000 0.78300  0.05930  0.76770  Biso   1.000  H
  C33      1.0000 0.16180  0.49830  0.14340  Biso   1.000  C
  C34      1.0000 0.33820  0.50170  0.14340  Biso   1.000  C
  C35      1.0000 0.33820  0.99830  0.35660  Biso   1.000  C
  C36      1.0000 0.16180  0.00170  0.35660  Biso   1.000  C
  C37      1.0000 0.83820  0.50170  0.85660  Biso   1.000  C
  C38      1.0000 0.66180  0.49830  0.85660  Biso   1.000  C
  C39      1.0000 0.66180  0.00170  0.64340  Biso   1.000  C
  C40      1.0000 0.83820  0.99830  0.64340  Biso   1.000  C
  C41      1.0000 0.21330  0.49330  0.03740  Biso   1.000  C
  C42      1.0000 0.28670  0.50670  0.03740  Biso   1.000  C
  C43      1.0000 0.28670  0.99330  0.46260  Biso   1.000  C
  C44      1.0000 0.21330  0.00670  0.46260  Biso   1.000  C
  C45      1.0000 0.78670  0.50670  0.96260  Biso   1.000  C
  C46      1.0000 0.71330  0.49330  0.96260  Biso   1.000  C
  C47      1.0000 0.71330  0.00670  0.53740  Biso   1.000  C
  C48      1.0000 0.78670  0.99330  0.53740  Biso   1.000  C
  C49      1.0000 0.21720  0.48110  0.81050  Biso   1.000  C
  C50      1.0000 0.28280  0.51890  0.81050  Biso   1.000  C
  C51      1.0000 0.28280  0.98110  0.68950  Biso   1.000  C
  C52      1.0000 0.21720  0.01890  0.68950  Biso   1.000  C
  C53      1.0000 0.78280  0.51890  0.18950  Biso   1.000  C
  C54      1.0000 0.71720  0.48110  0.18950  Biso   1.000  C
  C55      1.0000 0.71720  0.01890  0.31050  Biso   1.000  C
  C56      1.0000 0.78280  0.98110  0.31050  Biso   1.000  C
  C57      1.0000 0.17990  0.44120  0.70930  Biso   1.000  C
  C58      1.0000 0.32010  0.55880  0.70930  Biso   1.000  C
  C59      1.0000 0.32010  0.94120  0.79070  Biso   1.000  C
  C60      1.0000 0.17990  0.05880  0.79070  Biso   1.000  C
  C61      1.0000 0.82010  0.55880  0.29070  Biso   1.000  C
  C62      1.0000 0.67990  0.44120  0.29070  Biso   1.000  C
  C63      1.0000 0.67990  0.05880  0.20930  Biso   1.000  C
  C64      1.0000 0.82010  0.94120  0.20930  Biso   1.000  C
  C65      1.0000 0.20680  0.42610  0.58860  Biso   1.000  C
  C66      1.0000 0.29320  0.57390  0.58860  Biso   1.000  C
  C67      1.0000 0.29320  0.92610  0.91140  Biso   1.000  C
  C68      1.0000 0.20680  0.07390  0.91140  Biso   1.000  C
  C69      1.0000 0.79320  0.57390  0.41140  Biso   1.000  C
  C70      1.0000 0.70680  0.42610  0.41140  Biso   1.000  C
  C71      1.0000 0.70680  0.07390  0.08860  Biso   1.000  C
  C72      1.0000 0.79320  0.92610  0.08860  Biso   1.000  C
  H33      1.0000 0.25150  0.44420  0.56160  Biso   1.000  H
  H34      1.0000 0.24850  0.55580  0.56160  Biso   1.000  H
  H35      1.0000 0.24850  0.94420  0.93840  Biso   1.000  H
  H36      1.0000 0.25150  0.05580  0.93840  Biso   1.000  H
  H37      1.0000 0.74850  0.55580  0.43840  Biso   1.000  H
  H38      1.0000 0.75150  0.44420  0.43840  Biso   1.000  H
  H39      1.0000 0.75150  0.05580  0.06160  Biso   1.000  H
  H40      1.0000 0.74850  0.94420  0.06160  Biso   1.000  H
  C73      1.0000 0.16700  0.38400  0.50740  Biso   1.000  C
  C74      1.0000 0.33300  0.61600  0.50740  Biso   1.000  C
  C75      1.0000 0.33300  0.88400  0.99260  Biso   1.000  C
  C76      1.0000 0.16700  0.11600  0.99260  Biso   1.000  C
  C77      1.0000 0.83300  0.61600  0.49260  Biso   1.000  C
  C78      1.0000 0.66700  0.38400  0.49260  Biso   1.000  C
  C79      1.0000 0.66700  0.11600  0.00740  Biso   1.000  C
  C80      1.0000 0.83300  0.88400  0.00740  Biso   1.000  C
  H41      1.0000 0.18470  0.37280  0.42430  Biso   1.000  H
  H42      1.0000 0.31530  0.62720  0.42430  Biso   1.000  H
  H43      1.0000 0.31530  0.87280  0.07570  Biso   1.000  H
  H44      1.0000 0.18470  0.12720  0.07570  Biso   1.000  H
  H45      1.0000 0.81530  0.62720  0.57570  Biso   1.000  H
  H46      1.0000 0.68470  0.37280  0.57570  Biso   1.000  H
  H47      1.0000 0.68470  0.12720  0.92430  Biso   1.000  H
  H48      1.0000 0.81530  0.87280  0.92430  Biso   1.000  H
  C81      1.0000 0.10200  0.35860  0.54800  Biso   1.000  C
  C82      1.0000 0.39800  0.64140  0.54800  Biso   1.000  C
  C83      1.0000 0.39800  0.85860  0.95200  Biso   1.000  C
  C84      1.0000 0.10200  0.14140  0.95200  Biso   1.000  C
  C85      1.0000 0.89800  0.64140  0.45200  Biso   1.000  C
  C86      1.0000 0.60200  0.35860  0.45200  Biso   1.000  C
  C87      1.0000 0.60200  0.14140  0.04800  Biso   1.000  C
  C88      1.0000 0.89800  0.85860  0.04800  Biso   1.000  C
  H49      1.0000 0.07360  0.33090  0.49300  Biso   1.000  H
  H50      1.0000 0.42640  0.66910  0.49300  Biso   1.000  H
  H51      1.0000 0.42640  0.83090  0.00700  Biso   1.000  H
  H52      1.0000 0.07360  0.16910  0.00700  Biso   1.000  H
  H53      1.0000 0.92640  0.66910  0.50700  Biso   1.000  H
  H54      1.0000 0.57360  0.33090  0.50700  Biso   1.000  H
  H55      1.0000 0.57360  0.16910  0.99300  Biso   1.000  H
  H56      1.0000 0.92640  0.83090  0.99300  Biso   1.000  H
  C89      1.0000 0.07920  0.37470  0.67110  Biso   1.000  C
  C90      1.0000 0.42080  0.62530  0.67110  Biso   1.000  C
  C91      1.0000 0.42080  0.87470  0.82890  Biso   1.000  C
  C92      1.0000 0.07920  0.12530  0.82890  Biso   1.000  C
  C93      1.0000 0.92080  0.62530  0.32890  Biso   1.000  C
  C94      1.0000 0.57920  0.37470  0.32890  Biso   1.000  C
  C95      1.0000 0.57920  0.12530  0.17110  Biso   1.000  C
  C96      1.0000 0.92080  0.87470  0.17110  Biso   1.000  C
  H57      1.0000 0.03480  0.35700  0.69990  Biso   1.000  H
  H58      1.0000 0.46520  0.64300  0.69990  Biso   1.000  H
  H59      1.0000 0.46520  0.85700  0.80010  Biso   1.000  H
  H60      1.0000 0.03480  0.14300  0.80010  Biso   1.000  H
  H61      1.0000 0.96520  0.64300  0.30010  Biso   1.000  H
  H62      1.0000 0.53480  0.35700  0.30010  Biso   1.000  H
  H63      1.0000 0.53480  0.14300  0.19990  Biso   1.000  H
  H64      1.0000 0.96520  0.85700  0.19990  Biso   1.000  H
  C97      1.0000 0.89750  0.30120  0.90890  Biso   1.000  C
  C98      1.0000 0.60250  0.69880  0.90890  Biso   1.000  C
  C99      1.0000 0.60250  0.80120  0.59110  Biso   1.000  C
  C100     1.0000 0.89750  0.19880  0.59110  Biso   1.000  C
  C101     1.0000 0.10250  0.69880  0.09110  Biso   1.000  C
  C102     1.0000 0.39750  0.30120  0.09110  Biso   1.000  C
  C103     1.0000 0.39750  0.19880  0.40890  Biso   1.000  C
  C104     1.0000 0.10250  0.80120  0.40890  Biso   1.000  C
  H65      1.0000 0.92720  0.28100  0.83970  Biso   1.000  H
  H66      1.0000 0.57280  0.71900  0.83970  Biso   1.000  H
  H67      1.0000 0.57280  0.78100  0.66030  Biso   1.000  H
  H68      1.0000 0.92720  0.21900  0.66030  Biso   1.000  H
  H69      1.0000 0.07280  0.71900  0.16030  Biso   1.000  H
  H70      1.0000 0.42720  0.28100  0.16030  Biso   1.000  H
  H71      1.0000 0.42720  0.21900  0.33970  Biso   1.000  H
  H72      1.0000 0.07280  0.78100  0.33970  Biso   1.000  H
  H73      1.0000 0.86820  0.33760  0.86890  Biso   1.000  H
  H74      1.0000 0.63180  0.66240  0.86890  Biso   1.000  H
  H75      1.0000 0.63180  0.83760  0.63110  Biso   1.000  H
  H76      1.0000 0.86820  0.16240  0.63110  Biso   1.000  H
  H77      1.0000 0.13180  0.66240  0.13110  Biso   1.000  H
  H78      1.0000 0.36820  0.33760  0.13110  Biso   1.000  H
  H79      1.0000 0.36820  0.16240  0.36890  Biso   1.000  H
  H80      1.0000 0.13180  0.83760  0.36890  Biso   1.000  H
