data_image0
_cell_length_a       14.1395
_cell_length_b       12.3301
_cell_length_c       17.5892
_cell_angle_alpha    90
_cell_angle_beta     98.478
_cell_angle_gamma    90

_symmetry_space_group_name_H-M    "P 1"
_symmetry_int_tables_number       1

loop_
  _symmetry_equiv_pos_as_xyz
  'x, y, z'

loop_
  _atom_site_label
  _atom_site_occupancy
  _atom_site_fract_x
  _atom_site_fract_y
  _atom_site_fract_z
  _atom_site_thermal_displace_type
  _atom_site_B_iso_or_equiv
  _atom_site_type_symbol
  Cu1      1.0000 0.04942  0.33733  0.43640  Biso   1.000  Cu
  Cu2      1.0000 0.54942  0.83733  0.43640  Biso   1.000  Cu
  Cu3      1.0000 0.95058  0.33733  0.06360  Biso   1.000  Cu
  Cu4      1.0000 0.45058  0.83733  0.06360  Biso   1.000  Cu
  Cu5      1.0000 0.95058  0.66267  0.56360  Biso   1.000  Cu
  Cu6      1.0000 0.45058  0.16267  0.56360  Biso   1.000  Cu
  Cu7      1.0000 0.04942  0.66267  0.93640  Biso   1.000  Cu
  Cu8      1.0000 0.54942  0.16267  0.93640  Biso   1.000  Cu
  V1       1.0000 0.08390  0.02977  0.33294  Biso   1.000  V
  V2       1.0000 0.58390  0.52977  0.33294  Biso   1.000  V
  V3       1.0000 0.91610  0.02977  0.16706  Biso   1.000  V
  V4       1.0000 0.41610  0.52977  0.16706  Biso   1.000  V
  V5       1.0000 0.91610  0.97023  0.66706  Biso   1.000  V
  V6       1.0000 0.41610  0.47023  0.66706  Biso   1.000  V
  V7       1.0000 0.08390  0.97023  0.83294  Biso   1.000  V
  V8       1.0000 0.58390  0.47023  0.83294  Biso   1.000  V
  P1       1.0000 0.94752  0.57982  0.39550  Biso   1.000  P
  P2       1.0000 0.44752  0.07982  0.39550  Biso   1.000  P
  P3       1.0000 0.05248  0.57982  0.10450  Biso   1.000  P
  P4       1.0000 0.55248  0.07982  0.10450  Biso   1.000  P
  P5       1.0000 0.05248  0.42018  0.60450  Biso   1.000  P
  P6       1.0000 0.55248  0.92018  0.60450  Biso   1.000  P
  P7       1.0000 0.94752  0.42018  0.89550  Biso   1.000  P
  P8       1.0000 0.44752  0.92018  0.89550  Biso   1.000  P
  F1       1.0000 0.03357  0.06910  0.41606  Biso   1.000  F
  F2       1.0000 0.53357  0.56910  0.41606  Biso   1.000  F
  F3       1.0000 0.96643  0.06910  0.08394  Biso   1.000  F
  F4       1.0000 0.46643  0.56910  0.08394  Biso   1.000  F
  F5       1.0000 0.96643  0.93090  0.58394  Biso   1.000  F
  F6       1.0000 0.46643  0.43090  0.58394  Biso   1.000  F
  F7       1.0000 0.03357  0.93090  0.91606  Biso   1.000  F
  F8       1.0000 0.53357  0.43090  0.91606  Biso   1.000  F
  O1       1.0000 0.91960  0.65879  0.45489  Biso   1.000  O
  O2       1.0000 0.41960  0.15879  0.45489  Biso   1.000  O
  O3       1.0000 0.08040  0.65879  0.04511  Biso   1.000  O
  O4       1.0000 0.58040  0.15879  0.04511  Biso   1.000  O
  O5       1.0000 0.08040  0.34121  0.54511  Biso   1.000  O
  O6       1.0000 0.58040  0.84121  0.54511  Biso   1.000  O
  O7       1.0000 0.91960  0.34121  0.95489  Biso   1.000  O
  O8       1.0000 0.41960  0.84121  0.95489  Biso   1.000  O
  O9       1.0000 0.03247  0.50798  0.41869  Biso   1.000  O
  O10      1.0000 0.53247  0.00798  0.41869  Biso   1.000  O
  O11      1.0000 0.96753  0.50798  0.08131  Biso   1.000  O
  O12      1.0000 0.46753  0.00798  0.08131  Biso   1.000  O
  O13      1.0000 0.96753  0.49202  0.58131  Biso   1.000  O
  O14      1.0000 0.46753  0.99202  0.58131  Biso   1.000  O
  O15      1.0000 0.03247  0.49202  0.91869  Biso   1.000  O
  O16      1.0000 0.53247  0.99202  0.91869  Biso   1.000  O
  O17      1.0000 0.14073  0.50403  0.13473  Biso   1.000  O
  O18      1.0000 0.64073  0.00403  0.13473  Biso   1.000  O
  O19      1.0000 0.85927  0.50403  0.36527  Biso   1.000  O
  O20      1.0000 0.35927  0.00403  0.36527  Biso   1.000  O
  O21      1.0000 0.85927  0.49597  0.86527  Biso   1.000  O
  O22      1.0000 0.35927  0.99597  0.86527  Biso   1.000  O
  O23      1.0000 0.14073  0.49597  0.63473  Biso   1.000  O
  O24      1.0000 0.64073  0.99597  0.63473  Biso   1.000  O
  H1       1.0000 0.19060  0.54170  0.14350  Biso   1.000  H
  H2       1.0000 0.69060  0.04170  0.14350  Biso   1.000  H
  H3       1.0000 0.80940  0.54170  0.35650  Biso   1.000  H
  H4       1.0000 0.30940  0.04170  0.35650  Biso   1.000  H
  H5       1.0000 0.80940  0.45830  0.85650  Biso   1.000  H
  H6       1.0000 0.30940  0.95830  0.85650  Biso   1.000  H
  H7       1.0000 0.19060  0.45830  0.64350  Biso   1.000  H
  H8       1.0000 0.69060  0.95830  0.64350  Biso   1.000  H
  O25      1.0000 0.18710  0.09149  0.33258  Biso   1.000  O
  O26      1.0000 0.68710  0.59149  0.33258  Biso   1.000  O
  O27      1.0000 0.81290  0.09149  0.16742  Biso   1.000  O
  O28      1.0000 0.31290  0.59149  0.16742  Biso   1.000  O
  O29      1.0000 0.81290  0.90851  0.66742  Biso   1.000  O
  O30      1.0000 0.31290  0.40851  0.66742  Biso   1.000  O
  O31      1.0000 0.18710  0.90851  0.83258  Biso   1.000  O
  O32      1.0000 0.68710  0.40851  0.83258  Biso   1.000  O
  O33      1.0000 0.00000  0.06813  0.25000  Biso   1.000  O
  O34      1.0000 0.50000  0.56813  0.25000  Biso   1.000  O
  O35      1.0000 0.00000  0.93187  0.75000  Biso   1.000  O
  O36      1.0000 0.50000  0.43187  0.75000  Biso   1.000  O
  O37      1.0000 0.10208  0.90008  0.33595  Biso   1.000  O
  O38      1.0000 0.60208  0.40008  0.33595  Biso   1.000  O
  O39      1.0000 0.89792  0.90008  0.16405  Biso   1.000  O
  O40      1.0000 0.39792  0.40008  0.16405  Biso   1.000  O
  O41      1.0000 0.89792  0.09992  0.66405  Biso   1.000  O
  O42      1.0000 0.39792  0.59992  0.66405  Biso   1.000  O
  O43      1.0000 0.10208  0.09992  0.83595  Biso   1.000  O
  O44      1.0000 0.60208  0.59992  0.83595  Biso   1.000  O
  N1       1.0000 0.18459  0.65526  0.90651  Biso   1.000  N
  N2       1.0000 0.68459  0.15526  0.90651  Biso   1.000  N
  N3       1.0000 0.81541  0.65526  0.59349  Biso   1.000  N
  N4       1.0000 0.31541  0.15526  0.59349  Biso   1.000  N
  N5       1.0000 0.81541  0.34474  0.09349  Biso   1.000  N
  N6       1.0000 0.31541  0.84474  0.09349  Biso   1.000  N
  N7       1.0000 0.18459  0.34474  0.40651  Biso   1.000  N
  N8       1.0000 0.68459  0.84474  0.40651  Biso   1.000  N
  N9       1.0000 0.02226  0.69136  0.82508  Biso   1.000  N
  N10      1.0000 0.52226  0.19136  0.82508  Biso   1.000  N
  N11      1.0000 0.97774  0.69136  0.67492  Biso   1.000  N
  N12      1.0000 0.47774  0.19136  0.67492  Biso   1.000  N
  N13      1.0000 0.97774  0.30864  0.17492  Biso   1.000  N
  N14      1.0000 0.47774  0.80864  0.17492  Biso   1.000  N
  N15      1.0000 0.02226  0.30864  0.32508  Biso   1.000  N
  N16      1.0000 0.52226  0.80864  0.32508  Biso   1.000  N
  N17      1.0000 0.91890  0.73521  0.92746  Biso   1.000  N
  N18      1.0000 0.41890  0.23521  0.92746  Biso   1.000  N
  N19      1.0000 0.08110  0.73521  0.57254  Biso   1.000  N
  N20      1.0000 0.58110  0.23521  0.57254  Biso   1.000  N
  N21      1.0000 0.08110  0.26479  0.07254  Biso   1.000  N
  N22      1.0000 0.58110  0.76479  0.07254  Biso   1.000  N
  N23      1.0000 0.91890  0.26479  0.42746  Biso   1.000  N
  N24      1.0000 0.41890  0.76479  0.42746  Biso   1.000  N
  C1       1.0000 0.26469  0.62990  0.95322  Biso   1.000  C
  C2       1.0000 0.76469  0.12990  0.95322  Biso   1.000  C
  C3       1.0000 0.73531  0.62990  0.54678  Biso   1.000  C
  C4       1.0000 0.23531  0.12990  0.54678  Biso   1.000  C
  C5       1.0000 0.73531  0.37010  0.04678  Biso   1.000  C
  C6       1.0000 0.23531  0.87010  0.04678  Biso   1.000  C
  C7       1.0000 0.26469  0.37010  0.45322  Biso   1.000  C
  C8       1.0000 0.76469  0.87010  0.45322  Biso   1.000  C
  C9       1.0000 0.34965  0.60517  0.92589  Biso   1.000  C
  C10      1.0000 0.84965  0.10517  0.92589  Biso   1.000  C
  C11      1.0000 0.65035  0.60517  0.57411  Biso   1.000  C
  C12      1.0000 0.15035  0.10517  0.57411  Biso   1.000  C
  C13      1.0000 0.65035  0.39483  0.07411  Biso   1.000  C
  C14      1.0000 0.15035  0.89483  0.07411  Biso   1.000  C
  C15      1.0000 0.34965  0.39483  0.42589  Biso   1.000  C
  C16      1.0000 0.84965  0.89483  0.42589  Biso   1.000  C
  C17      1.0000 0.34976  0.60309  0.84719  Biso   1.000  C
  C18      1.0000 0.84976  0.10309  0.84719  Biso   1.000  C
  C19      1.0000 0.65024  0.60309  0.65281  Biso   1.000  C
  C20      1.0000 0.15024  0.10309  0.65281  Biso   1.000  C
  C21      1.0000 0.65024  0.39691  0.15281  Biso   1.000  C
  C22      1.0000 0.15024  0.89691  0.15281  Biso   1.000  C
  C23      1.0000 0.34976  0.39691  0.34719  Biso   1.000  C
  C24      1.0000 0.84976  0.89691  0.34719  Biso   1.000  C
  C25      1.0000 0.26644  0.62831  0.79770  Biso   1.000  C
  C26      1.0000 0.76644  0.12831  0.79770  Biso   1.000  C
  C27      1.0000 0.73356  0.62831  0.70230  Biso   1.000  C
  C28      1.0000 0.23356  0.12831  0.70230  Biso   1.000  C
  C29      1.0000 0.73356  0.37169  0.20230  Biso   1.000  C
  C30      1.0000 0.23356  0.87169  0.20230  Biso   1.000  C
  C31      1.0000 0.26644  0.37169  0.29770  Biso   1.000  C
  C32      1.0000 0.76644  0.87169  0.29770  Biso   1.000  C
  C33      1.0000 0.18620  0.65687  0.82938  Biso   1.000  C
  C34      1.0000 0.68620  0.15687  0.82938  Biso   1.000  C
  C35      1.0000 0.81380  0.65687  0.67062  Biso   1.000  C
  C36      1.0000 0.31380  0.15687  0.67062  Biso   1.000  C
  C37      1.0000 0.81380  0.34313  0.17062  Biso   1.000  C
  C38      1.0000 0.31380  0.84313  0.17062  Biso   1.000  C
  C39      1.0000 0.18620  0.34313  0.32938  Biso   1.000  C
  C40      1.0000 0.68620  0.84313  0.32938  Biso   1.000  C
  C41      1.0000 0.09380  0.68573  0.78354  Biso   1.000  C
  C42      1.0000 0.59380  0.18573  0.78354  Biso   1.000  C
  C43      1.0000 0.90620  0.68573  0.71646  Biso   1.000  C
  C44      1.0000 0.40620  0.18573  0.71646  Biso   1.000  C
  C45      1.0000 0.90620  0.31427  0.21646  Biso   1.000  C
  C46      1.0000 0.40620  0.81427  0.21646  Biso   1.000  C
  C47      1.0000 0.09380  0.31427  0.28354  Biso   1.000  C
  C48      1.0000 0.59380  0.81427  0.28354  Biso   1.000  C
  C49      1.0000 0.93018  0.70504  0.79615  Biso   1.000  C
  C50      1.0000 0.43018  0.20504  0.79615  Biso   1.000  C
  C51      1.0000 0.06982  0.70504  0.70385  Biso   1.000  C
  C52      1.0000 0.56982  0.20504  0.70385  Biso   1.000  C
  C53      1.0000 0.06982  0.29496  0.20385  Biso   1.000  C
  C54      1.0000 0.56982  0.79496  0.20385  Biso   1.000  C
  C55      1.0000 0.93018  0.29496  0.29615  Biso   1.000  C
  C56      1.0000 0.43018  0.79496  0.29615  Biso   1.000  C
  C57      1.0000 0.87339  0.74654  0.85428  Biso   1.000  C
  C58      1.0000 0.37339  0.24654  0.85428  Biso   1.000  C
  C59      1.0000 0.12661  0.74654  0.64572  Biso   1.000  C
  C60      1.0000 0.62661  0.24654  0.64572  Biso   1.000  C
  C61      1.0000 0.12661  0.25346  0.14572  Biso   1.000  C
  C62      1.0000 0.62661  0.75346  0.14572  Biso   1.000  C
  C63      1.0000 0.87339  0.25346  0.35428  Biso   1.000  C
  C64      1.0000 0.37339  0.75346  0.35428  Biso   1.000  C
  C65      1.0000 0.20969  0.80696  0.66316  Biso   1.000  C
  C66      1.0000 0.70969  0.30696  0.66316  Biso   1.000  C
  C67      1.0000 0.79031  0.80696  0.83684  Biso   1.000  C
  C68      1.0000 0.29031  0.30696  0.83684  Biso   1.000  C
  C69      1.0000 0.79031  0.19304  0.33684  Biso   1.000  C
  C70      1.0000 0.29031  0.69304  0.33684  Biso   1.000  C
  C71      1.0000 0.20969  0.19304  0.16316  Biso   1.000  C
  C72      1.0000 0.70969  0.69304  0.16316  Biso   1.000  C
  C73      1.0000 0.24724  0.85808  0.60333  Biso   1.000  C
  C74      1.0000 0.74724  0.35808  0.60333  Biso   1.000  C
  C75      1.0000 0.75276  0.85808  0.89667  Biso   1.000  C
  C76      1.0000 0.25276  0.35808  0.89667  Biso   1.000  C
  C77      1.0000 0.75276  0.14192  0.39667  Biso   1.000  C
  C78      1.0000 0.25276  0.64192  0.39667  Biso   1.000  C
  C79      1.0000 0.24724  0.14192  0.10333  Biso   1.000  C
  C80      1.0000 0.74724  0.64192  0.10333  Biso   1.000  C
  C81      1.0000 0.11669  0.78573  0.51598  Biso   1.000  C
  C82      1.0000 0.61669  0.28573  0.51598  Biso   1.000  C
  C83      1.0000 0.88331  0.78573  0.98402  Biso   1.000  C
  C84      1.0000 0.38331  0.28573  0.98402  Biso   1.000  C
  C85      1.0000 0.88331  0.21427  0.48402  Biso   1.000  C
  C86      1.0000 0.38331  0.71427  0.48402  Biso   1.000  C
  C87      1.0000 0.11669  0.21427  0.01598  Biso   1.000  C
  C88      1.0000 0.61669  0.71427  0.01598  Biso   1.000  C
  C89      1.0000 0.19943  0.84848  0.52904  Biso   1.000  C
  C90      1.0000 0.69943  0.34848  0.52904  Biso   1.000  C
  C91      1.0000 0.80057  0.84848  0.97096  Biso   1.000  C
  C92      1.0000 0.30057  0.34848  0.97096  Biso   1.000  C
  C93      1.0000 0.80057  0.15152  0.47096  Biso   1.000  C
  C94      1.0000 0.30057  0.65152  0.47096  Biso   1.000  C
  C95      1.0000 0.19943  0.15152  0.02904  Biso   1.000  C
  C96      1.0000 0.69943  0.65152  0.02904  Biso   1.000  C
  C97      1.0000 0.03035  0.65999  0.18567  Biso   1.000  C
  C98      1.0000 0.53035  0.15999  0.18567  Biso   1.000  C
  C99      1.0000 0.96965  0.65999  0.31433  Biso   1.000  C
  C100     1.0000 0.46965  0.15999  0.31433  Biso   1.000  C
  C101     1.0000 0.96965  0.34001  0.81433  Biso   1.000  C
  C102     1.0000 0.46965  0.84001  0.81433  Biso   1.000  C
  C103     1.0000 0.03035  0.34001  0.68567  Biso   1.000  C
  C104     1.0000 0.53035  0.84001  0.68567  Biso   1.000  C
  C105     1.0000 0.00000  0.59059  0.25000  Biso   1.000  C
  C106     1.0000 0.50000  0.09059  0.25000  Biso   1.000  C
  C107     1.0000 0.00000  0.40941  0.75000  Biso   1.000  C
  C108     1.0000 0.50000  0.90941  0.75000  Biso   1.000  C
  H9       1.0000 0.74100  0.63170  0.49340  Biso   1.000  H
  H10      1.0000 0.24100  0.13170  0.49340  Biso   1.000  H
  H11      1.0000 0.25900  0.63170  0.00660  Biso   1.000  H
  H12      1.0000 0.75900  0.13170  0.00660  Biso   1.000  H
  H13      1.0000 0.25900  0.36830  0.50660  Biso   1.000  H
  H14      1.0000 0.75900  0.86830  0.50660  Biso   1.000  H
  H15      1.0000 0.74100  0.36830  0.99340  Biso   1.000  H
  H16      1.0000 0.24100  0.86830  0.99340  Biso   1.000  H
  H17      1.0000 0.59620  0.59040  0.53940  Biso   1.000  H
  H18      1.0000 0.09620  0.09040  0.53940  Biso   1.000  H
  H19      1.0000 0.40380  0.59040  0.96060  Biso   1.000  H
  H20      1.0000 0.90380  0.09040  0.96060  Biso   1.000  H
  H21      1.0000 0.40380  0.40960  0.46060  Biso   1.000  H
  H22      1.0000 0.90380  0.90960  0.46060  Biso   1.000  H
  H23      1.0000 0.59620  0.40960  0.03940  Biso   1.000  H
  H24      1.0000 0.09620  0.90960  0.03940  Biso   1.000  H
  H25      1.0000 0.59270  0.58160  0.67230  Biso   1.000  H
  H26      1.0000 0.09270  0.08160  0.67230  Biso   1.000  H
  H27      1.0000 0.40730  0.58160  0.82770  Biso   1.000  H
  H28      1.0000 0.90730  0.08160  0.82770  Biso   1.000  H
  H29      1.0000 0.40730  0.41840  0.32770  Biso   1.000  H
  H30      1.0000 0.90730  0.91840  0.32770  Biso   1.000  H
  H31      1.0000 0.59270  0.41840  0.17230  Biso   1.000  H
  H32      1.0000 0.09270  0.91840  0.17230  Biso   1.000  H
  H33      1.0000 0.73700  0.62690  0.75490  Biso   1.000  H
  H34      1.0000 0.23700  0.12690  0.75490  Biso   1.000  H
  H35      1.0000 0.26300  0.62690  0.74510  Biso   1.000  H
  H36      1.0000 0.76300  0.12690  0.74510  Biso   1.000  H
  H37      1.0000 0.26300  0.37310  0.24510  Biso   1.000  H
  H38      1.0000 0.76300  0.87310  0.24510  Biso   1.000  H
  H39      1.0000 0.73700  0.37310  0.25490  Biso   1.000  H
  H40      1.0000 0.23700  0.87310  0.25490  Biso   1.000  H
  H41      1.0000 0.23610  0.81580  0.71240  Biso   1.000  H
  H42      1.0000 0.73610  0.31580  0.71240  Biso   1.000  H
  H43      1.0000 0.76390  0.81580  0.78760  Biso   1.000  H
  H44      1.0000 0.26390  0.31580  0.78760  Biso   1.000  H
  H45      1.0000 0.76390  0.18420  0.28760  Biso   1.000  H
  H46      1.0000 0.26390  0.68420  0.28760  Biso   1.000  H
  H47      1.0000 0.23610  0.18420  0.21240  Biso   1.000  H
  H48      1.0000 0.73610  0.68420  0.21240  Biso   1.000  H
  H49      1.0000 0.30450  0.89920  0.61470  Biso   1.000  H
  H50      1.0000 0.80450  0.39920  0.61470  Biso   1.000  H
  H51      1.0000 0.69550  0.89920  0.88530  Biso   1.000  H
  H52      1.0000 0.19550  0.39920  0.88530  Biso   1.000  H
  H53      1.0000 0.69550  0.10080  0.38530  Biso   1.000  H
  H54      1.0000 0.19550  0.60080  0.38530  Biso   1.000  H
  H55      1.0000 0.30450  0.10080  0.11470  Biso   1.000  H
  H56      1.0000 0.80450  0.60080  0.11470  Biso   1.000  H
  H57      1.0000 0.08200  0.77750  0.46690  Biso   1.000  H
  H58      1.0000 0.58200  0.27750  0.46690  Biso   1.000  H
  H59      1.0000 0.91800  0.77750  0.03310  Biso   1.000  H
  H60      1.0000 0.41800  0.27750  0.03310  Biso   1.000  H
  H61      1.0000 0.91800  0.22250  0.53310  Biso   1.000  H
  H62      1.0000 0.41800  0.72250  0.53310  Biso   1.000  H
  H63      1.0000 0.08200  0.22250  0.96690  Biso   1.000  H
  H64      1.0000 0.58200  0.72250  0.96690  Biso   1.000  H
  H65      1.0000 0.21990  0.88390  0.48730  Biso   1.000  H
  H66      1.0000 0.71990  0.38390  0.48730  Biso   1.000  H
  H67      1.0000 0.78010  0.88390  0.01270  Biso   1.000  H
  H68      1.0000 0.28010  0.38390  0.01270  Biso   1.000  H
  H69      1.0000 0.78010  0.11610  0.51270  Biso   1.000  H
  H70      1.0000 0.28010  0.61610  0.51270  Biso   1.000  H
  H71      1.0000 0.21990  0.11610  0.98730  Biso   1.000  H
  H72      1.0000 0.71990  0.61610  0.98730  Biso   1.000  H
  H73      1.0000 0.91100  0.70000  0.29590  Biso   1.000  H
  H74      1.0000 0.41100  0.20000  0.29590  Biso   1.000  H
  H75      1.0000 0.08900  0.70000  0.20410  Biso   1.000  H
  H76      1.0000 0.58900  0.20000  0.20410  Biso   1.000  H
  H77      1.0000 0.08900  0.30000  0.70410  Biso   1.000  H
  H78      1.0000 0.58900  0.80000  0.70410  Biso   1.000  H
  H79      1.0000 0.91100  0.30000  0.79590  Biso   1.000  H
  H80      1.0000 0.41100  0.80000  0.79590  Biso   1.000  H
  H81      1.0000 0.94800  0.54340  0.22870  Biso   1.000  H
  H82      1.0000 0.44800  0.04340  0.22870  Biso   1.000  H
  H83      1.0000 0.05200  0.54340  0.27130  Biso   1.000  H
  H84      1.0000 0.55200  0.04340  0.27130  Biso   1.000  H
  H85      1.0000 0.05200  0.45660  0.77130  Biso   1.000  H
  H86      1.0000 0.55200  0.95660  0.77130  Biso   1.000  H
  H87      1.0000 0.94800  0.45660  0.72870  Biso   1.000  H
  H88      1.0000 0.44800  0.95660  0.72870  Biso   1.000  H
  H89      1.0000 0.01920  0.71300  0.33260  Biso   1.000  H
  H90      1.0000 0.51920  0.21300  0.33260  Biso   1.000  H
  H91      1.0000 0.98080  0.71300  0.16740  Biso   1.000  H
  H92      1.0000 0.48080  0.21300  0.16740  Biso   1.000  H
  H93      1.0000 0.98080  0.28700  0.66740  Biso   1.000  H
  H94      1.0000 0.48080  0.78700  0.66740  Biso   1.000  H
  H95      1.0000 0.01920  0.28700  0.83260  Biso   1.000  H
  H96      1.0000 0.51920  0.78700  0.83260  Biso   1.000  H
