data_image0
_cell_length_a       9.8529
_cell_length_b       10.1438
_cell_length_c       10.4442
_cell_angle_alpha    78.814
_cell_angle_beta     66.044
_cell_angle_gamma    64.306

_symmetry_space_group_name_H-M    "P 1"
_symmetry_int_tables_number       1

loop_
  _symmetry_equiv_pos_as_xyz
  'x, y, z'

loop_
  _atom_site_label
  _atom_site_occupancy
  _atom_site_fract_x
  _atom_site_fract_y
  _atom_site_fract_z
  _atom_site_thermal_displace_type
  _atom_site_B_iso_or_equiv
  _atom_site_type_symbol
  Cu1      1.0000 0.17954  0.22670  0.35288  Biso   1.000  Cu
  Cu2      1.0000 0.82046  0.77330  0.64712  Biso   1.000  Cu
  P1       1.0000 0.37629  0.43194  0.21656  Biso   1.000  P
  P2       1.0000 0.62371  0.56806  0.78344  Biso   1.000  P
  F1       1.0000 0.54288  0.60001  0.50660  Biso   1.000  F
  F2       1.0000 0.45712  0.39999  0.49340  Biso   1.000  F
  F3       1.0000 0.65174  0.11420  0.40609  Biso   1.000  F
  F4       1.0000 0.34826  0.88580  0.59391  Biso   1.000  F
  F5       1.0000 0.25218  0.69457  0.54394  Biso   1.000  F
  F6       1.0000 0.74782  0.30543  0.45606  Biso   1.000  F
  O1       1.0000 0.23510  0.38697  0.26032  Biso   1.000  O
  O2       1.0000 0.76490  0.61303  0.73968  Biso   1.000  O
  O3       1.0000 0.32418  0.57116  0.29483  Biso   1.000  O
  O4       1.0000 0.67582  0.42884  0.70517  Biso   1.000  O
  O5       1.0000 0.85670  0.21240  0.19061  Biso   1.000  O
  O6       1.0000 0.14330  0.78760  0.80939  Biso   1.000  O
  O7       1.0000 0.63440  0.49178  0.26431  Biso   1.000  O
  O8       1.0000 0.36560  0.50822  0.73569  Biso   1.000  O
  O9       1.0000 0.44520  0.76835  0.29383  Biso   1.000  O
  O10      1.0000 0.55480  0.23165  0.70617  Biso   1.000  O
  O11      1.0000 0.52606  0.30855  0.23519  Biso   1.000  O
  O12      1.0000 0.47394  0.69145  0.76481  Biso   1.000  O
  O13      1.0000 0.41620  0.06520  0.36362  Biso   1.000  O
  O14      1.0000 0.58380  0.93480  0.63638  Biso   1.000  O
  N1       1.0000 0.20460  0.14190  0.18240  Biso   1.000  N
  N2       1.0000 0.79540  0.85810  0.81760  Biso   1.000  N
  N3       1.0000 0.08400  0.08200  0.44220  Biso   1.000  N
  N4       1.0000 0.91600  0.91800  0.55780  Biso   1.000  N
  N5       1.0000 0.90700  0.71860  0.44700  Biso   1.000  N
  N6       1.0000 0.09300  0.28140  0.55300  Biso   1.000  N
  C1       1.0000 0.28310  0.17480  0.04990  Biso   1.000  C
  C2       1.0000 0.71690  0.82520  0.95010  Biso   1.000  C
  C3       1.0000 0.34420  0.08320  0.94070  Biso   1.000  C
  C4       1.0000 0.65580  0.91680  0.05930  Biso   1.000  C
  C5       1.0000 0.33380  0.94860  0.96950  Biso   1.000  C
  C6       1.0000 0.66620  0.05140  0.03050  Biso   1.000  C
  C7       1.0000 0.25280  0.91300  0.10650  Biso   1.000  C
  C8       1.0000 0.74720  0.08700  0.89350  Biso   1.000  C
  C9       1.0000 0.18240  0.01590  0.20890  Biso   1.000  C
  C10      1.0000 0.81760  0.98410  0.79110  Biso   1.000  C
  C11      1.0000 0.08300  0.99880  0.35780  Biso   1.000  C
  C12      1.0000 0.91700  0.00120  0.64220  Biso   1.000  C
  C13      1.0000 0.99000  0.91420  0.41850  Biso   1.000  C
  C14      1.0000 0.01000  0.08580  0.58150  Biso   1.000  C
  C15      1.0000 0.95820  0.81700  0.35420  Biso   1.000  C
  C16      1.0000 0.04180  0.18300  0.64580  Biso   1.000  C
  C17      1.0000 0.96840  0.82640  0.21660  Biso   1.000  C
  C18      1.0000 0.03160  0.17360  0.78340  Biso   1.000  C
  C19      1.0000 0.94230  0.72230  0.16990  Biso   1.000  C
  C20      1.0000 0.05770  0.27770  0.83010  Biso   1.000  C
  C21      1.0000 0.89740  0.61900  0.26310  Biso   1.000  C
  C22      1.0000 0.10260  0.38100  0.73690  Biso   1.000  C
  C23      1.0000 0.87660  0.62340  0.40230  Biso   1.000  C
  C24      1.0000 0.12340  0.37660  0.59770  Biso   1.000  C
  C25      1.0000 0.42660  0.47870  0.03240  Biso   1.000  C
  C26      1.0000 0.57340  0.52130  0.96760  Biso   1.000  C
  H1       1.0000 0.29200  0.25900  0.04100  Biso   1.000  H
  H2       1.0000 0.70800  0.74100  0.95900  Biso   1.000  H
  H3       1.0000 0.39100  0.11400  0.85300  Biso   1.000  H
  H4       1.0000 0.60900  0.88600  0.14700  Biso   1.000  H
  H5       1.0000 0.38200  0.88300  0.89800  Biso   1.000  H
  H6       1.0000 0.61800  0.11700  0.10200  Biso   1.000  H
  H7       1.0000 0.25300  0.81900  0.12900  Biso   1.000  H
  H8       1.0000 0.74700  0.18100  0.87100  Biso   1.000  H
  H9       1.0000 0.99200  0.89400  0.15800  Biso   1.000  H
  H10      1.0000 0.00800  0.10600  0.84200  Biso   1.000  H
  H11      1.0000 0.96300  0.72300  0.07300  Biso   1.000  H
  H12      1.0000 0.03700  0.27700  0.92700  Biso   1.000  H
  H13      1.0000 0.88100  0.54200  0.23100  Biso   1.000  H
  H14      1.0000 0.11900  0.45800  0.76900  Biso   1.000  H
  H15      1.0000 0.84800  0.56000  0.45900  Biso   1.000  H
  H16      1.0000 0.15200  0.44000  0.54100  Biso   1.000  H
  H17      1.0000 0.33300  0.55300  0.02300  Biso   1.000  H
  H18      1.0000 0.66700  0.44700  0.97700  Biso   1.000  H
  H19      1.0000 0.44200  0.39300  0.98300  Biso   1.000  H
  H20      1.0000 0.55800  0.60700  0.01700  Biso   1.000  H
  H21      1.0000 0.40500  0.99800  0.43100  Biso   1.000  H
  H22      1.0000 0.59500  0.00200  0.56900  Biso   1.000  H
  H23      1.0000 0.47200  0.09300  0.37900  Biso   1.000  H
  H24      1.0000 0.52800  0.90700  0.62100  Biso   1.000  H
  V1       1.0000 0.45040  0.61461  0.36822  Biso   1.000  V
  V2       1.0000 0.54960  0.38539  0.63178  Biso   1.000  V
  V3       1.0000 0.68857  0.28227  0.31647  Biso   1.000  V
  V4       1.0000 0.31143  0.71773  0.68353  Biso   1.000  V
