data_image0
_cell_length_a       7.3206
_cell_length_b       18.2483
_cell_length_c       10.1331
_cell_angle_alpha    90
_cell_angle_beta     94.681
_cell_angle_gamma    90

_symmetry_space_group_name_H-M    "P 1"
_symmetry_int_tables_number       1

loop_
  _symmetry_equiv_pos_as_xyz
  'x, y, z'

loop_
  _atom_site_label
  _atom_site_occupancy
  _atom_site_fract_x
  _atom_site_fract_y
  _atom_site_fract_z
  _atom_site_thermal_displace_type
  _atom_site_B_iso_or_equiv
  _atom_site_type_symbol
  Cu1      1.0000 0.13363  0.09291  0.78259  Biso   1.000  Cu
  Cu2      1.0000 0.36637  0.59291  0.71741  Biso   1.000  Cu
  Cu3      1.0000 0.86637  0.90708  0.21741  Biso   1.000  Cu
  Cu4      1.0000 0.63363  0.40709  0.28259  Biso   1.000  Cu
  Cu5      1.0000 0.94949  0.06849  0.06483  Biso   1.000  Cu
  Cu6      1.0000 0.55051  0.56849  0.43517  Biso   1.000  Cu
  Cu7      1.0000 0.05051  0.93151  0.93517  Biso   1.000  Cu
  Cu8      1.0000 0.44949  0.43151  0.56483  Biso   1.000  Cu
  S1       1.0000 0.11453  0.43372  0.30501  Biso   1.000  S
  S2       1.0000 0.38547  0.93372  0.19499  Biso   1.000  S
  S3       1.0000 0.88547  0.56628  0.69499  Biso   1.000  S
  S4       1.0000 0.61453  0.06628  0.80501  Biso   1.000  S
  O1       1.0000 0.04570  0.16777  0.08400  Biso   1.000  O
  O2       1.0000 0.45430  0.66777  0.41600  Biso   1.000  O
  O3       1.0000 0.95430  0.83223  0.91600  Biso   1.000  O
  O4       1.0000 0.54570  0.33223  0.58400  Biso   1.000  O
  O5       1.0000 0.13190  0.03517  0.94600  Biso   1.000  O
  O6       1.0000 0.36810  0.53517  0.55400  Biso   1.000  O
  O7       1.0000 0.86810  0.96483  0.05400  Biso   1.000  O
  O8       1.0000 0.63190  0.46483  0.44600  Biso   1.000  O
  O9       1.0000 0.33780  0.51029  0.83360  Biso   1.000  O
  O10      1.0000 0.16220  0.01029  0.66640  Biso   1.000  O
  O11      1.0000 0.66220  0.48971  0.16640  Biso   1.000  O
  O12      1.0000 0.83780  0.98971  0.33360  Biso   1.000  O
  O13      1.0000 0.11560  0.18494  0.87340  Biso   1.000  O
  O14      1.0000 0.38440  0.68494  0.62660  Biso   1.000  O
  O15      1.0000 0.88440  0.81506  0.12660  Biso   1.000  O
  O16      1.0000 0.61560  0.31506  0.37340  Biso   1.000  O
  O17      1.0000 0.10980  0.51258  0.29270  Biso   1.000  O
  O18      1.0000 0.39020  0.01258  0.20730  Biso   1.000  O
  O19      1.0000 0.89020  0.48742  0.70730  Biso   1.000  O
  O20      1.0000 0.60980  0.98742  0.79270  Biso   1.000  O
  O21      1.0000 0.29790  0.40956  0.70540  Biso   1.000  O
  O22      1.0000 0.20210  0.90956  0.79460  Biso   1.000  O
  O23      1.0000 0.70210  0.59044  0.29460  Biso   1.000  O
  O24      1.0000 0.79790  0.09044  0.20540  Biso   1.000  O
  O25      1.0000 0.28020  0.40655  0.37910  Biso   1.000  O
  O26      1.0000 0.21980  0.90655  0.12090  Biso   1.000  O
  O27      1.0000 0.71980  0.59345  0.62090  Biso   1.000  O
  O28      1.0000 0.78020  0.09345  0.87910  Biso   1.000  O
  O29      1.0000 0.95120  0.40277  0.35730  Biso   1.000  O
  O30      1.0000 0.54880  0.90277  0.14270  Biso   1.000  O
  O31      1.0000 0.04880  0.59723  0.64270  Biso   1.000  O
  O32      1.0000 0.45120  0.09723  0.85730  Biso   1.000  O
  C1       1.0000 0.12870  0.39522  0.14680  Biso   1.000  C
  C2       1.0000 0.37130  0.89522  0.35320  Biso   1.000  C
  C3       1.0000 0.87130  0.60478  0.85320  Biso   1.000  C
  C4       1.0000 0.62870  0.10478  0.64680  Biso   1.000  C
  C5       1.0000 0.21900  0.40313  0.92430  Biso   1.000  C
  C6       1.0000 0.28100  0.90313  0.57570  Biso   1.000  C
  C7       1.0000 0.78100  0.59687  0.07570  Biso   1.000  C
  C8       1.0000 0.71900  0.09687  0.42430  Biso   1.000  C
  C9       1.0000 0.18730  0.32832  0.91010  Biso   1.000  C
  C10      1.0000 0.31270  0.82832  0.58990  Biso   1.000  C
  C11      1.0000 0.81270  0.67168  0.08990  Biso   1.000  C
  C12      1.0000 0.68730  0.17168  0.41010  Biso   1.000  C
  H1       1.0000 0.20880  0.30560  0.83060  Biso   1.000  H
  H2       1.0000 0.29120  0.80560  0.66940  Biso   1.000  H
  H3       1.0000 0.79120  0.69440  0.16940  Biso   1.000  H
  H4       1.0000 0.70880  0.19440  0.33060  Biso   1.000  H
  C13      1.0000 0.12420  0.28664  0.01200  Biso   1.000  C
  C14      1.0000 0.37580  0.78664  0.48800  Biso   1.000  C
  C15      1.0000 0.87580  0.71336  0.98800  Biso   1.000  C
  C16      1.0000 0.62420  0.21336  0.51200  Biso   1.000  C
  C17      1.0000 0.09230  0.20642  0.98910  Biso   1.000  C
  C18      1.0000 0.40770  0.70642  0.51090  Biso   1.000  C
  C19      1.0000 0.90770  0.79358  0.01090  Biso   1.000  C
  C20      1.0000 0.59230  0.29358  0.48910  Biso   1.000  C
  C21      1.0000 0.09270  0.32002  0.13100  Biso   1.000  C
  C22      1.0000 0.40730  0.82002  0.36900  Biso   1.000  C
  C23      1.0000 0.90730  0.67998  0.86900  Biso   1.000  C
  C24      1.0000 0.59270  0.17998  0.63100  Biso   1.000  C
  H5       1.0000 0.04850  0.29300  0.19940  Biso   1.000  H
  H6       1.0000 0.45150  0.79300  0.30060  Biso   1.000  H
  H7       1.0000 0.95150  0.70700  0.80060  Biso   1.000  H
  H8       1.0000 0.54850  0.20700  0.69940  Biso   1.000  H
  C25      1.0000 0.18950  0.43717  0.04490  Biso   1.000  C
  C26      1.0000 0.31050  0.93717  0.45510  Biso   1.000  C
  C27      1.0000 0.81050  0.56283  0.95510  Biso   1.000  C
  C28      1.0000 0.68950  0.06283  0.54490  Biso   1.000  C
  H9       1.0000 0.21050  0.48710  0.05640  Biso   1.000  H
  H10      1.0000 0.28950  0.98710  0.44360  Biso   1.000  H
  H11      1.0000 0.78950  0.51290  0.94360  Biso   1.000  H
  H12      1.0000 0.71050  0.01290  0.55640  Biso   1.000  H
  C29      1.0000 0.28980  0.44479  0.81250  Biso   1.000  C
  C30      1.0000 0.21020  0.94479  0.68750  Biso   1.000  C
  C31      1.0000 0.71020  0.55521  0.18750  Biso   1.000  C
  C32      1.0000 0.78980  0.05521  0.31250  Biso   1.000  C
  O33      1.0000 0.11050  0.15145  0.62000  Biso   1.000  O
  O34      1.0000 0.38950  0.65145  0.88000  Biso   1.000  O
  O35      1.0000 0.88950  0.84855  0.38000  Biso   1.000  O
  O36      1.0000 0.61050  0.34855  0.12000  Biso   1.000  O
  O37      1.0000 0.03860  0.29857  0.58180  Biso   1.000  O
  O38      1.0000 0.46140  0.79857  0.91820  Biso   1.000  O
  O39      1.0000 0.96140  0.70143  0.41820  Biso   1.000  O
  O40      1.0000 0.53860  0.20143  0.08180  Biso   1.000  O
  O41      1.0000 0.20440  0.12610  0.35920  Biso   1.000  O
  O42      1.0000 0.29560  0.62610  0.14080  Biso   1.000  O
  O43      1.0000 0.79560  0.87390  0.64080  Biso   1.000  O
  O44      1.0000 0.70440  0.37390  0.85920  Biso   1.000  O
