data_image0
_cell_length_a       7.3033
_cell_length_b       18.261
_cell_length_c       10.1272
_cell_angle_alpha    90
_cell_angle_beta     94.841
_cell_angle_gamma    90

_symmetry_space_group_name_H-M    "P 1"
_symmetry_int_tables_number       1

loop_
  _symmetry_equiv_pos_as_xyz
  'x, y, z'

loop_
  _atom_site_label
  _atom_site_occupancy
  _atom_site_fract_x
  _atom_site_fract_y
  _atom_site_fract_z
  _atom_site_thermal_displace_type
  _atom_site_B_iso_or_equiv
  _atom_site_type_symbol
  Cu1      1.0000 0.13363  0.09261  0.78281  Biso   1.000  Cu
  Cu2      1.0000 0.36637  0.59261  0.71719  Biso   1.000  Cu
  Cu3      1.0000 0.86637  0.90739  0.21719  Biso   1.000  Cu
  Cu4      1.0000 0.63363  0.40739  0.28281  Biso   1.000  Cu
  Cu5      1.0000 0.94882  0.06849  0.06442  Biso   1.000  Cu
  Cu6      1.0000 0.55118  0.56849  0.43558  Biso   1.000  Cu
  Cu7      1.0000 0.05118  0.93151  0.93558  Biso   1.000  Cu
  Cu8      1.0000 0.44882  0.43151  0.56442  Biso   1.000  Cu
  S1       1.0000 0.11412  0.43364  0.30413  Biso   1.000  S
  S2       1.0000 0.38588  0.93364  0.19587  Biso   1.000  S
  S3       1.0000 0.88588  0.56636  0.69587  Biso   1.000  S
  S4       1.0000 0.61412  0.06636  0.80413  Biso   1.000  S
  O1       1.0000 0.04480  0.16763  0.08385  Biso   1.000  O
  O2       1.0000 0.45520  0.66763  0.41615  Biso   1.000  O
  O3       1.0000 0.95520  0.83237  0.91615  Biso   1.000  O
  O4       1.0000 0.54480  0.33237  0.58385  Biso   1.000  O
  O5       1.0000 0.13280  0.03497  0.94676  Biso   1.000  O
  O6       1.0000 0.36720  0.53497  0.55324  Biso   1.000  O
  O7       1.0000 0.86720  0.96503  0.05324  Biso   1.000  O
  O8       1.0000 0.63280  0.46503  0.44676  Biso   1.000  O
  O9       1.0000 0.33730  0.50976  0.83296  Biso   1.000  O
  O10      1.0000 0.16270  0.00976  0.66704  Biso   1.000  O
  O11      1.0000 0.66270  0.49024  0.16704  Biso   1.000  O
  O12      1.0000 0.83730  0.99024  0.33296  Biso   1.000  O
  O13      1.0000 0.11600  0.18453  0.87308  Biso   1.000  O
  O14      1.0000 0.38400  0.68453  0.62692  Biso   1.000  O
  O15      1.0000 0.88400  0.81547  0.12692  Biso   1.000  O
  O16      1.0000 0.61600  0.31547  0.37308  Biso   1.000  O
  O17      1.0000 0.10810  0.51254  0.29176  Biso   1.000  O
  O18      1.0000 0.39190  0.01254  0.20824  Biso   1.000  O
  O19      1.0000 0.89190  0.48746  0.70824  Biso   1.000  O
  O20      1.0000 0.60810  0.98746  0.79176  Biso   1.000  O
  O21      1.0000 0.29570  0.40936  0.70412  Biso   1.000  O
  O22      1.0000 0.20430  0.90936  0.79588  Biso   1.000  O
  O23      1.0000 0.70430  0.59064  0.29588  Biso   1.000  O
  O24      1.0000 0.79570  0.09064  0.20412  Biso   1.000  O
  O25      1.0000 0.28130  0.40682  0.37745  Biso   1.000  O
  O26      1.0000 0.21870  0.90682  0.12255  Biso   1.000  O
  O27      1.0000 0.71870  0.59318  0.62255  Biso   1.000  O
  O28      1.0000 0.78130  0.09318  0.87745  Biso   1.000  O
  O29      1.0000 0.95170  0.40223  0.35751  Biso   1.000  O
  O30      1.0000 0.54830  0.90223  0.14249  Biso   1.000  O
  O31      1.0000 0.04830  0.59777  0.64249  Biso   1.000  O
  O32      1.0000 0.45170  0.09777  0.85751  Biso   1.000  O
  C1       1.0000 0.12680  0.39514  0.14500  Biso   1.000  C
  C2       1.0000 0.37320  0.89514  0.35500  Biso   1.000  C
  C3       1.0000 0.87320  0.60486  0.85500  Biso   1.000  C
  C4       1.0000 0.62680  0.10486  0.64500  Biso   1.000  C
  C5       1.0000 0.21760  0.40287  0.92360  Biso   1.000  C
  C6       1.0000 0.28240  0.90287  0.57640  Biso   1.000  C
  C7       1.0000 0.78240  0.59713  0.07640  Biso   1.000  C
  C8       1.0000 0.71760  0.09713  0.42360  Biso   1.000  C
  C9       1.0000 0.18660  0.32780  0.90870  Biso   1.000  C
  C10      1.0000 0.31340  0.82780  0.59130  Biso   1.000  C
  C11      1.0000 0.81340  0.67220  0.09130  Biso   1.000  C
  C12      1.0000 0.68660  0.17220  0.40870  Biso   1.000  C
  H1       1.0000 0.20860  0.30500  0.82950  Biso   1.000  H
  H2       1.0000 0.29140  0.80500  0.67050  Biso   1.000  H
  H3       1.0000 0.79140  0.69500  0.17050  Biso   1.000  H
  H4       1.0000 0.70860  0.19500  0.32950  Biso   1.000  H
  C13      1.0000 0.12290  0.28653  0.01140  Biso   1.000  C
  C14      1.0000 0.37710  0.78653  0.48860  Biso   1.000  C
  C15      1.0000 0.87710  0.71347  0.98860  Biso   1.000  C
  C16      1.0000 0.62290  0.21347  0.51140  Biso   1.000  C
  C17      1.0000 0.09190  0.20627  0.98860  Biso   1.000  C
  C18      1.0000 0.40810  0.70627  0.51140  Biso   1.000  C
  C19      1.0000 0.90810  0.79373  0.01140  Biso   1.000  C
  C20      1.0000 0.59190  0.29373  0.48860  Biso   1.000  C
  C21      1.0000 0.09110  0.32006  0.13060  Biso   1.000  C
  C22      1.0000 0.40890  0.82006  0.36940  Biso   1.000  C
  C23      1.0000 0.90890  0.67994  0.86940  Biso   1.000  C
  C24      1.0000 0.59110  0.17994  0.63060  Biso   1.000  C
  H5       1.0000 0.04710  0.29320  0.19920  Biso   1.000  H
  H6       1.0000 0.45290  0.79320  0.30080  Biso   1.000  H
  H7       1.0000 0.95290  0.70680  0.80080  Biso   1.000  H
  H8       1.0000 0.54710  0.20680  0.69920  Biso   1.000  H
  C25      1.0000 0.18860  0.43694  0.04400  Biso   1.000  C
  C26      1.0000 0.31140  0.93694  0.45600  Biso   1.000  C
  C27      1.0000 0.81140  0.56306  0.95600  Biso   1.000  C
  C28      1.0000 0.68860  0.06306  0.54400  Biso   1.000  C
  H9       1.0000 0.21060  0.48680  0.05580  Biso   1.000  H
  H10      1.0000 0.28940  0.98680  0.44420  Biso   1.000  H
  H11      1.0000 0.78940  0.51320  0.94420  Biso   1.000  H
  H12      1.0000 0.71060  0.01320  0.55580  Biso   1.000  H
  C29      1.0000 0.28840  0.44434  0.81150  Biso   1.000  C
  C30      1.0000 0.21160  0.94434  0.68850  Biso   1.000  C
  C31      1.0000 0.71160  0.55566  0.18850  Biso   1.000  C
  C32      1.0000 0.78840  0.05566  0.31150  Biso   1.000  C
  O33      1.0000 0.10890  0.15074  0.61891  Biso   1.000  O
  O34      1.0000 0.39110  0.65074  0.88109  Biso   1.000  O
  O35      1.0000 0.89110  0.84926  0.38109  Biso   1.000  O
  O36      1.0000 0.60890  0.34926  0.11891  Biso   1.000  O
  O37      1.0000 0.04060  0.29784  0.58010  Biso   1.000  O
  O38      1.0000 0.45940  0.79784  0.91990  Biso   1.000  O
  O39      1.0000 0.95940  0.70216  0.41990  Biso   1.000  O
  O40      1.0000 0.54060  0.20216  0.08010  Biso   1.000  O
  O41      1.0000 0.20190  0.12455  0.35800  Biso   1.000  O
  O42      1.0000 0.29810  0.62455  0.14200  Biso   1.000  O
  O43      1.0000 0.79810  0.87545  0.64200  Biso   1.000  O
  O44      1.0000 0.70190  0.37545  0.85800  Biso   1.000  O
