data_image0
_cell_length_a       7.3378
_cell_length_b       18.201
_cell_length_c       10.1447
_cell_angle_alpha    90
_cell_angle_beta     94.393
_cell_angle_gamma    90

_symmetry_space_group_name_H-M    "P 1"
_symmetry_int_tables_number       1

loop_
  _symmetry_equiv_pos_as_xyz
  'x, y, z'

loop_
  _atom_site_label
  _atom_site_occupancy
  _atom_site_fract_x
  _atom_site_fract_y
  _atom_site_fract_z
  _atom_site_thermal_displace_type
  _atom_site_B_iso_or_equiv
  _atom_site_type_symbol
  Cu1      1.0000 0.13348  0.09399  0.78213  Biso   1.000  Cu
  Cu2      1.0000 0.36652  0.59399  0.71787  Biso   1.000  Cu
  Cu3      1.0000 0.86652  0.90601  0.21787  Biso   1.000  Cu
  Cu4      1.0000 0.63348  0.40601  0.28213  Biso   1.000  Cu
  Cu5      1.0000 0.95263  0.06843  0.06671  Biso   1.000  Cu
  Cu6      1.0000 0.54737  0.56843  0.43329  Biso   1.000  Cu
  Cu7      1.0000 0.04737  0.93157  0.93329  Biso   1.000  Cu
  Cu8      1.0000 0.45263  0.43157  0.56671  Biso   1.000  Cu
  S1       1.0000 0.11687  0.43423  0.30830  Biso   1.000  S
  S2       1.0000 0.38313  0.93423  0.19170  Biso   1.000  S
  S3       1.0000 0.88313  0.56577  0.69170  Biso   1.000  S
  S4       1.0000 0.61687  0.06577  0.80830  Biso   1.000  S
  O1       1.0000 0.04840  0.16793  0.08470  Biso   1.000  O
  O2       1.0000 0.45160  0.66793  0.41530  Biso   1.000  O
  O3       1.0000 0.95160  0.83207  0.91530  Biso   1.000  O
  O4       1.0000 0.54840  0.33207  0.58470  Biso   1.000  O
  O5       1.0000 0.12920  0.03527  0.94370  Biso   1.000  O
  O6       1.0000 0.37080  0.53527  0.55630  Biso   1.000  O
  O7       1.0000 0.87080  0.96473  0.05630  Biso   1.000  O
  O8       1.0000 0.62920  0.46473  0.44370  Biso   1.000  O
  O9       1.0000 0.34030  0.51181  0.83660  Biso   1.000  O
  O10      1.0000 0.15970  0.01181  0.66340  Biso   1.000  O
  O11      1.0000 0.65970  0.48819  0.16340  Biso   1.000  O
  O12      1.0000 0.84030  0.98819  0.33660  Biso   1.000  O
  O13      1.0000 0.11630  0.18594  0.87430  Biso   1.000  O
  O14      1.0000 0.38370  0.68594  0.62570  Biso   1.000  O
  O15      1.0000 0.88370  0.81406  0.12570  Biso   1.000  O
  O16      1.0000 0.61630  0.31406  0.37430  Biso   1.000  O
  O17      1.0000 0.11730  0.51287  0.29710  Biso   1.000  O
  O18      1.0000 0.38270  0.01287  0.20290  Biso   1.000  O
  O19      1.0000 0.88270  0.48713  0.70290  Biso   1.000  O
  O20      1.0000 0.61730  0.98713  0.79710  Biso   1.000  O
  O21      1.0000 0.30680  0.41021  0.71090  Biso   1.000  O
  O22      1.0000 0.19320  0.91021  0.78910  Biso   1.000  O
  O23      1.0000 0.69320  0.58979  0.28910  Biso   1.000  O
  O24      1.0000 0.80680  0.08979  0.21090  Biso   1.000  O
  O25      1.0000 0.27550  0.40485  0.38450  Biso   1.000  O
  O26      1.0000 0.22450  0.90485  0.11550  Biso   1.000  O
  O27      1.0000 0.72450  0.59515  0.61550  Biso   1.000  O
  O28      1.0000 0.77550  0.09515  0.88450  Biso   1.000  O
  O29      1.0000 0.95050  0.40431  0.35730  Biso   1.000  O
  O30      1.0000 0.54950  0.90431  0.14270  Biso   1.000  O
  O31      1.0000 0.04950  0.59569  0.64270  Biso   1.000  O
  O32      1.0000 0.45050  0.09569  0.85730  Biso   1.000  O
  C1       1.0000 0.13450  0.39542  0.14990  Biso   1.000  C
  C2       1.0000 0.36550  0.89542  0.35010  Biso   1.000  C
  C3       1.0000 0.86550  0.60458  0.85010  Biso   1.000  C
  C4       1.0000 0.63450  0.10458  0.64990  Biso   1.000  C
  C5       1.0000 0.22570  0.40387  0.92810  Biso   1.000  C
  C6       1.0000 0.27430  0.90387  0.57190  Biso   1.000  C
  C7       1.0000 0.77430  0.59613  0.07190  Biso   1.000  C
  C8       1.0000 0.72570  0.09613  0.42810  Biso   1.000  C
  C9       1.0000 0.19240  0.32881  0.91290  Biso   1.000  C
  C10      1.0000 0.30760  0.82881  0.58710  Biso   1.000  C
  C11      1.0000 0.80760  0.67119  0.08710  Biso   1.000  C
  C12      1.0000 0.69240  0.17119  0.41290  Biso   1.000  C
  H1       1.0000 0.21350  0.30620  0.83320  Biso   1.000  H
  H2       1.0000 0.28650  0.80620  0.66680  Biso   1.000  H
  H3       1.0000 0.78650  0.69380  0.16680  Biso   1.000  H
  H4       1.0000 0.71350  0.19380  0.33320  Biso   1.000  H
  C13      1.0000 0.12870  0.28712  0.01410  Biso   1.000  C
  C14      1.0000 0.37130  0.78712  0.48590  Biso   1.000  C
  C15      1.0000 0.87130  0.71288  0.98590  Biso   1.000  C
  C16      1.0000 0.62870  0.21288  0.51410  Biso   1.000  C
  C17      1.0000 0.09450  0.20696  0.99020  Biso   1.000  C
  C18      1.0000 0.40550  0.70696  0.50980  Biso   1.000  C
  C19      1.0000 0.90550  0.79304  0.00980  Biso   1.000  C
  C20      1.0000 0.59450  0.29304  0.49020  Biso   1.000  C
  C21      1.0000 0.09760  0.32044  0.13380  Biso   1.000  C
  C22      1.0000 0.40240  0.82044  0.36620  Biso   1.000  C
  C23      1.0000 0.90240  0.67956  0.86620  Biso   1.000  C
  C24      1.0000 0.59760  0.17956  0.63380  Biso   1.000  C
  H5       1.0000 0.05300  0.29330  0.20200  Biso   1.000  H
  H6       1.0000 0.44700  0.79330  0.29800  Biso   1.000  H
  H7       1.0000 0.94700  0.70670  0.79800  Biso   1.000  H
  H8       1.0000 0.55300  0.20670  0.70200  Biso   1.000  H
  C25      1.0000 0.19560  0.43748  0.04880  Biso   1.000  C
  C26      1.0000 0.30440  0.93748  0.45120  Biso   1.000  C
  C27      1.0000 0.80440  0.56252  0.95120  Biso   1.000  C
  C28      1.0000 0.69560  0.06252  0.54880  Biso   1.000  C
  H9       1.0000 0.21650  0.48750  0.06070  Biso   1.000  H
  H10      1.0000 0.28350  0.98750  0.43930  Biso   1.000  H
  H11      1.0000 0.78350  0.51250  0.93930  Biso   1.000  H
  H12      1.0000 0.71650  0.01250  0.56070  Biso   1.000  H
  C29      1.0000 0.29580  0.44574  0.81650  Biso   1.000  C
  C30      1.0000 0.20420  0.94574  0.68350  Biso   1.000  C
  C31      1.0000 0.70420  0.55426  0.18350  Biso   1.000  C
  C32      1.0000 0.79580  0.05426  0.31650  Biso   1.000  C
  O33      1.0000 0.11450  0.15385  0.62170  Biso   1.000  O
  O34      1.0000 0.38550  0.65385  0.87830  Biso   1.000  O
  O35      1.0000 0.88550  0.84615  0.37830  Biso   1.000  O
  O36      1.0000 0.61450  0.34615  0.12170  Biso   1.000  O
  O37      1.0000 0.03750  0.30058  0.58640  Biso   1.000  O
  O38      1.0000 0.46250  0.80058  0.91360  Biso   1.000  O
  O39      1.0000 0.96250  0.69942  0.41360  Biso   1.000  O
  O40      1.0000 0.53750  0.19942  0.08640  Biso   1.000  O
  O41      1.0000 0.21260  0.13060  0.36220  Biso   1.000  O
  O42      1.0000 0.28740  0.63060  0.13780  Biso   1.000  O
  O43      1.0000 0.78740  0.86940  0.63780  Biso   1.000  O
  O44      1.0000 0.71260  0.36940  0.86220  Biso   1.000  O
