data_image0
_cell_length_a       7.3336
_cell_length_b       18.1829
_cell_length_c       10.1252
_cell_angle_alpha    90
_cell_angle_beta     94.493
_cell_angle_gamma    90

_symmetry_space_group_name_H-M    "P 1"
_symmetry_int_tables_number       1

loop_
  _symmetry_equiv_pos_as_xyz
  'x, y, z'

loop_
  _atom_site_label
  _atom_site_occupancy
  _atom_site_fract_x
  _atom_site_fract_y
  _atom_site_fract_z
  _atom_site_thermal_displace_type
  _atom_site_B_iso_or_equiv
  _atom_site_type_symbol
  Cu1      1.0000 0.13323  0.09376  0.78208  Biso   1.000  Cu
  Cu2      1.0000 0.36677  0.59376  0.71792  Biso   1.000  Cu
  Cu3      1.0000 0.86677  0.90624  0.21792  Biso   1.000  Cu
  Cu4      1.0000 0.63323  0.40624  0.28208  Biso   1.000  Cu
  Cu5      1.0000 0.95252  0.06842  0.06664  Biso   1.000  Cu
  Cu6      1.0000 0.54748  0.56842  0.43336  Biso   1.000  Cu
  Cu7      1.0000 0.04748  0.93158  0.93336  Biso   1.000  Cu
  Cu8      1.0000 0.45252  0.43158  0.56664  Biso   1.000  Cu
  S1       1.0000 0.11616  0.43399  0.30802  Biso   1.000  S
  S2       1.0000 0.38384  0.93399  0.19198  Biso   1.000  S
  S3       1.0000 0.88384  0.56601  0.69198  Biso   1.000  S
  S4       1.0000 0.61616  0.06601  0.80802  Biso   1.000  S
  O1       1.0000 0.11550  0.18544  0.87490  Biso   1.000  O
  O2       1.0000 0.38450  0.68544  0.62510  Biso   1.000  O
  O3       1.0000 0.88450  0.81456  0.12510  Biso   1.000  O
  O4       1.0000 0.61550  0.31456  0.37490  Biso   1.000  O
  O5       1.0000 0.03790  0.29980  0.58530  Biso   1.000  O
  O6       1.0000 0.46210  0.79980  0.91470  Biso   1.000  O
  O7       1.0000 0.96210  0.70020  0.41470  Biso   1.000  O
  O8       1.0000 0.53790  0.20020  0.08530  Biso   1.000  O
  H1       1.0000 0.10900  0.33000  0.62200  Biso   1.000  H
  H2       1.0000 0.39100  0.83000  0.87800  Biso   1.000  H
  H3       1.0000 0.89100  0.67000  0.37800  Biso   1.000  H
  H4       1.0000 0.60900  0.17000  0.12200  Biso   1.000  H
  O9       1.0000 0.04750  0.16812  0.08450  Biso   1.000  O
  O10      1.0000 0.45250  0.66812  0.41550  Biso   1.000  O
  O11      1.0000 0.95250  0.83188  0.91550  Biso   1.000  O
  O12      1.0000 0.54750  0.33188  0.58450  Biso   1.000  O
  O13      1.0000 0.21100  0.13120  0.36250  Biso   1.000  O
  O14      1.0000 0.28900  0.63120  0.13750  Biso   1.000  O
  O15      1.0000 0.78900  0.86880  0.63750  Biso   1.000  O
  O16      1.0000 0.71100  0.36880  0.86250  Biso   1.000  O
  H5       1.0000 0.28800  0.10500  0.33300  Biso   1.000  H
  H6       1.0000 0.21200  0.60500  0.16700  Biso   1.000  H
  H7       1.0000 0.71200  0.89500  0.66700  Biso   1.000  H
  H8       1.0000 0.78800  0.39500  0.83300  Biso   1.000  H
  H9       1.0000 0.16000  0.15800  0.30500  Biso   1.000  H
  H10      1.0000 0.34000  0.65800  0.19500  Biso   1.000  H
  H11      1.0000 0.84000  0.84200  0.69500  Biso   1.000  H
  H12      1.0000 0.66000  0.34200  0.80500  Biso   1.000  H
  O17      1.0000 0.34080  0.51144  0.83680  Biso   1.000  O
  O18      1.0000 0.15920  0.01144  0.66320  Biso   1.000  O
  O19      1.0000 0.65920  0.48856  0.16320  Biso   1.000  O
  O20      1.0000 0.84080  0.98856  0.33680  Biso   1.000  O
  O21      1.0000 0.30610  0.40980  0.71010  Biso   1.000  O
  O22      1.0000 0.19390  0.90980  0.78990  Biso   1.000  O
  O23      1.0000 0.69390  0.59020  0.28990  Biso   1.000  O
  O24      1.0000 0.80610  0.09020  0.21010  Biso   1.000  O
  O25      1.0000 0.94930  0.40467  0.35640  Biso   1.000  O
  O26      1.0000 0.55070  0.90467  0.14360  Biso   1.000  O
  O27      1.0000 0.05070  0.59533  0.64360  Biso   1.000  O
  O28      1.0000 0.44930  0.09533  0.85640  Biso   1.000  O
  O29      1.0000 0.27460  0.40470  0.38440  Biso   1.000  O
  O30      1.0000 0.22540  0.90470  0.11560  Biso   1.000  O
  O31      1.0000 0.72540  0.59530  0.61560  Biso   1.000  O
  O32      1.0000 0.77460  0.09530  0.88440  Biso   1.000  O
  O33      1.0000 0.11790  0.51287  0.29630  Biso   1.000  O
  O34      1.0000 0.38210  0.01287  0.20370  Biso   1.000  O
  O35      1.0000 0.88210  0.48713  0.70370  Biso   1.000  O
  O36      1.0000 0.61790  0.98713  0.79630  Biso   1.000  O
  O37      1.0000 0.12840  0.03485  0.94340  Biso   1.000  O
  O38      1.0000 0.37160  0.53485  0.55660  Biso   1.000  O
  O39      1.0000 0.87160  0.96515  0.05660  Biso   1.000  O
  O40      1.0000 0.62840  0.46515  0.44340  Biso   1.000  O
  H13      1.0000 0.23000  0.03600  0.97900  Biso   1.000  H
  H14      1.0000 0.27000  0.53600  0.52100  Biso   1.000  H
  H15      1.0000 0.77000  0.96400  0.02100  Biso   1.000  H
  H16      1.0000 0.73000  0.46400  0.47900  Biso   1.000  H
  O41      1.0000 0.11280  0.15269  0.62150  Biso   1.000  O
  O42      1.0000 0.38720  0.65269  0.87850  Biso   1.000  O
  O43      1.0000 0.88720  0.84731  0.37850  Biso   1.000  O
  O44      1.0000 0.61280  0.34731  0.12150  Biso   1.000  O
  H17      1.0000 0.09200  0.19680  0.61900  Biso   1.000  H
  H18      1.0000 0.40800  0.69680  0.88100  Biso   1.000  H
  H19      1.0000 0.90800  0.80320  0.38100  Biso   1.000  H
  H20      1.0000 0.59200  0.30320  0.11900  Biso   1.000  H
  H21      1.0000 0.15200  0.14000  0.55200  Biso   1.000  H
  H22      1.0000 0.34800  0.64000  0.94800  Biso   1.000  H
  H23      1.0000 0.84800  0.86000  0.44800  Biso   1.000  H
  H24      1.0000 0.65200  0.36000  0.05200  Biso   1.000  H
  C1       1.0000 0.12750  0.28700  0.01410  Biso   1.000  C
  C2       1.0000 0.37250  0.78700  0.48590  Biso   1.000  C
  C3       1.0000 0.87250  0.71300  0.98590  Biso   1.000  C
  C4       1.0000 0.62750  0.21300  0.51410  Biso   1.000  C
  C5       1.0000 0.19190  0.32890  0.91210  Biso   1.000  C
  C6       1.0000 0.30810  0.82890  0.58790  Biso   1.000  C
  C7       1.0000 0.80810  0.67110  0.08790  Biso   1.000  C
  C8       1.0000 0.69190  0.17110  0.41210  Biso   1.000  C
  H25      1.0000 0.21360  0.30640  0.83240  Biso   1.000  H
  H26      1.0000 0.28640  0.80640  0.66760  Biso   1.000  H
  H27      1.0000 0.78640  0.69360  0.16760  Biso   1.000  H
  H28      1.0000 0.71360  0.19360  0.33240  Biso   1.000  H
  C9       1.0000 0.22410  0.40370  0.92790  Biso   1.000  C
  C10      1.0000 0.27590  0.90370  0.57210  Biso   1.000  C
  C11      1.0000 0.77590  0.59630  0.07210  Biso   1.000  C
  C12      1.0000 0.72410  0.09630  0.42790  Biso   1.000  C
  C13      1.0000 0.19560  0.43710  0.04850  Biso   1.000  C
  C14      1.0000 0.30440  0.93710  0.45150  Biso   1.000  C
  C15      1.0000 0.80440  0.56290  0.95150  Biso   1.000  C
  C16      1.0000 0.69560  0.06290  0.54850  Biso   1.000  C
  H29      1.0000 0.21870  0.48700  0.06100  Biso   1.000  H
  H30      1.0000 0.28130  0.98700  0.43900  Biso   1.000  H
  H31      1.0000 0.78130  0.51300  0.93900  Biso   1.000  H
  H32      1.0000 0.71870  0.01300  0.56100  Biso   1.000  H
  C17      1.0000 0.13260  0.39510  0.14930  Biso   1.000  C
  C18      1.0000 0.36740  0.89510  0.35070  Biso   1.000  C
  C19      1.0000 0.86740  0.60490  0.85070  Biso   1.000  C
  C20      1.0000 0.63260  0.10490  0.64930  Biso   1.000  C
  C21      1.0000 0.09800  0.32050  0.13270  Biso   1.000  C
  C22      1.0000 0.40200  0.82050  0.36730  Biso   1.000  C
  C23      1.0000 0.90200  0.67950  0.86730  Biso   1.000  C
  C24      1.0000 0.59800  0.17950  0.63270  Biso   1.000  C
  H33      1.0000 0.05490  0.29320  0.20140  Biso   1.000  H
  H34      1.0000 0.44510  0.79320  0.29860  Biso   1.000  H
  H35      1.0000 0.94510  0.70680  0.79860  Biso   1.000  H
  H36      1.0000 0.55490  0.20680  0.70140  Biso   1.000  H
  C25      1.0000 0.09380  0.20710  0.98940  Biso   1.000  C
  C26      1.0000 0.40620  0.70710  0.51060  Biso   1.000  C
  C27      1.0000 0.90620  0.79290  0.01060  Biso   1.000  C
  C28      1.0000 0.59380  0.29290  0.48940  Biso   1.000  C
  C29      1.0000 0.29570  0.44530  0.81740  Biso   1.000  C
  C30      1.0000 0.20430  0.94530  0.68260  Biso   1.000  C
  C31      1.0000 0.70430  0.55470  0.18260  Biso   1.000  C
  C32      1.0000 0.79570  0.05470  0.31740  Biso   1.000  C
  H37      1.0000 0.05700  0.30300  0.50700  Biso   1.000  H
  H38      1.0000 0.44300  0.80300  0.99300  Biso   1.000  H
  H39      1.0000 0.94300  0.69700  0.49300  Biso   1.000  H
  H40      1.0000 0.55700  0.19700  0.00700  Biso   1.000  H
