data_image0
_cell_length_a       7.306
_cell_length_b       18.111
_cell_length_c       10.205
_cell_angle_alpha    90
_cell_angle_beta     94.248
_cell_angle_gamma    90

_symmetry_space_group_name_H-M    "P 1"
_symmetry_int_tables_number       1

loop_
  _symmetry_equiv_pos_as_xyz
  'x, y, z'

loop_
  _atom_site_label
  _atom_site_occupancy
  _atom_site_fract_x
  _atom_site_fract_y
  _atom_site_fract_z
  _atom_site_thermal_displace_type
  _atom_site_B_iso_or_equiv
  _atom_site_type_symbol
  Cu1      1.0000 0.13542  0.09472  0.78411  Biso   1.000  Cu
  Cu2      1.0000 0.36458  0.59472  0.71589  Biso   1.000  Cu
  Cu3      1.0000 0.86458  0.90528  0.21589  Biso   1.000  Cu
  Cu4      1.0000 0.63542  0.40528  0.28411  Biso   1.000  Cu
  Cu5      1.0000 0.96052  0.06841  0.07022  Biso   1.000  Cu
  Cu6      1.0000 0.53948  0.56841  0.42978  Biso   1.000  Cu
  Cu7      1.0000 0.03948  0.93159  0.92978  Biso   1.000  Cu
  Cu8      1.0000 0.46052  0.43159  0.57022  Biso   1.000  Cu
  S1       1.0000 0.12390  0.43491  0.30958  Biso   1.000  S
  S2       1.0000 0.37610  0.93491  0.19042  Biso   1.000  S
  S3       1.0000 0.87610  0.56509  0.69042  Biso   1.000  S
  S4       1.0000 0.62390  0.06509  0.80958  Biso   1.000  S
  O1       1.0000 0.05590  0.16783  0.08560  Biso   1.000  O
  O2       1.0000 0.44410  0.66783  0.41440  Biso   1.000  O
  O3       1.0000 0.94410  0.83217  0.91440  Biso   1.000  O
  O4       1.0000 0.55590  0.33217  0.58560  Biso   1.000  O
  O5       1.0000 0.13030  0.03442  0.94170  Biso   1.000  O
  O6       1.0000 0.36970  0.53442  0.55830  Biso   1.000  O
  O7       1.0000 0.86970  0.96558  0.05830  Biso   1.000  O
  O8       1.0000 0.63030  0.46558  0.44170  Biso   1.000  O
  O9       1.0000 0.34400  0.51380  0.83830  Biso   1.000  O
  O10      1.0000 0.15600  0.01380  0.66170  Biso   1.000  O
  O11      1.0000 0.65600  0.48620  0.16170  Biso   1.000  O
  O12      1.0000 0.84400  0.98620  0.33830  Biso   1.000  O
  O13      1.0000 0.12250  0.18650  0.87570  Biso   1.000  O
  O14      1.0000 0.37750  0.68650  0.62430  Biso   1.000  O
  O15      1.0000 0.87750  0.81350  0.12430  Biso   1.000  O
  O16      1.0000 0.62250  0.31350  0.37570  Biso   1.000  O
  O17      1.0000 0.14050  0.51310  0.29940  Biso   1.000  O
  O18      1.0000 0.35950  0.01310  0.20060  Biso   1.000  O
  O19      1.0000 0.85950  0.48690  0.70060  Biso   1.000  O
  O20      1.0000 0.64050  0.98690  0.79940  Biso   1.000  O
  O21      1.0000 0.32220  0.41080  0.71760  Biso   1.000  O
  O22      1.0000 0.17780  0.91080  0.78240  Biso   1.000  O
  O23      1.0000 0.67780  0.58920  0.28240  Biso   1.000  O
  O24      1.0000 0.82220  0.08920  0.21760  Biso   1.000  O
  O25      1.0000 0.27380  0.40120  0.38890  Biso   1.000  O
  O26      1.0000 0.22620  0.90120  0.11110  Biso   1.000  O
  O27      1.0000 0.72620  0.59880  0.61110  Biso   1.000  O
  O28      1.0000 0.77380  0.09880  0.88890  Biso   1.000  O
  O29      1.0000 0.95160  0.40850  0.35290  Biso   1.000  O
  O30      1.0000 0.54840  0.90850  0.14710  Biso   1.000  O
  O31      1.0000 0.04840  0.59150  0.64710  Biso   1.000  O
  O32      1.0000 0.45160  0.09150  0.85290  Biso   1.000  O
  C1       1.0000 0.14140  0.39600  0.15170  Biso   1.000  C
  C2       1.0000 0.35860  0.89600  0.34830  Biso   1.000  C
  C3       1.0000 0.85860  0.60400  0.84830  Biso   1.000  C
  C4       1.0000 0.64140  0.10400  0.65170  Biso   1.000  C
  C5       1.0000 0.23400  0.40490  0.93090  Biso   1.000  C
  C6       1.0000 0.26600  0.90490  0.56910  Biso   1.000  C
  C7       1.0000 0.76600  0.59510  0.06910  Biso   1.000  C
  C8       1.0000 0.73400  0.09510  0.43090  Biso   1.000  C
  C9       1.0000 0.20010  0.33040  0.91500  Biso   1.000  C
  C10      1.0000 0.29990  0.83040  0.58500  Biso   1.000  C
  C11      1.0000 0.79990  0.66960  0.08500  Biso   1.000  C
  C12      1.0000 0.70010  0.16960  0.41500  Biso   1.000  C
  H1       1.0000 0.22060  0.30810  0.83530  Biso   1.000  H
  H2       1.0000 0.27940  0.80810  0.66470  Biso   1.000  H
  H3       1.0000 0.77940  0.69190  0.16470  Biso   1.000  H
  H4       1.0000 0.72060  0.19190  0.33530  Biso   1.000  H
  C13      1.0000 0.13610  0.28800  0.01530  Biso   1.000  C
  C14      1.0000 0.36390  0.78800  0.48470  Biso   1.000  C
  C15      1.0000 0.86390  0.71200  0.98470  Biso   1.000  C
  C16      1.0000 0.63610  0.21200  0.51530  Biso   1.000  C
  C17      1.0000 0.10080  0.20760  0.99080  Biso   1.000  C
  C18      1.0000 0.39920  0.70760  0.50920  Biso   1.000  C
  C19      1.0000 0.89920  0.79240  0.00920  Biso   1.000  C
  C20      1.0000 0.60080  0.29240  0.49080  Biso   1.000  C
  C21      1.0000 0.10670  0.32080  0.13470  Biso   1.000  C
  C22      1.0000 0.39330  0.82080  0.36530  Biso   1.000  C
  C23      1.0000 0.89330  0.67920  0.86530  Biso   1.000  C
  C24      1.0000 0.60670  0.17920  0.63470  Biso   1.000  C
  H5       1.0000 0.06420  0.29300  0.20270  Biso   1.000  H
  H6       1.0000 0.43580  0.79300  0.29730  Biso   1.000  H
  H7       1.0000 0.93580  0.70700  0.79730  Biso   1.000  H
  H8       1.0000 0.56420  0.20700  0.70270  Biso   1.000  H
  C25      1.0000 0.20500  0.43920  0.05090  Biso   1.000  C
  C26      1.0000 0.29500  0.93920  0.44910  Biso   1.000  C
  C27      1.0000 0.79500  0.56080  0.94910  Biso   1.000  C
  C28      1.0000 0.70500  0.06080  0.55090  Biso   1.000  C
  H9       1.0000 0.22750  0.48930  0.06320  Biso   1.000  H
  H10      1.0000 0.27250  0.98930  0.43680  Biso   1.000  H
  H11      1.0000 0.77250  0.51070  0.93680  Biso   1.000  H
  H12      1.0000 0.72750  0.01070  0.56320  Biso   1.000  H
  C29      1.0000 0.30580  0.44700  0.82000  Biso   1.000  C
  C30      1.0000 0.19420  0.94700  0.68000  Biso   1.000  C
  C31      1.0000 0.69420  0.55300  0.18000  Biso   1.000  C
  C32      1.0000 0.80580  0.05300  0.32000  Biso   1.000  C
  O33      1.0000 0.12010  0.15640  0.62420  Biso   1.000  O
  O34      1.0000 0.37990  0.65640  0.87580  Biso   1.000  O
  O35      1.0000 0.87990  0.84360  0.37580  Biso   1.000  O
  O36      1.0000 0.62010  0.34360  0.12420  Biso   1.000  O
  O37      1.0000 0.04050  0.30100  0.58490  Biso   1.000  O
  O38      1.0000 0.45950  0.80100  0.91510  Biso   1.000  O
  O39      1.0000 0.95950  0.69900  0.41510  Biso   1.000  O
  O40      1.0000 0.54050  0.19900  0.08490  Biso   1.000  O
  O41      1.0000 0.21190  0.13650  0.37080  Biso   1.000  O
  O42      1.0000 0.28810  0.63650  0.12920  Biso   1.000  O
  O43      1.0000 0.78810  0.86350  0.62920  Biso   1.000  O
  O44      1.0000 0.71190  0.36350  0.87080  Biso   1.000  O
