data_image0
_cell_length_a       12.2779
_cell_length_b       17.4665
_cell_length_c       13.8113
_cell_angle_alpha    90
_cell_angle_beta     109.442
_cell_angle_gamma    90

_symmetry_space_group_name_H-M    "P 1"
_symmetry_int_tables_number       1

loop_
  _symmetry_equiv_pos_as_xyz
  'x, y, z'

loop_
  _atom_site_label
  _atom_site_occupancy
  _atom_site_fract_x
  _atom_site_fract_y
  _atom_site_fract_z
  _atom_site_thermal_displace_type
  _atom_site_B_iso_or_equiv
  _atom_site_type_symbol
  Cu1      1.0000 0.81123  0.28942  0.05911  Biso   1.000  Cu
  Cu2      1.0000 0.68877  0.78942  0.44089  Biso   1.000  Cu
  Cu3      1.0000 0.18877  0.71058  0.94089  Biso   1.000  Cu
  Cu4      1.0000 0.31123  0.21058  0.55911  Biso   1.000  Cu
  Cu5      1.0000 0.74073  0.75814  0.00937  Biso   1.000  Cu
  Cu6      1.0000 0.75927  0.25814  0.49063  Biso   1.000  Cu
  Cu7      1.0000 0.25927  0.24186  0.99063  Biso   1.000  Cu
  Cu8      1.0000 0.24073  0.74186  0.50937  Biso   1.000  Cu
  Na1      1.0000 0.08389  0.58674  0.53410  Biso   1.000  Na
  Na2      1.0000 0.41611  0.08674  0.96590  Biso   1.000  Na
  Na3      1.0000 0.91611  0.41326  0.46590  Biso   1.000  Na
  Na4      1.0000 0.58389  0.91326  0.03410  Biso   1.000  Na
  S1       1.0000 0.29116  0.03959  0.26177  Biso   1.000  S
  S2       1.0000 0.20884  0.53959  0.23823  Biso   1.000  S
  S3       1.0000 0.70884  0.96041  0.73823  Biso   1.000  S
  S4       1.0000 0.79116  0.46041  0.76177  Biso   1.000  S
  S5       1.0000 0.20745  0.46740  0.74814  Biso   1.000  S
  S6       1.0000 0.29255  0.96740  0.75186  Biso   1.000  S
  S7       1.0000 0.79255  0.53260  0.25186  Biso   1.000  S
  S8       1.0000 0.70745  0.03260  0.24814  Biso   1.000  S
  O1       1.0000 0.92013  0.20686  0.10075  Biso   1.000  O
  O2       1.0000 0.57987  0.70686  0.39925  Biso   1.000  O
  O3       1.0000 0.07987  0.79314  0.89925  Biso   1.000  O
  O4       1.0000 0.42013  0.29314  0.60075  Biso   1.000  O
  O5       1.0000 0.64589  0.19277  0.79491  Biso   1.000  O
  O6       1.0000 0.85411  0.69277  0.70509  Biso   1.000  O
  O7       1.0000 0.35411  0.80723  0.20509  Biso   1.000  O
  O8       1.0000 0.14589  0.30723  0.29491  Biso   1.000  O
  H1       1.0000 0.63200  0.23590  0.81300  Biso   1.000  H
  H2       1.0000 0.86800  0.73590  0.68700  Biso   1.000  H
  H3       1.0000 0.36800  0.76410  0.18700  Biso   1.000  H
  H4       1.0000 0.13200  0.26410  0.31300  Biso   1.000  H
  H5       1.0000 0.68300  0.16100  0.83700  Biso   1.000  H
  H6       1.0000 0.81700  0.66100  0.66300  Biso   1.000  H
  H7       1.0000 0.31700  0.83900  0.16300  Biso   1.000  H
  H8       1.0000 0.18300  0.33900  0.33700  Biso   1.000  H
  O9       1.0000 0.78174  0.13438  0.99556  Biso   1.000  O
  O10      1.0000 0.71826  0.63438  0.50444  Biso   1.000  O
  O11      1.0000 0.21826  0.86562  0.00444  Biso   1.000  O
  O12      1.0000 0.28174  0.36562  0.49556  Biso   1.000  O
  O13      1.0000 0.44850  0.91866  0.49250  Biso   1.000  O
  O14      1.0000 0.05150  0.41866  0.00750  Biso   1.000  O
  O15      1.0000 0.55150  0.08134  0.50750  Biso   1.000  O
  O16      1.0000 0.94850  0.58134  0.99250  Biso   1.000  O
  H9       1.0000 0.42000  0.87860  0.46500  Biso   1.000  H
  H10      1.0000 0.08000  0.37860  0.03500  Biso   1.000  H
  H11      1.0000 0.58000  0.12140  0.53500  Biso   1.000  H
  H12      1.0000 0.92000  0.62140  0.96500  Biso   1.000  H
  H13      1.0000 0.49800  0.90800  0.54660  Biso   1.000  H
  H14      1.0000 0.00200  0.40800  0.95340  Biso   1.000  H
  H15      1.0000 0.50200  0.09200  0.45340  Biso   1.000  H
  H16      1.0000 0.99800  0.59200  0.04660  Biso   1.000  H
  O17      1.0000 0.82646  0.85256  0.05744  Biso   1.000  O
  O18      1.0000 0.67354  0.35256  0.44256  Biso   1.000  O
  O19      1.0000 0.17354  0.14744  0.94256  Biso   1.000  O
  O20      1.0000 0.32646  0.64744  0.55744  Biso   1.000  O
  O21      1.0000 0.89340  0.46968  0.05045  Biso   1.000  O
  O22      1.0000 0.60660  0.96968  0.44955  Biso   1.000  O
  O23      1.0000 0.10660  0.53032  0.94955  Biso   1.000  O
  O24      1.0000 0.39340  0.03032  0.55045  Biso   1.000  O
  O25      1.0000 0.96470  0.48358  0.11000  Biso   1.000  O
  O26      1.0000 0.53530  0.98358  0.39000  Biso   1.000  O
  O27      1.0000 0.03530  0.51642  0.89000  Biso   1.000  O
  O28      1.0000 0.46470  0.01642  0.61000  Biso   1.000  O
  O29      1.0000 0.00455  0.80215  0.12019  Biso   1.000  O
  O30      1.0000 0.49545  0.30215  0.37981  Biso   1.000  O
  O31      1.0000 0.99545  0.19785  0.87981  Biso   1.000  O
  O32      1.0000 0.50455  0.69785  0.62019  Biso   1.000  O
  O33      1.0000 0.30164  0.02744  0.36813  Biso   1.000  O
  O34      1.0000 0.19836  0.52744  0.13187  Biso   1.000  O
  O35      1.0000 0.69836  0.97256  0.63187  Biso   1.000  O
  O36      1.0000 0.80164  0.47256  0.86813  Biso   1.000  O
  H17      1.0000 0.34870  0.99330  0.39240  Biso   1.000  H
  H18      1.0000 0.15130  0.49330  0.10760  Biso   1.000  H
  H19      1.0000 0.65130  0.00670  0.60760  Biso   1.000  H
  H20      1.0000 0.84870  0.50670  0.89240  Biso   1.000  H
  O37      1.0000 0.36029  0.98680  0.22585  Biso   1.000  O
  O38      1.0000 0.13971  0.48680  0.27415  Biso   1.000  O
  O39      1.0000 0.63971  0.01320  0.77415  Biso   1.000  O
  O40      1.0000 0.86029  0.51320  0.72585  Biso   1.000  O
  O41      1.0000 0.31275  0.12052  0.24456  Biso   1.000  O
  O42      1.0000 0.18725  0.62052  0.25544  Biso   1.000  O
  O43      1.0000 0.68725  0.87948  0.75544  Biso   1.000  O
  O44      1.0000 0.81275  0.37948  0.74456  Biso   1.000  O
  O45      1.0000 0.73398  0.25420  0.16147  Biso   1.000  O
  O46      1.0000 0.76602  0.75420  0.33853  Biso   1.000  O
  O47      1.0000 0.26602  0.74580  0.83853  Biso   1.000  O
  O48      1.0000 0.23398  0.24580  0.66147  Biso   1.000  O
  H21      1.0000 0.73200  0.20760  0.16600  Biso   1.000  H
  H22      1.0000 0.76800  0.70760  0.33400  Biso   1.000  H
  H23      1.0000 0.26800  0.79240  0.83400  Biso   1.000  H
  H24      1.0000 0.23200  0.29240  0.66600  Biso   1.000  H
  H25      1.0000 0.66950  0.26900  0.15600  Biso   1.000  H
  H26      1.0000 0.83050  0.76900  0.34400  Biso   1.000  H
  H27      1.0000 0.33050  0.73100  0.84400  Biso   1.000  H
  H28      1.0000 0.16950  0.23100  0.65600  Biso   1.000  H
  O49      1.0000 0.86251  0.30097  0.93540  Biso   1.000  O
  O50      1.0000 0.63749  0.80097  0.56460  Biso   1.000  O
  O51      1.0000 0.13749  0.69903  0.06460  Biso   1.000  O
  O52      1.0000 0.36251  0.19903  0.43540  Biso   1.000  O
  H29      1.0000 0.89900  0.26720  0.91800  Biso   1.000  H
  H30      1.0000 0.60100  0.76720  0.58200  Biso   1.000  H
  H31      1.0000 0.10100  0.73280  0.08200  Biso   1.000  H
  H32      1.0000 0.39900  0.23280  0.41800  Biso   1.000  H
  H33      1.0000 0.83500  0.33010  0.88700  Biso   1.000  H
  H34      1.0000 0.66500  0.83010  0.61300  Biso   1.000  H
  H35      1.0000 0.16500  0.66990  0.11300  Biso   1.000  H
  H36      1.0000 0.33500  0.16990  0.38700  Biso   1.000  H
  O53      1.0000 0.93196  0.36784  0.17853  Biso   1.000  O
  O54      1.0000 0.56804  0.86784  0.32147  Biso   1.000  O
  O55      1.0000 0.06804  0.63216  0.82147  Biso   1.000  O
  O56      1.0000 0.43196  0.13216  0.67853  Biso   1.000  O
  H37      1.0000 0.89500  0.39130  0.20900  Biso   1.000  H
  H38      1.0000 0.60500  0.89130  0.29100  Biso   1.000  H
  H39      1.0000 0.10500  0.60870  0.79100  Biso   1.000  H
  H40      1.0000 0.39500  0.10870  0.70900  Biso   1.000  H
  H41      1.0000 0.99740  0.35100  0.20700  Biso   1.000  H
  H42      1.0000 0.50260  0.85100  0.29300  Biso   1.000  H
  H43      1.0000 0.00260  0.64900  0.79300  Biso   1.000  H
  H44      1.0000 0.49740  0.14900  0.70700  Biso   1.000  H
  O57      1.0000 0.62196  0.82444  0.91043  Biso   1.000  O
  O58      1.0000 0.87804  0.32444  0.58957  Biso   1.000  O
  O59      1.0000 0.37804  0.17556  0.08957  Biso   1.000  O
  O60      1.0000 0.12196  0.67556  0.41043  Biso   1.000  O
  H45      1.0000 0.64100  0.84100  0.86300  Biso   1.000  H
  H46      1.0000 0.85900  0.34100  0.63700  Biso   1.000  H
  H47      1.0000 0.35900  0.15900  0.13700  Biso   1.000  H
  H48      1.0000 0.14100  0.65900  0.36300  Biso   1.000  H
  H49      1.0000 0.56700  0.79500  0.88800  Biso   1.000  H
  H50      1.0000 0.93300  0.29500  0.61200  Biso   1.000  H
  H51      1.0000 0.43300  0.20500  0.11200  Biso   1.000  H
  H52      1.0000 0.06700  0.70500  0.38800  Biso   1.000  H
  O61      1.0000 0.84105  0.70367  0.13033  Biso   1.000  O
  O62      1.0000 0.65895  0.20367  0.36967  Biso   1.000  O
  O63      1.0000 0.15895  0.29633  0.86967  Biso   1.000  O
  O64      1.0000 0.34105  0.79633  0.63033  Biso   1.000  O
  H53      1.0000 0.84600  0.65730  0.13700  Biso   1.000  H
  H54      1.0000 0.65400  0.15730  0.36300  Biso   1.000  H
  H55      1.0000 0.15400  0.34270  0.86300  Biso   1.000  H
  H56      1.0000 0.34600  0.84270  0.63700  Biso   1.000  H
  H57      1.0000 0.90530  0.72100  0.13900  Biso   1.000  H
  H58      1.0000 0.59470  0.22100  0.36100  Biso   1.000  H
  H59      1.0000 0.09470  0.27900  0.86100  Biso   1.000  H
  H60      1.0000 0.40530  0.77900  0.63900  Biso   1.000  H
  O65      1.0000 0.85987  0.72707  0.90554  Biso   1.000  O
  O66      1.0000 0.64013  0.22707  0.59446  Biso   1.000  O
  O67      1.0000 0.14013  0.27293  0.09446  Biso   1.000  O
  O68      1.0000 0.35987  0.77293  0.40554  Biso   1.000  O
  H61      1.0000 0.92330  0.74600  0.91300  Biso   1.000  H
  H62      1.0000 0.57670  0.24600  0.58700  Biso   1.000  H
  H63      1.0000 0.07670  0.25400  0.08700  Biso   1.000  H
  H64      1.0000 0.42330  0.75400  0.41300  Biso   1.000  H
  H65      1.0000 0.84700  0.71500  0.84560  Biso   1.000  H
  H66      1.0000 0.65300  0.21500  0.65440  Biso   1.000  H
  H67      1.0000 0.15300  0.28500  0.15440  Biso   1.000  H
  H68      1.0000 0.34700  0.78500  0.34560  Biso   1.000  H
  O69      1.0000 0.66010  0.66252  0.95939  Biso   1.000  O
  O70      1.0000 0.83990  0.16252  0.54061  Biso   1.000  O
  O71      1.0000 0.33990  0.33748  0.04061  Biso   1.000  O
  O72      1.0000 0.16010  0.83748  0.45939  Biso   1.000  O
  O73      1.0000 0.48591  0.70670  0.86571  Biso   1.000  O
  O74      1.0000 0.01409  0.20670  0.63429  Biso   1.000  O
  O75      1.0000 0.51409  0.29330  0.13429  Biso   1.000  O
  O76      1.0000 0.98591  0.79330  0.36571  Biso   1.000  O
  O77      1.0000 0.71686  0.37978  0.01830  Biso   1.000  O
  O78      1.0000 0.78314  0.87978  0.48170  Biso   1.000  O
  O79      1.0000 0.28314  0.62022  0.98170  Biso   1.000  O
  O80      1.0000 0.21686  0.12022  0.51830  Biso   1.000  O
  O81      1.0000 0.58656  0.30245  0.91339  Biso   1.000  O
  O82      1.0000 0.91344  0.80245  0.58661  Biso   1.000  O
  O83      1.0000 0.41344  0.69755  0.08661  Biso   1.000  O
  O84      1.0000 0.08656  0.19755  0.41339  Biso   1.000  O
  O85      1.0000 0.15973  0.53915  0.69779  Biso   1.000  O
  O86      1.0000 0.34027  0.03915  0.80221  Biso   1.000  O
  O87      1.0000 0.84027  0.46085  0.30221  Biso   1.000  O
  O88      1.0000 0.65973  0.96085  0.19779  Biso   1.000  O
  O89      1.0000 0.16104  0.44882  0.83025  Biso   1.000  O
  O90      1.0000 0.33896  0.94882  0.66975  Biso   1.000  O
  O91      1.0000 0.83896  0.55118  0.16975  Biso   1.000  O
  O92      1.0000 0.66104  0.05118  0.33025  Biso   1.000  O
  O93      1.0000 0.19794  0.40428  0.67727  Biso   1.000  O
  O94      1.0000 0.30206  0.90428  0.82273  Biso   1.000  O
  O95      1.0000 0.80206  0.59572  0.32273  Biso   1.000  O
  O96      1.0000 0.69794  0.09572  0.17727  Biso   1.000  O
  O97      1.0000 0.09417  0.46636  0.45870  Biso   1.000  O
  O98      1.0000 0.40583  0.96636  0.04130  Biso   1.000  O
  O99      1.0000 0.90583  0.53364  0.54130  Biso   1.000  O
  O100     1.0000 0.59417  0.03364  0.95870  Biso   1.000  O
  H69      1.0000 0.14600  0.43590  0.48400  Biso   1.000  H
  H70      1.0000 0.35400  0.93590  0.01600  Biso   1.000  H
  H71      1.0000 0.85400  0.56410  0.51600  Biso   1.000  H
  H72      1.0000 0.64600  0.06410  0.98400  Biso   1.000  H
  H73      1.0000 0.08300  0.46900  0.39710  Biso   1.000  H
  H74      1.0000 0.41700  0.96900  0.10290  Biso   1.000  H
  H75      1.0000 0.91700  0.53100  0.60290  Biso   1.000  H
  H76      1.0000 0.58300  0.03100  0.89710  Biso   1.000  H
  O101     1.0000 0.61099  0.78917  0.11574  Biso   1.000  O
  O102     1.0000 0.88901  0.28917  0.38426  Biso   1.000  O
  O103     1.0000 0.38901  0.21083  0.88426  Biso   1.000  O
  O104     1.0000 0.11099  0.71083  0.61574  Biso   1.000  O
  H77      1.0000 0.55500  0.76220  0.11000  Biso   1.000  H
  H78      1.0000 0.94500  0.26220  0.39000  Biso   1.000  H
  H79      1.0000 0.44500  0.23780  0.89000  Biso   1.000  H
  H80      1.0000 0.05500  0.73780  0.61000  Biso   1.000  H
  H81      1.0000 0.64900  0.78000  0.17530  Biso   1.000  H
  H82      1.0000 0.85100  0.28000  0.32470  Biso   1.000  H
  H83      1.0000 0.35100  0.22000  0.82470  Biso   1.000  H
  H84      1.0000 0.14900  0.72000  0.67530  Biso   1.000  H
  C1       1.0000 0.95590  0.07419  0.09900  Biso   1.000  C
  C2       1.0000 0.54410  0.57419  0.40100  Biso   1.000  C
  C3       1.0000 0.04410  0.92581  0.90100  Biso   1.000  C
  C4       1.0000 0.45590  0.42581  0.59900  Biso   1.000  C
  C5       1.0000 0.91270  0.00004  0.07920  Biso   1.000  C
  C6       1.0000 0.58730  0.50004  0.42080  Biso   1.000  C
  C7       1.0000 0.08730  0.99996  0.92080  Biso   1.000  C
  C8       1.0000 0.41270  0.49996  0.57920  Biso   1.000  C
  H85      1.0000 0.83530  0.99230  0.04120  Biso   1.000  H
  H86      1.0000 0.66470  0.49230  0.45880  Biso   1.000  H
  H87      1.0000 0.16470  0.00770  0.95880  Biso   1.000  H
  H88      1.0000 0.33530  0.50770  0.54120  Biso   1.000  H
  C9       1.0000 0.98430  0.93767  0.11560  Biso   1.000  C
  C10      1.0000 0.51570  0.43767  0.38440  Biso   1.000  C
  C11      1.0000 0.01570  0.06233  0.88440  Biso   1.000  C
  C12      1.0000 0.48430  0.56233  0.61560  Biso   1.000  C
  C13      1.0000 0.10120  0.94846  0.17050  Biso   1.000  C
  C14      1.0000 0.39880  0.44846  0.32950  Biso   1.000  C
  C15      1.0000 0.89880  0.05154  0.82950  Biso   1.000  C
  C16      1.0000 0.60120  0.55154  0.67050  Biso   1.000  C
  H89      1.0000 0.14950  0.90660  0.19450  Biso   1.000  H
  H90      1.0000 0.35050  0.40660  0.30550  Biso   1.000  H
  H91      1.0000 0.85050  0.09340  0.80550  Biso   1.000  H
  H92      1.0000 0.64950  0.59340  0.69450  Biso   1.000  H
  C17      1.0000 0.14450  0.02264  0.18890  Biso   1.000  C
  C18      1.0000 0.35550  0.52264  0.31110  Biso   1.000  C
  C19      1.0000 0.85550  0.97736  0.81110  Biso   1.000  C
  C20      1.0000 0.64450  0.47736  0.68890  Biso   1.000  C
  C21      1.0000 0.07250  0.08542  0.15530  Biso   1.000  C
  C22      1.0000 0.42750  0.58542  0.34470  Biso   1.000  C
  C23      1.0000 0.92750  0.91458  0.84470  Biso   1.000  C
  C24      1.0000 0.57250  0.41458  0.65530  Biso   1.000  C
  H93      1.0000 0.10180  0.13480  0.17030  Biso   1.000  H
  H94      1.0000 0.39820  0.63480  0.32970  Biso   1.000  H
  H95      1.0000 0.89820  0.86520  0.82970  Biso   1.000  H
  H96      1.0000 0.60180  0.36520  0.67030  Biso   1.000  H
  C25      1.0000 0.87890  0.14184  0.06080  Biso   1.000  C
  C26      1.0000 0.62110  0.64184  0.43920  Biso   1.000  C
  C27      1.0000 0.12110  0.85816  0.93920  Biso   1.000  C
  C28      1.0000 0.37890  0.35816  0.56080  Biso   1.000  C
  C29      1.0000 0.93620  0.85746  0.09640  Biso   1.000  C
  C30      1.0000 0.56380  0.35746  0.40360  Biso   1.000  C
  C31      1.0000 0.06380  0.14254  0.90360  Biso   1.000  C
  C32      1.0000 0.43620  0.64254  0.59640  Biso   1.000  C
  C33      1.0000 0.51300  0.57210  0.88400  Biso   1.000  C
  C34      1.0000 0.98700  0.07210  0.61600  Biso   1.000  C
  C35      1.0000 0.48700  0.42790  0.11600  Biso   1.000  C
  C36      1.0000 0.01300  0.92790  0.38400  Biso   1.000  C
  C37      1.0000 0.58620  0.51053  0.92560  Biso   1.000  C
  C38      1.0000 0.91380  0.01053  0.57440  Biso   1.000  C
  C39      1.0000 0.41380  0.48947  0.07440  Biso   1.000  C
  C40      1.0000 0.08620  0.98947  0.42560  Biso   1.000  C
  H97      1.0000 0.66250  0.51930  0.96610  Biso   1.000  H
  H98      1.0000 0.83750  0.01930  0.53390  Biso   1.000  H
  H99      1.0000 0.33750  0.48070  0.03390  Biso   1.000  H
  H100     1.0000 0.16250  0.98070  0.46610  Biso   1.000  H
  C41      1.0000 0.54450  0.43576  0.90620  Biso   1.000  C
  C42      1.0000 0.95550  0.93576  0.59380  Biso   1.000  C
  C43      1.0000 0.45550  0.56424  0.09380  Biso   1.000  C
  C44      1.0000 0.04450  0.06424  0.40620  Biso   1.000  C
  C45      1.0000 0.42930  0.42266  0.84860  Biso   1.000  C
  C46      1.0000 0.07070  0.92266  0.65140  Biso   1.000  C
  C47      1.0000 0.57070  0.57734  0.15140  Biso   1.000  C
  C48      1.0000 0.92930  0.07734  0.34860  Biso   1.000  C
  H101     1.0000 0.40140  0.37290  0.83550  Biso   1.000  H
  H102     1.0000 0.09860  0.87290  0.66450  Biso   1.000  H
  H103     1.0000 0.59860  0.62710  0.16450  Biso   1.000  H
  H104     1.0000 0.90140  0.12710  0.33550  Biso   1.000  H
  C49      1.0000 0.35630  0.48446  0.81059  Biso   1.000  C
  C50      1.0000 0.14370  0.98446  0.68941  Biso   1.000  C
  C51      1.0000 0.64370  0.51554  0.18941  Biso   1.000  C
  C52      1.0000 0.85630  0.01554  0.31059  Biso   1.000  C
  C53      1.0000 0.39770  0.55905  0.82610  Biso   1.000  C
  C54      1.0000 0.10230  0.05905  0.67390  Biso   1.000  C
  C55      1.0000 0.60230  0.44095  0.17390  Biso   1.000  C
  C56      1.0000 0.89770  0.94095  0.32610  Biso   1.000  C
  H105     1.0000 0.34890  0.59990  0.79810  Biso   1.000  H
  H106     1.0000 0.15110  0.09990  0.70190  Biso   1.000  H
  H107     1.0000 0.65110  0.40010  0.20190  Biso   1.000  H
  H108     1.0000 0.84890  0.90010  0.29810  Biso   1.000  H
  C57      1.0000 0.55590  0.65322  0.90370  Biso   1.000  C
  C58      1.0000 0.94410  0.15322  0.59630  Biso   1.000  C
  C59      1.0000 0.44410  0.34678  0.09630  Biso   1.000  C
  C60      1.0000 0.05590  0.84678  0.40370  Biso   1.000  C
  C61      1.0000 0.62040  0.36764  0.94770  Biso   1.000  C
  C62      1.0000 0.87960  0.86764  0.55230  Biso   1.000  C
  C63      1.0000 0.37960  0.63236  0.05230  Biso   1.000  C
  C64      1.0000 0.12040  0.13236  0.44770  Biso   1.000  C
