data_image0
_cell_length_a       6.9528
_cell_length_b       16.301
_cell_length_c       13.265
_cell_angle_alpha    90
_cell_angle_beta     101.835
_cell_angle_gamma    90

_symmetry_space_group_name_H-M    "P 1"
_symmetry_int_tables_number       1

loop_
  _symmetry_equiv_pos_as_xyz
  'x, y, z'

loop_
  _atom_site_label
  _atom_site_occupancy
  _atom_site_fract_x
  _atom_site_fract_y
  _atom_site_fract_z
  _atom_site_thermal_displace_type
  _atom_site_B_iso_or_equiv
  _atom_site_type_symbol
  Cu1      1.0000 0.18285  0.75476  0.25897  Biso   1.000  Cu
  Cu2      1.0000 0.31715  0.25476  0.24103  Biso   1.000  Cu
  Cu3      1.0000 0.81715  0.24524  0.74103  Biso   1.000  Cu
  Cu4      1.0000 0.68285  0.74524  0.75897  Biso   1.000  Cu
  S1       1.0000 0.14721  0.98827  0.71349  Biso   1.000  S
  S2       1.0000 0.35279  0.48827  0.78651  Biso   1.000  S
  S3       1.0000 0.85279  0.01173  0.28651  Biso   1.000  S
  S4       1.0000 0.64721  0.51173  0.21349  Biso   1.000  S
  O1       1.0000 0.20288  0.85032  0.16627  Biso   1.000  O
  O2       1.0000 0.29712  0.35032  0.33373  Biso   1.000  O
  O3       1.0000 0.79712  0.14968  0.83373  Biso   1.000  O
  O4       1.0000 0.70288  0.64968  0.66627  Biso   1.000  O
  O5       1.0000 0.16914  0.78194  0.01708  Biso   1.000  O
  O6       1.0000 0.33086  0.28194  0.48292  Biso   1.000  O
  O7       1.0000 0.83086  0.21806  0.98292  Biso   1.000  O
  O8       1.0000 0.66914  0.71806  0.51708  Biso   1.000  O
  O9       1.0000 0.31169  0.15764  0.15152  Biso   1.000  O
  O10      1.0000 0.18831  0.65764  0.34848  Biso   1.000  O
  O11      1.0000 0.68831  0.84236  0.84848  Biso   1.000  O
  O12      1.0000 0.81169  0.34236  0.65152  Biso   1.000  O
  O13      1.0000 0.16489  0.71451  0.49921  Biso   1.000  O
  O14      1.0000 0.33511  0.21451  0.00079  Biso   1.000  O
  O15      1.0000 0.83511  0.28549  0.50079  Biso   1.000  O
  O16      1.0000 0.66489  0.78549  0.99921  Biso   1.000  O
  O17      1.0000 0.28664  0.92954  0.68547  Biso   1.000  O
  O18      1.0000 0.21336  0.42954  0.81453  Biso   1.000  O
  O19      1.0000 0.71336  0.07046  0.31453  Biso   1.000  O
  O20      1.0000 0.78664  0.57046  0.18547  Biso   1.000  O
  O21      1.0000 0.94302  0.96138  0.68136  Biso   1.000  O
  O22      1.0000 0.55698  0.46138  0.81864  Biso   1.000  O
  O23      1.0000 0.05698  0.03862  0.31864  Biso   1.000  O
  O24      1.0000 0.44302  0.53862  0.18136  Biso   1.000  O
  O25      1.0000 0.17987  0.07082  0.67793  Biso   1.000  O
  O26      1.0000 0.32013  0.57082  0.82207  Biso   1.000  O
  O27      1.0000 0.82013  0.92918  0.32207  Biso   1.000  O
  O28      1.0000 0.67987  0.42918  0.17793  Biso   1.000  O
  O29      1.0000 0.20798  0.67312  0.15511  Biso   1.000  O
  O30      1.0000 0.29202  0.17312  0.34489  Biso   1.000  O
  O31      1.0000 0.79202  0.32688  0.84489  Biso   1.000  O
  O32      1.0000 0.70798  0.82688  0.65511  Biso   1.000  O
  H1       1.0000 0.21600  0.69570  0.10080  Biso   1.000  H
  H2       1.0000 0.28400  0.19570  0.39920  Biso   1.000  H
  H3       1.0000 0.78400  0.30430  0.89920  Biso   1.000  H
  H4       1.0000 0.71600  0.80430  0.60080  Biso   1.000  H
  H5       1.0000 0.30100  0.64170  0.16910  Biso   1.000  H
  H6       1.0000 0.19900  0.14170  0.33090  Biso   1.000  H
  H7       1.0000 0.69900  0.35830  0.83090  Biso   1.000  H
  H8       1.0000 0.80100  0.85830  0.66910  Biso   1.000  H
  O33      1.0000 0.13838  0.83149  0.36648  Biso   1.000  O
  O34      1.0000 0.36162  0.33149  0.13352  Biso   1.000  O
  O35      1.0000 0.86162  0.16851  0.63352  Biso   1.000  O
  O36      1.0000 0.63838  0.66851  0.86648  Biso   1.000  O
  H9       1.0000 0.03520  0.85540  0.34800  Biso   1.000  H
  H10      1.0000 0.46480  0.35540  0.15200  Biso   1.000  H
  H11      1.0000 0.96480  0.14460  0.65200  Biso   1.000  H
  H12      1.0000 0.53520  0.64460  0.84800  Biso   1.000  H
  H13      1.0000 0.13500  0.80110  0.41570  Biso   1.000  H
  H14      1.0000 0.36500  0.30110  0.08430  Biso   1.000  H
  H15      1.0000 0.86500  0.19890  0.58430  Biso   1.000  H
  H16      1.0000 0.63500  0.69890  0.91570  Biso   1.000  H
  O37      1.0000 0.52655  0.78634  0.32557  Biso   1.000  O
  O38      1.0000 0.97345  0.28634  0.17443  Biso   1.000  O
  O39      1.0000 0.47345  0.21366  0.67443  Biso   1.000  O
  O40      1.0000 0.02655  0.71366  0.82557  Biso   1.000  O
  H17      1.0000 0.57000  0.76270  0.37920  Biso   1.000  H
  H18      1.0000 0.93000  0.26270  0.12080  Biso   1.000  H
  H19      1.0000 0.43000  0.23730  0.62080  Biso   1.000  H
  H20      1.0000 0.07000  0.73730  0.87920  Biso   1.000  H
  H21      1.0000 0.61000  0.78010  0.29170  Biso   1.000  H
  H22      1.0000 0.89000  0.28010  0.20830  Biso   1.000  H
  H23      1.0000 0.39000  0.21990  0.70830  Biso   1.000  H
  H24      1.0000 0.11000  0.71990  0.79170  Biso   1.000  H
  O41      1.0000 0.81362  0.74077  0.20388  Biso   1.000  O
  O42      1.0000 0.68638  0.24077  0.29612  Biso   1.000  O
  O43      1.0000 0.18638  0.25923  0.79612  Biso   1.000  O
  O44      1.0000 0.31362  0.75923  0.70388  Biso   1.000  O
  H25      1.0000 0.81100  0.69130  0.20710  Biso   1.000  H
  H26      1.0000 0.68900  0.19130  0.29290  Biso   1.000  H
  H27      1.0000 0.18900  0.30870  0.79290  Biso   1.000  H
  H28      1.0000 0.31100  0.80870  0.70710  Biso   1.000  H
  H29      1.0000 0.77600  0.75550  0.14450  Biso   1.000  H
  H30      1.0000 0.72400  0.25550  0.35550  Biso   1.000  H
  H31      1.0000 0.22400  0.24450  0.85550  Biso   1.000  H
  H32      1.0000 0.27600  0.74450  0.64450  Biso   1.000  H
  C1       1.0000 0.21390  0.92518  0.01265  Biso   1.000  C
  C2       1.0000 0.28610  0.42518  0.48735  Biso   1.000  C
  C3       1.0000 0.78610  0.07482  0.98735  Biso   1.000  C
  C4       1.0000 0.71390  0.57482  0.51265  Biso   1.000  C
  C5       1.0000 0.25670  0.00049  0.06253  Biso   1.000  C
  C6       1.0000 0.24330  0.50049  0.43747  Biso   1.000  C
  C7       1.0000 0.74330  0.99951  0.93747  Biso   1.000  C
  C8       1.0000 0.75670  0.49951  0.56253  Biso   1.000  C
  H33      1.0000 0.27420  0.00350  0.13380  Biso   1.000  H
  H34      1.0000 0.22580  0.50350  0.36620  Biso   1.000  H
  H35      1.0000 0.72580  0.99650  0.86620  Biso   1.000  H
  H36      1.0000 0.77420  0.49650  0.63380  Biso   1.000  H
  C9       1.0000 0.27330  0.07135  0.00572  Biso   1.000  C
  C10      1.0000 0.22670  0.57135  0.49428  Biso   1.000  C
  C11      1.0000 0.72670  0.92865  0.99428  Biso   1.000  C
  C12      1.0000 0.77330  0.42865  0.50572  Biso   1.000  C
  C13      1.0000 0.24510  0.06705  0.89868  Biso   1.000  C
  C14      1.0000 0.25490  0.56705  0.60132  Biso   1.000  C
  C15      1.0000 0.75490  0.93295  0.10132  Biso   1.000  C
  C16      1.0000 0.74510  0.43295  0.39868  Biso   1.000  C
  H37      1.0000 0.25860  0.11380  0.86050  Biso   1.000  H
  H38      1.0000 0.24140  0.61380  0.63950  Biso   1.000  H
  H39      1.0000 0.74140  0.88620  0.13950  Biso   1.000  H
  H40      1.0000 0.75860  0.38620  0.36050  Biso   1.000  H
  C17      1.0000 0.19687  0.99273  0.84968  Biso   1.000  C
  C18      1.0000 0.30313  0.49273  0.65032  Biso   1.000  C
  C19      1.0000 0.80313  0.00727  0.15032  Biso   1.000  C
  C20      1.0000 0.69687  0.50727  0.34968  Biso   1.000  C
  C21      1.0000 0.18330  0.92152  0.90542  Biso   1.000  C
  C22      1.0000 0.31670  0.42152  0.59458  Biso   1.000  C
  C23      1.0000 0.81670  0.07848  0.09458  Biso   1.000  C
  C24      1.0000 0.68330  0.57848  0.40542  Biso   1.000  C
  H41      1.0000 0.15400  0.87170  0.87150  Biso   1.000  H
  H42      1.0000 0.34600  0.37170  0.62850  Biso   1.000  H
  H43      1.0000 0.84600  0.12830  0.12850  Biso   1.000  H
  H44      1.0000 0.65400  0.62830  0.37150  Biso   1.000  H
  C25      1.0000 0.19440  0.84630  0.06966  Biso   1.000  C
  C26      1.0000 0.30560  0.34630  0.43034  Biso   1.000  C
  C27      1.0000 0.80560  0.15370  0.93034  Biso   1.000  C
  C28      1.0000 0.69440  0.65370  0.56966  Biso   1.000  C
  C29      1.0000 0.31080  0.15463  0.05603  Biso   1.000  C
  C30      1.0000 0.18920  0.65463  0.44397  Biso   1.000  C
  C31      1.0000 0.68920  0.84537  0.94397  Biso   1.000  C
  C32      1.0000 0.81080  0.34537  0.55603  Biso   1.000  C
  C33      1.0000 0.48910  0.04244  0.52215  Biso   1.000  C
  C34      1.0000 0.01090  0.54244  0.97785  Biso   1.000  C
  C35      1.0000 0.51090  0.95756  0.47785  Biso   1.000  C
  C36      1.0000 0.98910  0.45756  0.02215  Biso   1.000  C
  H45      1.0000 0.55980  0.08240  0.48950  Biso   1.000  H
  H46      1.0000 0.94020  0.58240  0.01050  Biso   1.000  H
  H47      1.0000 0.44020  0.91760  0.51050  Biso   1.000  H
  H48      1.0000 0.05980  0.41760  0.98950  Biso   1.000  H
  H49      1.0000 0.35150  0.05800  0.50850  Biso   1.000  H
  H50      1.0000 0.14850  0.55800  0.99150  Biso   1.000  H
  H51      1.0000 0.64850  0.94200  0.49150  Biso   1.000  H
  H52      1.0000 0.85150  0.44200  0.00850  Biso   1.000  H
  N1       1.0000 0.56862  0.04185  0.63533  Biso   1.000  N
  N2       1.0000 0.93138  0.54185  0.86467  Biso   1.000  N
  N3       1.0000 0.43138  0.95815  0.36467  Biso   1.000  N
  N4       1.0000 0.06862  0.45815  0.13533  Biso   1.000  N
  H53      1.0000 0.55560  0.09150  0.66100  Biso   1.000  H
  H54      1.0000 0.94440  0.59150  0.83900  Biso   1.000  H
  H55      1.0000 0.44440  0.90850  0.33900  Biso   1.000  H
  H56      1.0000 0.05560  0.40850  0.16100  Biso   1.000  H
  H57      1.0000 0.69520  0.02810  0.64750  Biso   1.000  H
  H58      1.0000 0.80480  0.52810  0.85250  Biso   1.000  H
  H59      1.0000 0.30480  0.97190  0.35250  Biso   1.000  H
  H60      1.0000 0.19520  0.47190  0.14750  Biso   1.000  H
  H61      1.0000 0.50250  0.00550  0.66510  Biso   1.000  H
  H62      1.0000 0.99750  0.50550  0.83490  Biso   1.000  H
  H63      1.0000 0.49750  0.99450  0.33490  Biso   1.000  H
  H64      1.0000 0.00250  0.49450  0.16510  Biso   1.000  H
