data_image0
_cell_length_a       7.3413
_cell_length_b       18.175
_cell_length_c       10.1557
_cell_angle_alpha    90
_cell_angle_beta     94.32
_cell_angle_gamma    90

_symmetry_space_group_name_H-M    "P 1"
_symmetry_int_tables_number       1

loop_
  _symmetry_equiv_pos_as_xyz
  'x, y, z'

loop_
  _atom_site_label
  _atom_site_occupancy
  _atom_site_fract_x
  _atom_site_fract_y
  _atom_site_fract_z
  _atom_site_thermal_displace_type
  _atom_site_B_iso_or_equiv
  _atom_site_type_symbol
  Cu1      1.0000 0.13363  0.09435  0.78221  Biso   1.000  Cu
  Cu2      1.0000 0.36637  0.59435  0.71779  Biso   1.000  Cu
  Cu3      1.0000 0.86637  0.90565  0.21779  Biso   1.000  Cu
  Cu4      1.0000 0.63363  0.40565  0.28221  Biso   1.000  Cu
  Cu5      1.0000 0.95412  0.06843  0.06753  Biso   1.000  Cu
  Cu6      1.0000 0.54588  0.56843  0.43247  Biso   1.000  Cu
  Cu7      1.0000 0.04588  0.93157  0.93247  Biso   1.000  Cu
  Cu8      1.0000 0.45412  0.43157  0.56753  Biso   1.000  Cu
  S1       1.0000 0.11800  0.43448  0.30917  Biso   1.000  S
  S2       1.0000 0.38200  0.93448  0.19083  Biso   1.000  S
  S3       1.0000 0.88200  0.56552  0.69083  Biso   1.000  S
  S4       1.0000 0.61800  0.06552  0.80917  Biso   1.000  S
  O1       1.0000 0.04960  0.16797  0.08502  Biso   1.000  O
  O2       1.0000 0.45040  0.66797  0.41498  Biso   1.000  O
  O3       1.0000 0.95040  0.83203  0.91498  Biso   1.000  O
  O4       1.0000 0.54960  0.33203  0.58502  Biso   1.000  O
  O5       1.0000 0.12910  0.03504  0.94283  Biso   1.000  O
  O6       1.0000 0.37090  0.53504  0.55717  Biso   1.000  O
  O7       1.0000 0.87090  0.96496  0.05717  Biso   1.000  O
  O8       1.0000 0.62910  0.46496  0.44283  Biso   1.000  O
  O9       1.0000 0.34130  0.51243  0.83720  Biso   1.000  O
  O10      1.0000 0.15870  0.01243  0.66280  Biso   1.000  O
  O11      1.0000 0.65870  0.48757  0.16280  Biso   1.000  O
  O12      1.0000 0.84130  0.98757  0.33720  Biso   1.000  O
  O13      1.0000 0.11650  0.18615  0.87471  Biso   1.000  O
  O14      1.0000 0.38350  0.68615  0.62529  Biso   1.000  O
  O15      1.0000 0.88350  0.81385  0.12529  Biso   1.000  O
  O16      1.0000 0.61650  0.31385  0.37471  Biso   1.000  O
  O17      1.0000 0.12110  0.51271  0.29790  Biso   1.000  O
  O18      1.0000 0.37890  0.01271  0.20210  Biso   1.000  O
  O19      1.0000 0.87890  0.48729  0.70210  Biso   1.000  O
  O20      1.0000 0.62110  0.98729  0.79790  Biso   1.000  O
  O21      1.0000 0.30980  0.41032  0.71260  Biso   1.000  O
  O22      1.0000 0.19020  0.91032  0.78740  Biso   1.000  O
  O23      1.0000 0.69020  0.58968  0.28740  Biso   1.000  O
  O24      1.0000 0.80980  0.08968  0.21260  Biso   1.000  O
  O25      1.0000 0.27440  0.40426  0.38610  Biso   1.000  O
  O26      1.0000 0.22560  0.90426  0.11390  Biso   1.000  O
  O27      1.0000 0.72560  0.59574  0.61390  Biso   1.000  O
  O28      1.0000 0.77440  0.09574  0.88610  Biso   1.000  O
  O29      1.0000 0.95030  0.40505  0.35740  Biso   1.000  O
  O30      1.0000 0.54970  0.90505  0.14260  Biso   1.000  O
  O31      1.0000 0.04970  0.59495  0.64260  Biso   1.000  O
  O32      1.0000 0.45030  0.09495  0.85740  Biso   1.000  O
  C1       1.0000 0.13640  0.39551  0.15070  Biso   1.000  C
  C2       1.0000 0.36360  0.89551  0.34930  Biso   1.000  C
  C3       1.0000 0.86360  0.60449  0.84930  Biso   1.000  C
  C4       1.0000 0.63640  0.10449  0.65070  Biso   1.000  C
  C5       1.0000 0.22680  0.40446  0.92970  Biso   1.000  C
  C6       1.0000 0.27320  0.90446  0.57030  Biso   1.000  C
  C7       1.0000 0.77320  0.59554  0.07030  Biso   1.000  C
  C8       1.0000 0.72680  0.09554  0.42970  Biso   1.000  C
  C9       1.0000 0.19480  0.32932  0.91390  Biso   1.000  C
  C10      1.0000 0.30520  0.82932  0.58610  Biso   1.000  C
  C11      1.0000 0.80520  0.67068  0.08610  Biso   1.000  C
  C12      1.0000 0.69480  0.17068  0.41390  Biso   1.000  C
  H1       1.0000 0.21730  0.30680  0.83450  Biso   1.000  H
  H2       1.0000 0.28270  0.80680  0.66550  Biso   1.000  H
  H3       1.0000 0.78270  0.69320  0.16550  Biso   1.000  H
  H4       1.0000 0.71730  0.19320  0.33450  Biso   1.000  H
  C13      1.0000 0.13000  0.28762  0.01490  Biso   1.000  C
  C14      1.0000 0.37000  0.78762  0.48510  Biso   1.000  C
  C15      1.0000 0.87000  0.71238  0.98510  Biso   1.000  C
  C16      1.0000 0.63000  0.21238  0.51490  Biso   1.000  C
  C17      1.0000 0.09550  0.20712  0.99100  Biso   1.000  C
  C18      1.0000 0.40450  0.70712  0.50900  Biso   1.000  C
  C19      1.0000 0.90450  0.79288  0.00900  Biso   1.000  C
  C20      1.0000 0.59550  0.29288  0.49100  Biso   1.000  C
  C21      1.0000 0.10000  0.32066  0.13480  Biso   1.000  C
  C22      1.0000 0.40000  0.82066  0.36520  Biso   1.000  C
  C23      1.0000 0.90000  0.67934  0.86520  Biso   1.000  C
  C24      1.0000 0.60000  0.17934  0.63480  Biso   1.000  C
  H5       1.0000 0.05650  0.29330  0.20320  Biso   1.000  H
  H6       1.0000 0.44350  0.79330  0.29680  Biso   1.000  H
  H7       1.0000 0.94350  0.70670  0.79680  Biso   1.000  H
  H8       1.0000 0.55650  0.20670  0.70320  Biso   1.000  H
  C25      1.0000 0.19830  0.43820  0.04970  Biso   1.000  C
  C26      1.0000 0.30170  0.93820  0.45030  Biso   1.000  C
  C27      1.0000 0.80170  0.56180  0.95030  Biso   1.000  C
  C28      1.0000 0.69830  0.06180  0.54970  Biso   1.000  C
  H9       1.0000 0.22040  0.48820  0.06200  Biso   1.000  H
  H10      1.0000 0.27960  0.98820  0.43800  Biso   1.000  H
  H11      1.0000 0.77960  0.51180  0.93800  Biso   1.000  H
  H12      1.0000 0.72040  0.01180  0.56200  Biso   1.000  H
  C29      1.0000 0.29800  0.44620  0.81770  Biso   1.000  C
  C30      1.0000 0.20200  0.94620  0.68230  Biso   1.000  C
  C31      1.0000 0.70200  0.55380  0.18230  Biso   1.000  C
  C32      1.0000 0.79800  0.05380  0.31770  Biso   1.000  C
  O33      1.0000 0.11610  0.15468  0.62220  Biso   1.000  O
  O34      1.0000 0.38390  0.65468  0.87780  Biso   1.000  O
  O35      1.0000 0.88390  0.84532  0.37780  Biso   1.000  O
  O36      1.0000 0.61610  0.34532  0.12220  Biso   1.000  O
  O37      1.0000 0.03810  0.30131  0.58720  Biso   1.000  O
  O38      1.0000 0.46190  0.80131  0.91280  Biso   1.000  O
  O39      1.0000 0.96190  0.69869  0.41280  Biso   1.000  O
  O40      1.0000 0.53810  0.19869  0.08720  Biso   1.000  O
  O41      1.0000 0.21460  0.13230  0.36270  Biso   1.000  O
  O42      1.0000 0.28540  0.63230  0.13730  Biso   1.000  O
  O43      1.0000 0.78540  0.86770  0.63730  Biso   1.000  O
  O44      1.0000 0.71460  0.36770  0.86270  Biso   1.000  O
