data_image0
_cell_length_a       7.355
_cell_length_b       18.215
_cell_length_c       10.152
_cell_angle_alpha    90
_cell_angle_beta     94.502
_cell_angle_gamma    90

_symmetry_space_group_name_H-M    "P 1"
_symmetry_int_tables_number       1

loop_
  _symmetry_equiv_pos_as_xyz
  'x, y, z'

loop_
  _atom_site_label
  _atom_site_occupancy
  _atom_site_fract_x
  _atom_site_fract_y
  _atom_site_fract_z
  _atom_site_thermal_displace_type
  _atom_site_B_iso_or_equiv
  _atom_site_type_symbol
  Cu1      1.0000 0.13343  0.09336  0.78233  Biso   1.000  Cu
  Cu2      1.0000 0.36657  0.59336  0.71767  Biso   1.000  Cu
  Cu3      1.0000 0.86657  0.90664  0.21767  Biso   1.000  Cu
  Cu4      1.0000 0.63343  0.40664  0.28233  Biso   1.000  Cu
  Cu5      1.0000 0.95077  0.06848  0.06565  Biso   1.000  Cu
  Cu6      1.0000 0.54923  0.56848  0.43435  Biso   1.000  Cu
  Cu7      1.0000 0.04923  0.93152  0.93435  Biso   1.000  Cu
  Cu8      1.0000 0.45077  0.43152  0.56565  Biso   1.000  Cu
  S1       1.0000 0.11542  0.43386  0.30646  Biso   1.000  S
  S2       1.0000 0.38458  0.93386  0.19354  Biso   1.000  S
  S3       1.0000 0.88458  0.56614  0.69354  Biso   1.000  S
  S4       1.0000 0.61542  0.06614  0.80646  Biso   1.000  S
  O1       1.0000 0.04660  0.16771  0.08440  Biso   1.000  O
  O2       1.0000 0.45340  0.66771  0.41560  Biso   1.000  O
  O3       1.0000 0.95340  0.83229  0.91560  Biso   1.000  O
  O4       1.0000 0.54660  0.33229  0.58440  Biso   1.000  O
  O5       1.0000 0.13120  0.03516  0.94523  Biso   1.000  O
  O6       1.0000 0.36880  0.53516  0.55477  Biso   1.000  O
  O7       1.0000 0.86880  0.96484  0.05477  Biso   1.000  O
  O8       1.0000 0.63120  0.46484  0.44523  Biso   1.000  O
  O9       1.0000 0.33900  0.51109  0.83510  Biso   1.000  O
  O10      1.0000 0.16100  0.01109  0.66490  Biso   1.000  O
  O11      1.0000 0.66100  0.48891  0.16490  Biso   1.000  O
  O12      1.0000 0.83900  0.98891  0.33510  Biso   1.000  O
  O13      1.0000 0.11530  0.18521  0.87380  Biso   1.000  O
  O14      1.0000 0.38470  0.68521  0.62620  Biso   1.000  O
  O15      1.0000 0.88470  0.81479  0.12620  Biso   1.000  O
  O16      1.0000 0.61530  0.31479  0.37380  Biso   1.000  O
  O17      1.0000 0.11280  0.51284  0.29430  Biso   1.000  O
  O18      1.0000 0.38720  0.01284  0.20570  Biso   1.000  O
  O19      1.0000 0.88720  0.48716  0.70570  Biso   1.000  O
  O20      1.0000 0.61280  0.98716  0.79430  Biso   1.000  O
  O21      1.0000 0.30080  0.40967  0.70690  Biso   1.000  O
  O22      1.0000 0.19920  0.90967  0.79310  Biso   1.000  O
  O23      1.0000 0.69920  0.59033  0.29310  Biso   1.000  O
  O24      1.0000 0.80080  0.09033  0.20690  Biso   1.000  O
  O25      1.0000 0.27780  0.40586  0.38110  Biso   1.000  O
  O26      1.0000 0.22220  0.90586  0.11890  Biso   1.000  O
  O27      1.0000 0.72220  0.59414  0.61890  Biso   1.000  O
  O28      1.0000 0.77780  0.09414  0.88110  Biso   1.000  O
  O29      1.0000 0.95130  0.40326  0.35760  Biso   1.000  O
  O30      1.0000 0.54870  0.90326  0.14240  Biso   1.000  O
  O31      1.0000 0.04870  0.59674  0.64240  Biso   1.000  O
  O32      1.0000 0.45130  0.09674  0.85760  Biso   1.000  O
  C1       1.0000 0.13120  0.39512  0.14830  Biso   1.000  C
  C2       1.0000 0.36880  0.89512  0.35170  Biso   1.000  C
  C3       1.0000 0.86880  0.60488  0.85170  Biso   1.000  C
  C4       1.0000 0.63120  0.10488  0.64830  Biso   1.000  C
  C5       1.0000 0.22210  0.40357  0.92650  Biso   1.000  C
  C6       1.0000 0.27790  0.90357  0.57350  Biso   1.000  C
  C7       1.0000 0.77790  0.59643  0.07350  Biso   1.000  C
  C8       1.0000 0.72210  0.09643  0.42650  Biso   1.000  C
  C9       1.0000 0.18960  0.32843  0.91110  Biso   1.000  C
  C10      1.0000 0.31040  0.82843  0.58890  Biso   1.000  C
  C11      1.0000 0.81040  0.67157  0.08890  Biso   1.000  C
  C12      1.0000 0.68960  0.17157  0.41110  Biso   1.000  C
  H1       1.0000 0.21080  0.30580  0.83160  Biso   1.000  H
  H2       1.0000 0.28920  0.80580  0.66840  Biso   1.000  H
  H3       1.0000 0.78920  0.69420  0.16840  Biso   1.000  H
  H4       1.0000 0.71080  0.19420  0.33160  Biso   1.000  H
  C13      1.0000 0.12590  0.28681  0.01310  Biso   1.000  C
  C14      1.0000 0.37410  0.78681  0.48690  Biso   1.000  C
  C15      1.0000 0.87410  0.71319  0.98690  Biso   1.000  C
  C16      1.0000 0.62590  0.21319  0.51310  Biso   1.000  C
  C17      1.0000 0.09290  0.20663  0.98920  Biso   1.000  C
  C18      1.0000 0.40710  0.70663  0.51080  Biso   1.000  C
  C19      1.0000 0.90710  0.79337  0.01080  Biso   1.000  C
  C20      1.0000 0.59290  0.29337  0.48920  Biso   1.000  C
  C21      1.0000 0.09500  0.32021  0.13250  Biso   1.000  C
  C22      1.0000 0.40500  0.82021  0.36750  Biso   1.000  C
  C23      1.0000 0.90500  0.67979  0.86750  Biso   1.000  C
  C24      1.0000 0.59500  0.17979  0.63250  Biso   1.000  C
  H5       1.0000 0.05100  0.29310  0.20080  Biso   1.000  H
  H6       1.0000 0.44900  0.79310  0.29920  Biso   1.000  H
  H7       1.0000 0.94900  0.70690  0.79920  Biso   1.000  H
  H8       1.0000 0.55100  0.20690  0.70080  Biso   1.000  H
  C25      1.0000 0.19240  0.43709  0.04680  Biso   1.000  C
  C26      1.0000 0.30760  0.93709  0.45320  Biso   1.000  C
  C27      1.0000 0.80760  0.56291  0.95320  Biso   1.000  C
  C28      1.0000 0.69240  0.06291  0.54680  Biso   1.000  C
  H9       1.0000 0.21350  0.48710  0.05860  Biso   1.000  H
  H10      1.0000 0.28650  0.98710  0.44140  Biso   1.000  H
  H11      1.0000 0.78650  0.51290  0.94140  Biso   1.000  H
  H12      1.0000 0.71350  0.01290  0.55860  Biso   1.000  H
  C29      1.0000 0.29260  0.44509  0.81450  Biso   1.000  C
  C30      1.0000 0.20740  0.94509  0.68550  Biso   1.000  C
  C31      1.0000 0.70740  0.55491  0.18550  Biso   1.000  C
  C32      1.0000 0.79260  0.05491  0.31450  Biso   1.000  C
  O33      1.0000 0.11220  0.15241  0.62010  Biso   1.000  O
  O34      1.0000 0.38780  0.65241  0.87990  Biso   1.000  O
  O35      1.0000 0.88780  0.84759  0.37990  Biso   1.000  O
  O36      1.0000 0.61220  0.34759  0.12010  Biso   1.000  O
  O37      1.0000 0.03850  0.29967  0.58340  Biso   1.000  O
  O38      1.0000 0.46150  0.79967  0.91660  Biso   1.000  O
  O39      1.0000 0.96150  0.70033  0.41660  Biso   1.000  O
  O40      1.0000 0.53850  0.20033  0.08340  Biso   1.000  O
  O41      1.0000 0.20800  0.12760  0.36030  Biso   1.000  O
  O42      1.0000 0.29200  0.62760  0.13970  Biso   1.000  O
  O43      1.0000 0.79200  0.87240  0.63970  Biso   1.000  O
  O44      1.0000 0.70800  0.37240  0.86030  Biso   1.000  O
