data_image0
_cell_length_a       7.31
_cell_length_b       18.28
_cell_length_c       10.145
_cell_angle_alpha    90
_cell_angle_beta     94.645
_cell_angle_gamma    90

_symmetry_space_group_name_H-M    "P 1"
_symmetry_int_tables_number       1

loop_
  _symmetry_equiv_pos_as_xyz
  'x, y, z'

loop_
  _atom_site_label
  _atom_site_occupancy
  _atom_site_fract_x
  _atom_site_fract_y
  _atom_site_fract_z
  _atom_site_thermal_displace_type
  _atom_site_B_iso_or_equiv
  _atom_site_type_symbol
  Cu1      1.0000 0.13354  0.09313  0.78250  Biso   1.000  Cu
  Cu2      1.0000 0.36646  0.59313  0.71750  Biso   1.000  Cu
  Cu3      1.0000 0.86646  0.90687  0.21750  Biso   1.000  Cu
  Cu4      1.0000 0.63354  0.40687  0.28250  Biso   1.000  Cu
  Cu5      1.0000 0.95008  0.06848  0.06520  Biso   1.000  Cu
  Cu6      1.0000 0.54992  0.56848  0.43480  Biso   1.000  Cu
  Cu7      1.0000 0.04992  0.93152  0.93480  Biso   1.000  Cu
  Cu8      1.0000 0.45008  0.43152  0.56520  Biso   1.000  Cu
  S1       1.0000 0.11509  0.43380  0.30567  Biso   1.000  S
  S2       1.0000 0.38491  0.93380  0.19433  Biso   1.000  S
  S3       1.0000 0.88491  0.56620  0.69433  Biso   1.000  S
  S4       1.0000 0.61509  0.06620  0.80567  Biso   1.000  S
  O1       1.0000 0.04550  0.16753  0.08433  Biso   1.000  O
  O2       1.0000 0.45450  0.66753  0.41567  Biso   1.000  O
  O3       1.0000 0.95450  0.83247  0.91567  Biso   1.000  O
  O4       1.0000 0.54550  0.33247  0.58433  Biso   1.000  O
  O5       1.0000 0.13140  0.03503  0.94584  Biso   1.000  O
  O6       1.0000 0.36860  0.53503  0.55416  Biso   1.000  O
  O7       1.0000 0.86860  0.96497  0.05416  Biso   1.000  O
  O8       1.0000 0.63140  0.46497  0.44584  Biso   1.000  O
  O9       1.0000 0.33840  0.51044  0.83430  Biso   1.000  O
  O10      1.0000 0.16160  0.01044  0.66570  Biso   1.000  O
  O11      1.0000 0.66160  0.48956  0.16570  Biso   1.000  O
  O12      1.0000 0.83840  0.98956  0.33430  Biso   1.000  O
  O13      1.0000 0.11590  0.18504  0.87390  Biso   1.000  O
  O14      1.0000 0.38410  0.68504  0.62610  Biso   1.000  O
  O15      1.0000 0.88410  0.81496  0.12610  Biso   1.000  O
  O16      1.0000 0.61590  0.31496  0.37390  Biso   1.000  O
  O17      1.0000 0.11160  0.51262  0.29340  Biso   1.000  O
  O18      1.0000 0.38840  0.01262  0.20660  Biso   1.000  O
  O19      1.0000 0.88840  0.48738  0.70660  Biso   1.000  O
  O20      1.0000 0.61160  0.98738  0.79340  Biso   1.000  O
  O21      1.0000 0.29970  0.40950  0.70640  Biso   1.000  O
  O22      1.0000 0.20030  0.90950  0.79360  Biso   1.000  O
  O23      1.0000 0.70030  0.59050  0.29360  Biso   1.000  O
  O24      1.0000 0.79970  0.09050  0.20640  Biso   1.000  O
  O25      1.0000 0.27910  0.40622  0.37990  Biso   1.000  O
  O26      1.0000 0.22090  0.90622  0.12010  Biso   1.000  O
  O27      1.0000 0.72090  0.59378  0.62010  Biso   1.000  O
  O28      1.0000 0.77910  0.09378  0.87990  Biso   1.000  O
  O29      1.0000 0.95140  0.40307  0.35720  Biso   1.000  O
  O30      1.0000 0.54860  0.90307  0.14280  Biso   1.000  O
  O31      1.0000 0.04860  0.59693  0.64280  Biso   1.000  O
  O32      1.0000 0.45140  0.09693  0.85720  Biso   1.000  O
  C1       1.0000 0.12980  0.39509  0.14700  Biso   1.000  C
  C2       1.0000 0.37020  0.89509  0.35300  Biso   1.000  C
  C3       1.0000 0.87020  0.60491  0.85300  Biso   1.000  C
  C4       1.0000 0.62980  0.10491  0.64700  Biso   1.000  C
  C5       1.0000 0.22020  0.40307  0.92520  Biso   1.000  C
  C6       1.0000 0.27980  0.90307  0.57480  Biso   1.000  C
  C7       1.0000 0.77980  0.59693  0.07480  Biso   1.000  C
  C8       1.0000 0.72020  0.09693  0.42520  Biso   1.000  C
  C9       1.0000 0.18860  0.32826  0.91070  Biso   1.000  C
  C10      1.0000 0.31140  0.82826  0.58930  Biso   1.000  C
  C11      1.0000 0.81140  0.67174  0.08930  Biso   1.000  C
  C12      1.0000 0.68860  0.17174  0.41070  Biso   1.000  C
  H1       1.0000 0.21060  0.30560  0.83130  Biso   1.000  H
  H2       1.0000 0.28940  0.80560  0.66870  Biso   1.000  H
  H3       1.0000 0.78940  0.69440  0.16870  Biso   1.000  H
  H4       1.0000 0.71060  0.19440  0.33130  Biso   1.000  H
  C13      1.0000 0.12500  0.28665  0.01220  Biso   1.000  C
  C14      1.0000 0.37500  0.78665  0.48780  Biso   1.000  C
  C15      1.0000 0.87500  0.71335  0.98780  Biso   1.000  C
  C16      1.0000 0.62500  0.21335  0.51220  Biso   1.000  C
  C17      1.0000 0.09280  0.20668  0.98920  Biso   1.000  C
  C18      1.0000 0.40720  0.70668  0.51080  Biso   1.000  C
  C19      1.0000 0.90720  0.79332  0.01080  Biso   1.000  C
  C20      1.0000 0.59280  0.29332  0.48920  Biso   1.000  C
  C21      1.0000 0.09430  0.32012  0.13220  Biso   1.000  C
  C22      1.0000 0.40570  0.82012  0.36780  Biso   1.000  C
  C23      1.0000 0.90570  0.67988  0.86780  Biso   1.000  C
  C24      1.0000 0.59430  0.17988  0.63220  Biso   1.000  C
  H5       1.0000 0.05110  0.29310  0.20100  Biso   1.000  H
  H6       1.0000 0.44890  0.79310  0.29900  Biso   1.000  H
  H7       1.0000 0.94890  0.70690  0.79900  Biso   1.000  H
  H8       1.0000 0.55110  0.20690  0.70100  Biso   1.000  H
  C25      1.0000 0.19110  0.43694  0.04590  Biso   1.000  C
  C26      1.0000 0.30890  0.93694  0.45410  Biso   1.000  C
  C27      1.0000 0.80890  0.56306  0.95410  Biso   1.000  C
  C28      1.0000 0.69110  0.06306  0.54590  Biso   1.000  C
  H9       1.0000 0.21270  0.48670  0.05760  Biso   1.000  H
  H10      1.0000 0.28730  0.98670  0.44240  Biso   1.000  H
  H11      1.0000 0.78730  0.51330  0.94240  Biso   1.000  H
  H12      1.0000 0.71270  0.01330  0.55760  Biso   1.000  H
  C29      1.0000 0.29110  0.44494  0.81350  Biso   1.000  C
  C30      1.0000 0.20890  0.94494  0.68650  Biso   1.000  C
  C31      1.0000 0.70890  0.55506  0.18650  Biso   1.000  C
  C32      1.0000 0.79110  0.05506  0.31350  Biso   1.000  C
  O33      1.0000 0.11130  0.15205  0.62010  Biso   1.000  O
  O34      1.0000 0.38870  0.65205  0.87990  Biso   1.000  O
  O35      1.0000 0.88870  0.84795  0.37990  Biso   1.000  O
  O36      1.0000 0.61130  0.34795  0.12010  Biso   1.000  O
  O37      1.0000 0.03880  0.29870  0.58240  Biso   1.000  O
  O38      1.0000 0.46120  0.79870  0.91760  Biso   1.000  O
  O39      1.0000 0.96120  0.70130  0.41760  Biso   1.000  O
  O40      1.0000 0.53880  0.20130  0.08240  Biso   1.000  O
  O41      1.0000 0.20570  0.12700  0.35950  Biso   1.000  O
  O42      1.0000 0.29430  0.62700  0.14050  Biso   1.000  O
  O43      1.0000 0.79430  0.87300  0.64050  Biso   1.000  O
  O44      1.0000 0.70570  0.37300  0.85950  Biso   1.000  O
