data_image0
_cell_length_a       7.356
_cell_length_b       18.208
_cell_length_c       10.167
_cell_angle_alpha    90
_cell_angle_beta     94.277
_cell_angle_gamma    90

_symmetry_space_group_name_H-M    "P 1"
_symmetry_int_tables_number       1

loop_
  _symmetry_equiv_pos_as_xyz
  'x, y, z'

loop_
  _atom_site_label
  _atom_site_occupancy
  _atom_site_fract_x
  _atom_site_fract_y
  _atom_site_fract_z
  _atom_site_thermal_displace_type
  _atom_site_B_iso_or_equiv
  _atom_site_type_symbol
  Cu1      1.0000 0.13398  0.09508  0.78301  Biso   1.000  Cu
  Cu2      1.0000 0.36602  0.59508  0.71699  Biso   1.000  Cu
  Cu3      1.0000 0.86602  0.90492  0.21699  Biso   1.000  Cu
  Cu4      1.0000 0.63398  0.40492  0.28301  Biso   1.000  Cu
  Cu5      1.0000 0.95858  0.06837  0.06955  Biso   1.000  Cu
  Cu6      1.0000 0.54142  0.56837  0.43045  Biso   1.000  Cu
  Cu7      1.0000 0.04142  0.93163  0.93045  Biso   1.000  Cu
  Cu8      1.0000 0.45858  0.43163  0.56955  Biso   1.000  Cu
  S1       1.0000 0.12224  0.43511  0.31028  Biso   1.000  S
  S2       1.0000 0.37776  0.93511  0.18972  Biso   1.000  S
  S3       1.0000 0.87776  0.56489  0.68972  Biso   1.000  S
  S4       1.0000 0.62224  0.06489  0.81028  Biso   1.000  S
  O1       1.0000 0.05360  0.16825  0.08560  Biso   1.000  O
  O2       1.0000 0.44640  0.66825  0.41440  Biso   1.000  O
  O3       1.0000 0.94640  0.83175  0.91440  Biso   1.000  O
  O4       1.0000 0.55360  0.33175  0.58560  Biso   1.000  O
  O5       1.0000 0.12810  0.03515  0.94150  Biso   1.000  O
  O6       1.0000 0.37190  0.53515  0.55850  Biso   1.000  O
  O7       1.0000 0.87190  0.96485  0.05850  Biso   1.000  O
  O8       1.0000 0.62810  0.46485  0.44150  Biso   1.000  O
  O9       1.0000 0.34410  0.51405  0.83860  Biso   1.000  O
  O10      1.0000 0.15590  0.01405  0.66140  Biso   1.000  O
  O11      1.0000 0.65590  0.48595  0.16140  Biso   1.000  O
  O12      1.0000 0.84410  0.98595  0.33860  Biso   1.000  O
  O13      1.0000 0.11930  0.18682  0.87570  Biso   1.000  O
  O14      1.0000 0.38070  0.68682  0.62430  Biso   1.000  O
  O15      1.0000 0.88070  0.81318  0.12430  Biso   1.000  O
  O16      1.0000 0.61930  0.31318  0.37570  Biso   1.000  O
  O17      1.0000 0.13540  0.51320  0.30100  Biso   1.000  O
  O18      1.0000 0.36460  0.01320  0.19900  Biso   1.000  O
  O19      1.0000 0.86460  0.48680  0.69900  Biso   1.000  O
  O20      1.0000 0.63540  0.98680  0.80100  Biso   1.000  O
  O21      1.0000 0.31770  0.41045  0.71580  Biso   1.000  O
  O22      1.0000 0.18230  0.91045  0.78420  Biso   1.000  O
  O23      1.0000 0.68230  0.58955  0.28420  Biso   1.000  O
  O24      1.0000 0.81770  0.08955  0.21580  Biso   1.000  O
  O25      1.0000 0.27250  0.40250  0.38860  Biso   1.000  O
  O26      1.0000 0.22750  0.90250  0.11140  Biso   1.000  O
  O27      1.0000 0.72750  0.59750  0.61140  Biso   1.000  O
  O28      1.0000 0.77250  0.09750  0.88860  Biso   1.000  O
  O29      1.0000 0.95160  0.40780  0.35540  Biso   1.000  O
  O30      1.0000 0.54840  0.90780  0.14460  Biso   1.000  O
  O31      1.0000 0.04840  0.59220  0.64460  Biso   1.000  O
  O32      1.0000 0.45160  0.09220  0.85540  Biso   1.000  O
  C1       1.0000 0.14140  0.39600  0.15270  Biso   1.000  C
  C2       1.0000 0.35860  0.89600  0.34730  Biso   1.000  C
  C3       1.0000 0.85860  0.60400  0.84730  Biso   1.000  C
  C4       1.0000 0.64140  0.10400  0.65270  Biso   1.000  C
  C5       1.0000 0.23240  0.40470  0.93170  Biso   1.000  C
  C6       1.0000 0.26760  0.90470  0.56830  Biso   1.000  C
  C7       1.0000 0.76760  0.59530  0.06830  Biso   1.000  C
  C8       1.0000 0.73240  0.09530  0.43170  Biso   1.000  C
  C9       1.0000 0.19930  0.33010  0.91550  Biso   1.000  C
  C10      1.0000 0.30070  0.83010  0.58450  Biso   1.000  C
  C11      1.0000 0.80070  0.66990  0.08450  Biso   1.000  C
  C12      1.0000 0.69930  0.16990  0.41550  Biso   1.000  C
  H1       1.0000 0.22120  0.30780  0.83590  Biso   1.000  H
  H2       1.0000 0.27880  0.80780  0.66410  Biso   1.000  H
  H3       1.0000 0.77880  0.69220  0.16410  Biso   1.000  H
  H4       1.0000 0.72120  0.19220  0.33590  Biso   1.000  H
  C13      1.0000 0.13410  0.28800  0.01610  Biso   1.000  C
  C14      1.0000 0.36590  0.78800  0.48390  Biso   1.000  C
  C15      1.0000 0.86590  0.71200  0.98390  Biso   1.000  C
  C16      1.0000 0.63410  0.21200  0.51610  Biso   1.000  C
  C17      1.0000 0.10000  0.20760  0.99180  Biso   1.000  C
  C18      1.0000 0.40000  0.70760  0.50820  Biso   1.000  C
  C19      1.0000 0.90000  0.79240  0.00820  Biso   1.000  C
  C20      1.0000 0.60000  0.29240  0.49180  Biso   1.000  C
  C21      1.0000 0.10610  0.32150  0.13700  Biso   1.000  C
  C22      1.0000 0.39390  0.82150  0.36300  Biso   1.000  C
  C23      1.0000 0.89390  0.67850  0.86300  Biso   1.000  C
  C24      1.0000 0.60610  0.17850  0.63700  Biso   1.000  C
  H5       1.0000 0.06440  0.29420  0.20590  Biso   1.000  H
  H6       1.0000 0.43560  0.79420  0.29410  Biso   1.000  H
  H7       1.0000 0.93560  0.70580  0.79410  Biso   1.000  H
  H8       1.0000 0.56440  0.20580  0.70590  Biso   1.000  H
  C25      1.0000 0.20250  0.43920  0.05230  Biso   1.000  C
  C26      1.0000 0.29750  0.93920  0.44770  Biso   1.000  C
  C27      1.0000 0.79750  0.56080  0.94770  Biso   1.000  C
  C28      1.0000 0.70250  0.06080  0.55230  Biso   1.000  C
  H9       1.0000 0.22290  0.48920  0.06430  Biso   1.000  H
  H10      1.0000 0.27710  0.98920  0.43570  Biso   1.000  H
  H11      1.0000 0.77710  0.51080  0.93570  Biso   1.000  H
  H12      1.0000 0.72290  0.01080  0.56430  Biso   1.000  H
  C29      1.0000 0.30310  0.44730  0.82020  Biso   1.000  C
  C30      1.0000 0.19690  0.94730  0.67980  Biso   1.000  C
  C31      1.0000 0.69690  0.55270  0.17980  Biso   1.000  C
  C32      1.0000 0.80310  0.05270  0.32020  Biso   1.000  C
  O33      1.0000 0.11790  0.15660  0.62410  Biso   1.000  O
  O34      1.0000 0.38210  0.65660  0.87590  Biso   1.000  O
  O35      1.0000 0.88210  0.84340  0.37590  Biso   1.000  O
  O36      1.0000 0.61790  0.34340  0.12410  Biso   1.000  O
  O37      1.0000 0.03790  0.30220  0.58890  Biso   1.000  O
  O38      1.0000 0.46210  0.80220  0.91110  Biso   1.000  O
  O39      1.0000 0.96210  0.69780  0.41110  Biso   1.000  O
  O40      1.0000 0.53790  0.19780  0.08890  Biso   1.000  O
  O41      1.0000 0.21870  0.13630  0.36570  Biso   1.000  O
  O42      1.0000 0.28130  0.63630  0.13430  Biso   1.000  O
  O43      1.0000 0.78130  0.86370  0.63430  Biso   1.000  O
  O44      1.0000 0.71870  0.36370  0.86570  Biso   1.000  O
