data_image0
_cell_length_a       7.2949
_cell_length_b       18.2726
_cell_length_c       10.1245
_cell_angle_alpha    90
_cell_angle_beta     94.891
_cell_angle_gamma    90

_symmetry_space_group_name_H-M    "P 1"
_symmetry_int_tables_number       1

loop_
  _symmetry_equiv_pos_as_xyz
  'x, y, z'

loop_
  _atom_site_label
  _atom_site_occupancy
  _atom_site_fract_x
  _atom_site_fract_y
  _atom_site_fract_z
  _atom_site_thermal_displace_type
  _atom_site_B_iso_or_equiv
  _atom_site_type_symbol
  Cu1      1.0000 0.13367  0.09248  0.78286  Biso   1.000  Cu
  Cu2      1.0000 0.36633  0.59248  0.71714  Biso   1.000  Cu
  Cu3      1.0000 0.86633  0.90752  0.21714  Biso   1.000  Cu
  Cu4      1.0000 0.63367  0.40752  0.28286  Biso   1.000  Cu
  Cu5      1.0000 0.94859  0.06851  0.06423  Biso   1.000  Cu
  Cu6      1.0000 0.55141  0.56851  0.43577  Biso   1.000  Cu
  Cu7      1.0000 0.05141  0.93149  0.93577  Biso   1.000  Cu
  Cu8      1.0000 0.44859  0.43149  0.56423  Biso   1.000  Cu
  S1       1.0000 0.11398  0.43351  0.30376  Biso   1.000  S
  S2       1.0000 0.38602  0.93351  0.19624  Biso   1.000  S
  S3       1.0000 0.88602  0.56649  0.69624  Biso   1.000  S
  S4       1.0000 0.61398  0.06649  0.80376  Biso   1.000  S
  O1       1.0000 0.04440  0.16769  0.08361  Biso   1.000  O
  O2       1.0000 0.45560  0.66769  0.41639  Biso   1.000  O
  O3       1.0000 0.95560  0.83231  0.91639  Biso   1.000  O
  O4       1.0000 0.54440  0.33231  0.58361  Biso   1.000  O
  O5       1.0000 0.13300  0.03499  0.94713  Biso   1.000  O
  O6       1.0000 0.36700  0.53499  0.55287  Biso   1.000  O
  O7       1.0000 0.86700  0.96501  0.05287  Biso   1.000  O
  O8       1.0000 0.63300  0.46501  0.44713  Biso   1.000  O
  O9       1.0000 0.33690  0.50975  0.83278  Biso   1.000  O
  O10      1.0000 0.16310  0.00975  0.66722  Biso   1.000  O
  O11      1.0000 0.66310  0.49025  0.16722  Biso   1.000  O
  O12      1.0000 0.83690  0.99025  0.33278  Biso   1.000  O
  O13      1.0000 0.11580  0.18455  0.87281  Biso   1.000  O
  O14      1.0000 0.38420  0.68455  0.62719  Biso   1.000  O
  O15      1.0000 0.88420  0.81545  0.12719  Biso   1.000  O
  O16      1.0000 0.61580  0.31545  0.37281  Biso   1.000  O
  O17      1.0000 0.10790  0.51246  0.29139  Biso   1.000  O
  O18      1.0000 0.39210  0.01246  0.20861  Biso   1.000  O
  O19      1.0000 0.89210  0.48754  0.70861  Biso   1.000  O
  O20      1.0000 0.60790  0.98754  0.79139  Biso   1.000  O
  O21      1.0000 0.29500  0.40928  0.70322  Biso   1.000  O
  O22      1.0000 0.20500  0.90928  0.79678  Biso   1.000  O
  O23      1.0000 0.70500  0.59072  0.29678  Biso   1.000  O
  O24      1.0000 0.79500  0.09072  0.20322  Biso   1.000  O
  O25      1.0000 0.28270  0.40706  0.37672  Biso   1.000  O
  O26      1.0000 0.21730  0.90706  0.12328  Biso   1.000  O
  O27      1.0000 0.71730  0.59294  0.62328  Biso   1.000  O
  O28      1.0000 0.78270  0.09294  0.87672  Biso   1.000  O
  O29      1.0000 0.95190  0.40195  0.35716  Biso   1.000  O
  O30      1.0000 0.54810  0.90195  0.14284  Biso   1.000  O
  O31      1.0000 0.04810  0.59805  0.64284  Biso   1.000  O
  O32      1.0000 0.45190  0.09805  0.85716  Biso   1.000  O
  C1       1.0000 0.12600  0.39511  0.14450  Biso   1.000  C
  C2       1.0000 0.37400  0.89511  0.35550  Biso   1.000  C
  C3       1.0000 0.87400  0.60489  0.85550  Biso   1.000  C
  C4       1.0000 0.62600  0.10489  0.64450  Biso   1.000  C
  C5       1.0000 0.21690  0.40243  0.92300  Biso   1.000  C
  C6       1.0000 0.28310  0.90243  0.57700  Biso   1.000  C
  C7       1.0000 0.78310  0.59757  0.07700  Biso   1.000  C
  C8       1.0000 0.71690  0.09757  0.42300  Biso   1.000  C
  C9       1.0000 0.18600  0.32779  0.90840  Biso   1.000  C
  C10      1.0000 0.31400  0.82779  0.59160  Biso   1.000  C
  C11      1.0000 0.81400  0.67221  0.09160  Biso   1.000  C
  C12      1.0000 0.68600  0.17221  0.40840  Biso   1.000  C
  H1       1.0000 0.20790  0.30500  0.82910  Biso   1.000  H
  H2       1.0000 0.29210  0.80500  0.67090  Biso   1.000  H
  H3       1.0000 0.79210  0.69500  0.17090  Biso   1.000  H
  H4       1.0000 0.70790  0.19500  0.32910  Biso   1.000  H
  C13      1.0000 0.12240  0.28642  0.01090  Biso   1.000  C
  C14      1.0000 0.37760  0.78642  0.48910  Biso   1.000  C
  C15      1.0000 0.87760  0.71358  0.98910  Biso   1.000  C
  C16      1.0000 0.62240  0.21358  0.51090  Biso   1.000  C
  C17      1.0000 0.09170  0.20632  0.98830  Biso   1.000  C
  C18      1.0000 0.40830  0.70632  0.51170  Biso   1.000  C
  C19      1.0000 0.90830  0.79368  0.01170  Biso   1.000  C
  C20      1.0000 0.59170  0.29368  0.48830  Biso   1.000  C
  C21      1.0000 0.09120  0.32004  0.13000  Biso   1.000  C
  C22      1.0000 0.40880  0.82004  0.37000  Biso   1.000  C
  C23      1.0000 0.90880  0.67996  0.87000  Biso   1.000  C
  C24      1.0000 0.59120  0.17996  0.63000  Biso   1.000  C
  H5       1.0000 0.04800  0.29320  0.19900  Biso   1.000  H
  H6       1.0000 0.45200  0.79320  0.30100  Biso   1.000  H
  H7       1.0000 0.95200  0.70680  0.80100  Biso   1.000  H
  H8       1.0000 0.54800  0.20680  0.69900  Biso   1.000  H
  C25      1.0000 0.18780  0.43689  0.04300  Biso   1.000  C
  C26      1.0000 0.31220  0.93689  0.45700  Biso   1.000  C
  C27      1.0000 0.81220  0.56311  0.95700  Biso   1.000  C
  C28      1.0000 0.68780  0.06311  0.54300  Biso   1.000  C
  H9       1.0000 0.20950  0.48670  0.05430  Biso   1.000  H
  H10      1.0000 0.29050  0.98670  0.44570  Biso   1.000  H
  H11      1.0000 0.79050  0.51330  0.94570  Biso   1.000  H
  H12      1.0000 0.70950  0.01330  0.55430  Biso   1.000  H
  C29      1.0000 0.28730  0.44445  0.81120  Biso   1.000  C
  C30      1.0000 0.21270  0.94445  0.68880  Biso   1.000  C
  C31      1.0000 0.71270  0.55555  0.18880  Biso   1.000  C
  C32      1.0000 0.78730  0.05555  0.31120  Biso   1.000  C
  O33      1.0000 0.10860  0.15047  0.61883  Biso   1.000  O
  O34      1.0000 0.39140  0.65047  0.88117  Biso   1.000  O
  O35      1.0000 0.89140  0.84953  0.38117  Biso   1.000  O
  O36      1.0000 0.60860  0.34953  0.11883  Biso   1.000  O
  O37      1.0000 0.04010  0.29761  0.57970  Biso   1.000  O
  O38      1.0000 0.45990  0.79761  0.92030  Biso   1.000  O
  O39      1.0000 0.95990  0.70239  0.42030  Biso   1.000  O
  O40      1.0000 0.54010  0.20239  0.07970  Biso   1.000  O
  O41      1.0000 0.20170  0.12428  0.35820  Biso   1.000  O
  O42      1.0000 0.29830  0.62428  0.14180  Biso   1.000  O
  O43      1.0000 0.79830  0.87572  0.64180  Biso   1.000  O
  O44      1.0000 0.70170  0.37572  0.85820  Biso   1.000  O
