data_image0
_cell_length_a       7.3333
_cell_length_b       18.153
_cell_length_c       10.1729
_cell_angle_alpha    90
_cell_angle_beta     94.379
_cell_angle_gamma    90

_symmetry_space_group_name_H-M    "P 1"
_symmetry_int_tables_number       1

loop_
  _symmetry_equiv_pos_as_xyz
  'x, y, z'

loop_
  _atom_site_label
  _atom_site_occupancy
  _atom_site_fract_x
  _atom_site_fract_y
  _atom_site_fract_z
  _atom_site_thermal_displace_type
  _atom_site_B_iso_or_equiv
  _atom_site_type_symbol
  Cu1      1.0000 0.13280  0.09430  0.78140  Biso   1.000  Cu
  Cu2      1.0000 0.36720  0.59430  0.71860  Biso   1.000  Cu
  Cu3      1.0000 0.86720  0.90570  0.21860  Biso   1.000  Cu
  Cu4      1.0000 0.63280  0.40570  0.28140  Biso   1.000  Cu
  Cu5      1.0000 0.95490  0.06820  0.06740  Biso   1.000  Cu
  Cu6      1.0000 0.54510  0.56820  0.43260  Biso   1.000  Cu
  Cu7      1.0000 0.04510  0.93180  0.93260  Biso   1.000  Cu
  Cu8      1.0000 0.45490  0.43180  0.56740  Biso   1.000  Cu
  S1       1.0000 0.11690  0.43400  0.30910  Biso   1.000  S
  S2       1.0000 0.38310  0.93400  0.19090  Biso   1.000  S
  S3       1.0000 0.88310  0.56600  0.69090  Biso   1.000  S
  S4       1.0000 0.61690  0.06600  0.80910  Biso   1.000  S
  O1       1.0000 0.04800  0.16640  0.08550  Biso   1.000  O
  O2       1.0000 0.45200  0.66640  0.41450  Biso   1.000  O
  O3       1.0000 0.95200  0.83360  0.91450  Biso   1.000  O
  O4       1.0000 0.54800  0.33360  0.58550  Biso   1.000  O
  O5       1.0000 0.13400  0.03450  0.94550  Biso   1.000  O
  O6       1.0000 0.36600  0.53450  0.55450  Biso   1.000  O
  O7       1.0000 0.86600  0.96550  0.05450  Biso   1.000  O
  O8       1.0000 0.63400  0.46550  0.44550  Biso   1.000  O
  O9       1.0000 0.33800  0.51110  0.83840  Biso   1.000  O
  O10      1.0000 0.16200  0.01110  0.66160  Biso   1.000  O
  O11      1.0000 0.66200  0.48890  0.16160  Biso   1.000  O
  O12      1.0000 0.83800  0.98890  0.33840  Biso   1.000  O
  O13      1.0000 0.11400  0.18530  0.87790  Biso   1.000  O
  O14      1.0000 0.38600  0.68530  0.62210  Biso   1.000  O
  O15      1.0000 0.88600  0.81470  0.12210  Biso   1.000  O
  O16      1.0000 0.61400  0.31470  0.37790  Biso   1.000  O
  O17      1.0000 0.12400  0.51240  0.29950  Biso   1.000  O
  O18      1.0000 0.37600  0.01240  0.20050  Biso   1.000  O
  O19      1.0000 0.87600  0.48760  0.70050  Biso   1.000  O
  O20      1.0000 0.62400  0.98760  0.79950  Biso   1.000  O
  O21      1.0000 0.31300  0.41120  0.71030  Biso   1.000  O
  O22      1.0000 0.18700  0.91120  0.78970  Biso   1.000  O
  O23      1.0000 0.68700  0.58880  0.28970  Biso   1.000  O
  O24      1.0000 0.81300  0.08880  0.21030  Biso   1.000  O
  O25      1.0000 0.27600  0.40490  0.39020  Biso   1.000  O
  O26      1.0000 0.22400  0.90490  0.10980  Biso   1.000  O
  O27      1.0000 0.72400  0.59510  0.60980  Biso   1.000  O
  O28      1.0000 0.77600  0.09510  0.89020  Biso   1.000  O
  O29      1.0000 0.95000  0.40450  0.35750  Biso   1.000  O
  O30      1.0000 0.55000  0.90450  0.14250  Biso   1.000  O
  O31      1.0000 0.05000  0.59550  0.64250  Biso   1.000  O
  O32      1.0000 0.45000  0.09550  0.85750  Biso   1.000  O
  C1       1.0000 0.13400  0.39580  0.14700  Biso   1.000  C
  C2       1.0000 0.36600  0.89580  0.35300  Biso   1.000  C
  C3       1.0000 0.86600  0.60420  0.85300  Biso   1.000  C
  C4       1.0000 0.63400  0.10420  0.64700  Biso   1.000  C
  C5       1.0000 0.22700  0.40240  0.93000  Biso   1.000  C
  C6       1.0000 0.27300  0.90240  0.57000  Biso   1.000  C
  C7       1.0000 0.77300  0.59760  0.07000  Biso   1.000  C
  C8       1.0000 0.72700  0.09760  0.43000  Biso   1.000  C
  C9       1.0000 0.20100  0.33000  0.91400  Biso   1.000  C
  C10      1.0000 0.29900  0.83000  0.58600  Biso   1.000  C
  C11      1.0000 0.79900  0.67000  0.08600  Biso   1.000  C
  C12      1.0000 0.70100  0.17000  0.41400  Biso   1.000  C
  H1       1.0000 0.22920  0.30780  0.83620  Biso   1.000  H
  H2       1.0000 0.27080  0.80780  0.66380  Biso   1.000  H
  H3       1.0000 0.77080  0.69220  0.16380  Biso   1.000  H
  H4       1.0000 0.72920  0.19220  0.33620  Biso   1.000  H
  C13      1.0000 0.13300  0.28800  0.01000  Biso   1.000  C
  C14      1.0000 0.36700  0.78800  0.49000  Biso   1.000  C
  C15      1.0000 0.86700  0.71200  0.99000  Biso   1.000  C
  C16      1.0000 0.63300  0.21200  0.51000  Biso   1.000  C
  C17      1.0000 0.09200  0.20490  0.99900  Biso   1.000  C
  C18      1.0000 0.40800  0.70490  0.50100  Biso   1.000  C
  C19      1.0000 0.90800  0.79510  0.00100  Biso   1.000  C
  C20      1.0000 0.59200  0.29510  0.49900  Biso   1.000  C
  C21      1.0000 0.10200  0.31970  0.13200  Biso   1.000  C
  C22      1.0000 0.39800  0.81970  0.36800  Biso   1.000  C
  C23      1.0000 0.89800  0.68030  0.86800  Biso   1.000  C
  C24      1.0000 0.60200  0.18030  0.63200  Biso   1.000  C
  H5       1.0000 0.06150  0.29150  0.20010  Biso   1.000  H
  H6       1.0000 0.43850  0.79150  0.29990  Biso   1.000  H
  H7       1.0000 0.93850  0.70850  0.79990  Biso   1.000  H
  H8       1.0000 0.56150  0.20850  0.70010  Biso   1.000  H
  C25      1.0000 0.19500  0.43670  0.04400  Biso   1.000  C
  C26      1.0000 0.30500  0.93670  0.45600  Biso   1.000  C
  C27      1.0000 0.80500  0.56330  0.95600  Biso   1.000  C
  C28      1.0000 0.69500  0.06330  0.54400  Biso   1.000  C
  H9       1.0000 0.21310  0.48720  0.05280  Biso   1.000  H
  H10      1.0000 0.28690  0.98720  0.44720  Biso   1.000  H
  H11      1.0000 0.78690  0.51280  0.94720  Biso   1.000  H
  H12      1.0000 0.71310  0.01280  0.55280  Biso   1.000  H
  C29      1.0000 0.30200  0.44430  0.81700  Biso   1.000  C
  C30      1.0000 0.19800  0.94430  0.68300  Biso   1.000  C
  C31      1.0000 0.69800  0.55570  0.18300  Biso   1.000  C
  C32      1.0000 0.80200  0.05570  0.31700  Biso   1.000  C
  O33      1.0000 0.11800  0.15430  0.62040  Biso   1.000  O
  O34      1.0000 0.38200  0.65430  0.87960  Biso   1.000  O
  O35      1.0000 0.88200  0.84570  0.37960  Biso   1.000  O
  O36      1.0000 0.61800  0.34570  0.12040  Biso   1.000  O
  O37      1.0000 0.03300  0.30240  0.58530  Biso   1.000  O
  O38      1.0000 0.46700  0.80240  0.91470  Biso   1.000  O
  O39      1.0000 0.96700  0.69760  0.41470  Biso   1.000  O
  O40      1.0000 0.53300  0.19760  0.08530  Biso   1.000  O
  O41      1.0000 0.21400  0.13230  0.36350  Biso   1.000  O
  O42      1.0000 0.28600  0.63230  0.13650  Biso   1.000  O
  O43      1.0000 0.78600  0.86770  0.63650  Biso   1.000  O
  O44      1.0000 0.71400  0.36770  0.86350  Biso   1.000  O
