data_image0
_cell_length_a       7.6861
_cell_length_b       17.984
_cell_length_c       14.58
_cell_angle_alpha    90
_cell_angle_beta     98.155
_cell_angle_gamma    90

_symmetry_space_group_name_H-M    "P 1"
_symmetry_int_tables_number       1

loop_
  _symmetry_equiv_pos_as_xyz
  'x, y, z'

loop_
  _atom_site_label
  _atom_site_occupancy
  _atom_site_fract_x
  _atom_site_fract_y
  _atom_site_fract_z
  _atom_site_thermal_displace_type
  _atom_site_B_iso_or_equiv
  _atom_site_type_symbol
  Cu1      1.0000 0.83072  0.41961  0.24726  Biso   1.000  Cu
  Cu2      1.0000 0.66928  0.91961  0.25274  Biso   1.000  Cu
  Cu3      1.0000 0.16928  0.58039  0.75274  Biso   1.000  Cu
  Cu4      1.0000 0.33072  0.08039  0.74726  Biso   1.000  Cu
  Cu5      1.0000 0.79258  0.24904  0.24910  Biso   1.000  Cu
  Cu6      1.0000 0.70742  0.74904  0.25090  Biso   1.000  Cu
  Cu7      1.0000 0.20742  0.75096  0.75090  Biso   1.000  Cu
  Cu8      1.0000 0.29258  0.25096  0.74910  Biso   1.000  Cu
  S1       1.0000 0.70400  0.17215  0.69693  Biso   1.000  S
  S2       1.0000 0.79600  0.67215  0.80307  Biso   1.000  S
  S3       1.0000 0.29600  0.82785  0.30307  Biso   1.000  S
  S4       1.0000 0.20400  0.32785  0.19693  Biso   1.000  S
  O1       1.0000 0.79310  0.40290  0.37750  Biso   1.000  O
  O2       1.0000 0.70690  0.90290  0.12250  Biso   1.000  O
  O3       1.0000 0.20690  0.59710  0.62250  Biso   1.000  O
  O4       1.0000 0.29310  0.09710  0.87750  Biso   1.000  O
  O5       1.0000 0.76900  0.27770  0.37490  Biso   1.000  O
  O6       1.0000 0.73100  0.77770  0.12510  Biso   1.000  O
  O7       1.0000 0.23100  0.72230  0.62510  Biso   1.000  O
  O8       1.0000 0.26900  0.22230  0.87490  Biso   1.000  O
  O9       1.0000 0.01610  0.49990  0.69840  Biso   1.000  O
  O10      1.0000 0.48390  0.99990  0.80160  Biso   1.000  O
  O11      1.0000 0.98390  0.50010  0.30160  Biso   1.000  O
  O12      1.0000 0.51610  0.00010  0.19840  Biso   1.000  O
  O13      1.0000 0.00130  0.42600  0.82050  Biso   1.000  O
  O14      1.0000 0.49870  0.92600  0.67950  Biso   1.000  O
  O15      1.0000 0.99870  0.57400  0.17950  Biso   1.000  O
  O16      1.0000 0.50130  0.07400  0.32050  Biso   1.000  O
  O17      1.0000 0.55550  0.18370  0.74730  Biso   1.000  O
  O18      1.0000 0.94450  0.68370  0.75270  Biso   1.000  O
  O19      1.0000 0.44450  0.81630  0.25270  Biso   1.000  O
  O20      1.0000 0.05550  0.31630  0.24730  Biso   1.000  O
  O21      1.0000 0.85870  0.14930  0.75910  Biso   1.000  O
  O22      1.0000 0.64130  0.64930  0.74090  Biso   1.000  O
  O23      1.0000 0.14130  0.85070  0.24090  Biso   1.000  O
  O24      1.0000 0.35870  0.35070  0.25910  Biso   1.000  O
  O25      1.0000 0.66180  0.12460  0.61700  Biso   1.000  O
  O26      1.0000 0.83820  0.62460  0.88300  Biso   1.000  O
  O27      1.0000 0.33820  0.87540  0.38300  Biso   1.000  O
  O28      1.0000 0.16180  0.37540  0.11700  Biso   1.000  O
  O29      1.0000 0.68820  0.33670  0.19710  Biso   1.000  O
  O30      1.0000 0.81180  0.83670  0.30290  Biso   1.000  O
  O31      1.0000 0.31180  0.66330  0.80290  Biso   1.000  O
  O32      1.0000 0.18820  0.16330  0.69710  Biso   1.000  O
  H1       1.0000 0.60100  0.34500  0.22300  Biso   1.000  H
  H2       1.0000 0.89900  0.84500  0.27700  Biso   1.000  H
  H3       1.0000 0.39900  0.65500  0.77700  Biso   1.000  H
  H4       1.0000 0.10100  0.15500  0.72300  Biso   1.000  H
  O33      1.0000 0.83590  0.45570  0.11810  Biso   1.000  O
  O34      1.0000 0.66410  0.95570  0.38190  Biso   1.000  O
  O35      1.0000 0.16410  0.54430  0.88190  Biso   1.000  O
  O36      1.0000 0.33590  0.04430  0.61810  Biso   1.000  O
  H5       1.0000 0.92090  0.43770  0.09790  Biso   1.000  H
  H6       1.0000 0.57910  0.93770  0.40210  Biso   1.000  H
  H7       1.0000 0.07910  0.56230  0.90210  Biso   1.000  H
  H8       1.0000 0.42090  0.06230  0.59790  Biso   1.000  H
  H9       1.0000 0.81800  0.49800  0.13500  Biso   1.000  H
  H10      1.0000 0.68200  0.99800  0.36500  Biso   1.000  H
  H11      1.0000 0.18200  0.50200  0.86500  Biso   1.000  H
  H12      1.0000 0.31800  0.00200  0.63500  Biso   1.000  H
  N1       1.0000 0.89880  0.15190  0.29660  Biso   1.000  N
  N2       1.0000 0.60120  0.65190  0.20340  Biso   1.000  N
  N3       1.0000 0.10120  0.84810  0.70340  Biso   1.000  N
  N4       1.0000 0.39880  0.34810  0.79660  Biso   1.000  N
  C1       1.0000 0.78460  0.33610  0.51850  Biso   1.000  C
  C2       1.0000 0.71540  0.83610  0.98150  Biso   1.000  C
  C3       1.0000 0.21540  0.66390  0.48150  Biso   1.000  C
  C4       1.0000 0.28460  0.16390  0.01850  Biso   1.000  C
  C5       1.0000 0.85700  0.39270  0.57610  Biso   1.000  C
  C6       1.0000 0.64300  0.89270  0.92390  Biso   1.000  C
  C7       1.0000 0.14300  0.60730  0.42390  Biso   1.000  C
  C8       1.0000 0.35700  0.10730  0.07610  Biso   1.000  C
  H13      1.0000 0.89040  0.43720  0.55100  Biso   1.000  H
  H14      1.0000 0.60960  0.93720  0.94900  Biso   1.000  H
  H15      1.0000 0.10960  0.56280  0.44900  Biso   1.000  H
  H16      1.0000 0.39040  0.06280  0.05100  Biso   1.000  H
  C9       1.0000 0.87960  0.38260  0.67180  Biso   1.000  C
  C10      1.0000 0.62040  0.88260  0.82820  Biso   1.000  C
  C11      1.0000 0.12040  0.61740  0.32820  Biso   1.000  C
  C12      1.0000 0.37960  0.11740  0.17180  Biso   1.000  C
  C13      1.0000 0.83340  0.31580  0.70930  Biso   1.000  C
  C14      1.0000 0.66660  0.81580  0.79070  Biso   1.000  C
  C15      1.0000 0.16660  0.68420  0.29070  Biso   1.000  C
  C16      1.0000 0.33340  0.18420  0.20930  Biso   1.000  C
  H17      1.0000 0.85350  0.30840  0.77300  Biso   1.000  H
  H18      1.0000 0.64650  0.80840  0.72700  Biso   1.000  H
  H19      1.0000 0.14650  0.69160  0.22700  Biso   1.000  H
  H20      1.0000 0.35350  0.19160  0.27300  Biso   1.000  H
  C17      1.0000 0.75710  0.26010  0.65130  Biso   1.000  C
  C18      1.0000 0.74290  0.76010  0.84870  Biso   1.000  C
  C19      1.0000 0.24290  0.73990  0.34870  Biso   1.000  C
  C20      1.0000 0.25710  0.23990  0.15130  Biso   1.000  C
  C21      1.0000 0.73280  0.27060  0.55580  Biso   1.000  C
  C22      1.0000 0.76720  0.77060  0.94420  Biso   1.000  C
  C23      1.0000 0.26720  0.72940  0.44420  Biso   1.000  C
  C24      1.0000 0.23280  0.22940  0.05580  Biso   1.000  C
  H21      1.0000 0.68130  0.23330  0.51690  Biso   1.000  H
  H22      1.0000 0.81870  0.73330  0.98310  Biso   1.000  H
  H23      1.0000 0.31870  0.76670  0.48310  Biso   1.000  H
  H24      1.0000 0.18130  0.26670  0.01690  Biso   1.000  H
  C25      1.0000 0.77640  0.33910  0.41470  Biso   1.000  C
  C26      1.0000 0.72360  0.83910  0.08530  Biso   1.000  C
  C27      1.0000 0.22360  0.66090  0.58530  Biso   1.000  C
  C28      1.0000 0.27640  0.16090  0.91470  Biso   1.000  C
  C29      1.0000 0.97420  0.44130  0.73840  Biso   1.000  C
  C30      1.0000 0.52580  0.94130  0.76160  Biso   1.000  C
  C31      1.0000 0.02580  0.55870  0.26160  Biso   1.000  C
  C32      1.0000 0.47420  0.05870  0.23840  Biso   1.000  C
  C33      1.0000 0.95800  0.13700  0.38420  Biso   1.000  C
  C34      1.0000 0.54200  0.63700  0.11580  Biso   1.000  C
  C35      1.0000 0.04200  0.86300  0.61580  Biso   1.000  C
  C36      1.0000 0.45800  0.36300  0.88420  Biso   1.000  C
  H25      1.0000 0.94350  0.17230  0.42900  Biso   1.000  H
  H26      1.0000 0.55650  0.67230  0.07100  Biso   1.000  H
  H27      1.0000 0.05650  0.82770  0.57100  Biso   1.000  H
  H28      1.0000 0.44350  0.32770  0.92900  Biso   1.000  H
  C37      1.0000 0.04180  0.07000  0.41190  Biso   1.000  C
  C38      1.0000 0.45820  0.57000  0.08810  Biso   1.000  C
  C39      1.0000 0.95820  0.93000  0.58810  Biso   1.000  C
  C40      1.0000 0.54180  0.43000  0.91190  Biso   1.000  C
  H29      1.0000 0.08070  0.06020  0.47400  Biso   1.000  H
  H30      1.0000 0.41930  0.56020  0.02600  Biso   1.000  H
  H31      1.0000 0.91930  0.93980  0.52600  Biso   1.000  H
  H32      1.0000 0.58070  0.43980  0.97400  Biso   1.000  H
  C41      1.0000 0.06430  0.02010  0.34550  Biso   1.000  C
  C42      1.0000 0.43570  0.52010  0.15450  Biso   1.000  C
  C43      1.0000 0.93570  0.97990  0.65450  Biso   1.000  C
  C44      1.0000 0.56430  0.47990  0.84550  Biso   1.000  C
  H33      1.0000 0.12340  0.97580  0.36130  Biso   1.000  H
  H34      1.0000 0.37660  0.47580  0.13870  Biso   1.000  H
  H35      1.0000 0.87660  0.02420  0.63870  Biso   1.000  H
  H36      1.0000 0.62340  0.52420  0.86130  Biso   1.000  H
  C45      1.0000 0.99890  0.03510  0.25380  Biso   1.000  C
  C46      1.0000 0.50110  0.53510  0.24620  Biso   1.000  C
  C47      1.0000 0.00110  0.96490  0.74620  Biso   1.000  C
  C48      1.0000 0.49890  0.46490  0.75380  Biso   1.000  C
  H37      1.0000 0.01030  0.00030  0.20790  Biso   1.000  H
  H38      1.0000 0.48970  0.50030  0.29210  Biso   1.000  H
  H39      1.0000 0.98970  0.99970  0.79210  Biso   1.000  H
  H40      1.0000 0.51030  0.49970  0.70790  Biso   1.000  H
  C49      1.0000 0.91880  0.10070  0.23180  Biso   1.000  C
  C50      1.0000 0.58120  0.60070  0.26820  Biso   1.000  C
  C51      1.0000 0.08120  0.89930  0.76820  Biso   1.000  C
  C52      1.0000 0.41880  0.39930  0.73180  Biso   1.000  C
  C53      1.0000 0.84920  0.12460  0.13700  Biso   1.000  C
  C54      1.0000 0.65080  0.62460  0.36300  Biso   1.000  C
  C55      1.0000 0.15080  0.87540  0.86300  Biso   1.000  C
  C56      1.0000 0.34920  0.37540  0.63700  Biso   1.000  C
  C57      1.0000 0.84110  0.08090  0.05710  Biso   1.000  C
  C58      1.0000 0.65890  0.58090  0.44290  Biso   1.000  C
  C59      1.0000 0.15890  0.91910  0.94290  Biso   1.000  C
  C60      1.0000 0.34110  0.41910  0.55710  Biso   1.000  C
  H41      1.0000 0.87680  0.03140  0.06150  Biso   1.000  H
  H42      1.0000 0.62320  0.53140  0.43850  Biso   1.000  H
  H43      1.0000 0.12320  0.96860  0.93850  Biso   1.000  H
  H44      1.0000 0.37680  0.46860  0.56150  Biso   1.000  H
  C61      1.0000 0.78070  0.11100  0.97260  Biso   1.000  C
  C62      1.0000 0.71930  0.61100  0.52740  Biso   1.000  C
  C63      1.0000 0.21930  0.88900  0.02740  Biso   1.000  C
  C64      1.0000 0.28070  0.38900  0.47260  Biso   1.000  C
  H45      1.0000 0.77230  0.08150  0.91980  Biso   1.000  H
  H46      1.0000 0.72770  0.58150  0.58020  Biso   1.000  H
  H47      1.0000 0.22770  0.91850  0.08020  Biso   1.000  H
  H48      1.0000 0.27230  0.41850  0.41980  Biso   1.000  H
  C65      1.0000 0.73210  0.18450  0.96470  Biso   1.000  C
  C66      1.0000 0.76790  0.68450  0.53530  Biso   1.000  C
  C67      1.0000 0.26790  0.81550  0.03530  Biso   1.000  C
  C68      1.0000 0.23210  0.31550  0.46470  Biso   1.000  C
  H49      1.0000 0.69870  0.20630  0.90700  Biso   1.000  H
  H50      1.0000 0.80130  0.70630  0.59300  Biso   1.000  H
  H51      1.0000 0.30130  0.79370  0.09300  Biso   1.000  H
  H52      1.0000 0.19870  0.29370  0.40700  Biso   1.000  H
  C69      1.0000 0.73480  0.22500  0.04600  Biso   1.000  C
  C70      1.0000 0.76520  0.72500  0.45400  Biso   1.000  C
  C71      1.0000 0.26520  0.77500  0.95400  Biso   1.000  C
  C72      1.0000 0.23480  0.27500  0.54600  Biso   1.000  C
  H53      1.0000 0.69500  0.27390  0.04200  Biso   1.000  H
  H54      1.0000 0.80500  0.77390  0.45800  Biso   1.000  H
  H55      1.0000 0.30500  0.72610  0.95800  Biso   1.000  H
  H56      1.0000 0.19500  0.22610  0.54200  Biso   1.000  H
  N5       1.0000 0.79230  0.19670  0.13040  Biso   1.000  N
  N6       1.0000 0.70770  0.69670  0.36960  Biso   1.000  N
  N7       1.0000 0.20770  0.80330  0.86960  Biso   1.000  N
  N8       1.0000 0.29230  0.30330  0.63040  Biso   1.000  N
