data_image0
_cell_length_a       10.1864
_cell_length_b       10.6594
_cell_length_c       22.761
_cell_angle_alpha    88.194
_cell_angle_beta     80.517
_cell_angle_gamma    67.384

_symmetry_space_group_name_H-M    "P 1"
_symmetry_int_tables_number       1

loop_
  _symmetry_equiv_pos_as_xyz
  'x, y, z'

loop_
  _atom_site_label
  _atom_site_occupancy
  _atom_site_fract_x
  _atom_site_fract_y
  _atom_site_fract_z
  _atom_site_thermal_displace_type
  _atom_site_B_iso_or_equiv
  _atom_site_type_symbol
  Cu1      1.0000 0.54653  0.44421  0.38338  Biso   1.000  Cu
  Cu2      1.0000 0.45347  0.55579  0.61662  Biso   1.000  Cu
  Cu3      1.0000 0.77212  0.21126  0.27317  Biso   1.000  Cu
  Cu4      1.0000 0.22788  0.78874  0.72683  Biso   1.000  Cu
  Cu5      1.0000 0.01486  0.92976  0.24237  Biso   1.000  Cu
  Cu6      1.0000 0.98514  0.07024  0.75763  Biso   1.000  Cu
  Cu7      1.0000 0.98572  0.10843  0.11232  Biso   1.000  Cu
  Cu8      1.0000 0.01428  0.89157  0.88768  Biso   1.000  Cu
  S1       1.0000 0.66300  0.62197  0.08850  Biso   1.000  S
  S2       1.0000 0.33700  0.37803  0.91150  Biso   1.000  S
  S3       1.0000 0.82818  0.90607  0.37891  Biso   1.000  S
  S4       1.0000 0.17182  0.09393  0.62109  Biso   1.000  S
  C1       1.0000 0.63410  0.95090  0.18336  Biso   1.000  C
  C2       1.0000 0.36590  0.04910  0.81664  Biso   1.000  C
  C3       1.0000 0.49420  0.04110  0.17959  Biso   1.000  C
  C4       1.0000 0.50580  0.95890  0.82041  Biso   1.000  C
  H1       1.0000 0.45790  0.12660  0.19840  Biso   1.000  H
  H2       1.0000 0.54210  0.87340  0.80160  Biso   1.000  H
  C5       1.0000 0.40870  0.00390  0.14784  Biso   1.000  C
  C6       1.0000 0.59130  0.99610  0.85216  Biso   1.000  C
  C7       1.0000 0.46420  0.87570  0.11978  Biso   1.000  C
  C8       1.0000 0.53580  0.12430  0.88022  Biso   1.000  C
  H3       1.0000 0.40830  0.85120  0.09760  Biso   1.000  H
  H4       1.0000 0.59170  0.14880  0.90240  Biso   1.000  H
  C9       1.0000 0.60120  0.78480  0.12447  Biso   1.000  C
  C10      1.0000 0.39880  0.21520  0.87553  Biso   1.000  C
  C11      1.0000 0.68640  0.82170  0.15659  Biso   1.000  C
  C12      1.0000 0.31360  0.17830  0.84341  Biso   1.000  C
  H5       1.0000 0.77840  0.76000  0.16020  Biso   1.000  H
  H6       1.0000 0.22160  0.24000  0.83980  Biso   1.000  H
  C13      1.0000 0.72890  0.99320  0.21493  Biso   1.000  C
  C14      1.0000 0.27110  0.00680  0.78507  Biso   1.000  C
  C15      1.0000 0.25550  0.09710  0.14439  Biso   1.000  C
  C16      1.0000 0.74450  0.90290  0.85561  Biso   1.000  C
  C17      1.0000 0.12250  0.52050  0.35113  Biso   1.000  C
  C18      1.0000 0.87750  0.47950  0.64887  Biso   1.000  C
  C19      1.0000 0.04440  0.45290  0.33061  Biso   1.000  C
  C20      1.0000 0.95560  0.54710  0.66939  Biso   1.000  C
  H7       1.0000 0.08850  0.35990  0.32180  Biso   1.000  H
  H8       1.0000 0.91150  0.64010  0.67820  Biso   1.000  H
  C21      1.0000 0.90190  0.52270  0.32329  Biso   1.000  C
  C22      1.0000 0.09810  0.47730  0.67671  Biso   1.000  C
  C23      1.0000 0.83610  0.66280  0.33748  Biso   1.000  C
  C24      1.0000 0.16390  0.33720  0.66252  Biso   1.000  C
  H9       1.0000 0.74060  0.71070  0.33300  Biso   1.000  H
  H10      1.0000 0.25940  0.28930  0.66700  Biso   1.000  H
  C25      1.0000 0.91270  0.72940  0.35801  Biso   1.000  C
  C26      1.0000 0.08730  0.27060  0.64199  Biso   1.000  C
  C27      1.0000 0.05640  0.65890  0.36444  Biso   1.000  C
  C28      1.0000 0.94360  0.34110  0.63556  Biso   1.000  C
  H11      1.0000 0.10790  0.70480  0.37770  Biso   1.000  H
  H12      1.0000 0.89210  0.29520  0.62230  Biso   1.000  H
  C29      1.0000 0.27810  0.44170  0.35912  Biso   1.000  C
  C30      1.0000 0.72190  0.55830  0.64088  Biso   1.000  C
  C31      1.0000 0.81130  0.45310  0.30356  Biso   1.000  C
  C32      1.0000 0.18870  0.54690  0.69644  Biso   1.000  C
  C33      1.0000 0.82070  0.25210  0.42180  Biso   1.000  C
  C34      1.0000 0.17930  0.74790  0.57820  Biso   1.000  C
  H13      1.0000 0.81120  0.18650  0.39880  Biso   1.000  H
  H14      1.0000 0.18880  0.81350  0.60120  Biso   1.000  H
  C35      1.0000 0.94070  0.21680  0.44969  Biso   1.000  C
  C36      1.0000 0.05930  0.78320  0.55031  Biso   1.000  C
  H15      1.0000 0.01040  0.12880  0.44570  Biso   1.000  H
  H16      1.0000 0.98960  0.87120  0.55430  Biso   1.000  H
  C37      1.0000 0.95420  0.31470  0.48331  Biso   1.000  C
  C38      1.0000 0.04580  0.68530  0.51669  Biso   1.000  C
  H17      1.0000 0.03430  0.29390  0.50200  Biso   1.000  H
  H18      1.0000 0.96570  0.70610  0.49800  Biso   1.000  H
  C39      1.0000 0.84850  0.44350  0.48920  Biso   1.000  C
  C40      1.0000 0.15150  0.55650  0.51080  Biso   1.000  C
  H19      1.0000 0.85630  0.51020  0.51210  Biso   1.000  H
  H20      1.0000 0.14370  0.48980  0.48790  Biso   1.000  H
  C41      1.0000 0.73050  0.47300  0.46081  Biso   1.000  C
  C42      1.0000 0.26950  0.52700  0.53919  Biso   1.000  C
  C43      1.0000 0.60790  0.60520  0.46544  Biso   1.000  C
  C44      1.0000 0.39210  0.39480  0.53456  Biso   1.000  C
  C45      1.0000 0.59330  0.71410  0.50125  Biso   1.000  C
  C46      1.0000 0.40670  0.28590  0.49875  Biso   1.000  C
  H21      1.0000 0.66470  0.70760  0.52330  Biso   1.000  H
  H22      1.0000 0.33530  0.29240  0.47670  Biso   1.000  H
  C47      1.0000 0.47120  0.83260  0.50382  Biso   1.000  C
  C48      1.0000 0.52880  0.16740  0.49618  Biso   1.000  C
  H23      1.0000 0.45870  0.90600  0.52830  Biso   1.000  H
  H24      1.0000 0.54130  0.09400  0.47170  Biso   1.000  H
  C49      1.0000 0.36890  0.84050  0.46983  Biso   1.000  C
  C50      1.0000 0.63110  0.15950  0.53017  Biso   1.000  C
  H25      1.0000 0.28730  0.91990  0.47030  Biso   1.000  H
  H26      1.0000 0.71270  0.08010  0.52970  Biso   1.000  H
  C51      1.0000 0.38880  0.72840  0.43483  Biso   1.000  C
  C52      1.0000 0.61120  0.27160  0.56517  Biso   1.000  C
  H27      1.0000 0.31930  0.73370  0.41200  Biso   1.000  H
  H28      1.0000 0.68070  0.26630  0.58800  Biso   1.000  H
  C53      1.0000 0.18640  0.04400  0.29979  Biso   1.000  C
  C54      1.0000 0.81360  0.95600  0.70021  Biso   1.000  C
  H29      1.0000 0.10460  0.12420  0.30430  Biso   1.000  H
  H30      1.0000 0.89540  0.87580  0.69570  Biso   1.000  H
  C55      1.0000 0.30610  0.04010  0.32203  Biso   1.000  C
  C56      1.0000 0.69390  0.95990  0.67797  Biso   1.000  C
  H31      1.0000 0.30510  0.11600  0.34140  Biso   1.000  H
  H32      1.0000 0.69490  0.88400  0.65860  Biso   1.000  H
  C57      1.0000 0.42740  0.92050  0.31475  Biso   1.000  C
  C58      1.0000 0.57260  0.07950  0.68525  Biso   1.000  C
  H33      1.0000 0.51040  0.91580  0.32830  Biso   1.000  H
  H34      1.0000 0.48960  0.08420  0.67170  Biso   1.000  H
  C59      1.0000 0.42480  0.80810  0.28720  Biso   1.000  C
  C60      1.0000 0.57520  0.19190  0.71280  Biso   1.000  C
  H35      1.0000 0.50520  0.72680  0.28250  Biso   1.000  H
  H36      1.0000 0.49480  0.27320  0.71750  Biso   1.000  H
  C61      1.0000 0.30070  0.81840  0.26661  Biso   1.000  C
  C62      1.0000 0.69930  0.18160  0.73339  Biso   1.000  C
  C63      1.0000 0.28150  0.70320  0.23983  Biso   1.000  C
  C64      1.0000 0.71850  0.29680  0.76017  Biso   1.000  C
  C65      1.0000 0.38700  0.57380  0.23041  Biso   1.000  C
  C66      1.0000 0.61300  0.42620  0.76959  Biso   1.000  C
  H37      1.0000 0.47890  0.55520  0.23870  Biso   1.000  H
  H38      1.0000 0.52110  0.44480  0.76130  Biso   1.000  H
  C67      1.0000 0.35340  0.47250  0.20852  Biso   1.000  C
  C68      1.0000 0.64660  0.52750  0.79148  Biso   1.000  C
  H39      1.0000 0.42260  0.38440  0.20220  Biso   1.000  H
  H40      1.0000 0.57740  0.61560  0.79780  Biso   1.000  H
  C69      1.0000 0.21670  0.50240  0.19605  Biso   1.000  C
  C70      1.0000 0.78330  0.49760  0.80395  Biso   1.000  C
  H41      1.0000 0.19240  0.43500  0.18150  Biso   1.000  H
  H42      1.0000 0.80760  0.56500  0.81850  Biso   1.000  H
  C71      1.0000 0.11630  0.63460  0.20555  Biso   1.000  C
  C72      1.0000 0.88370  0.36540  0.79445  Biso   1.000  C
  H43      1.0000 0.02440  0.65540  0.19680  Biso   1.000  H
  H44      1.0000 0.97560  0.34460  0.80320  Biso   1.000  H
  C73      1.0000 0.68200  0.26630  0.09484  Biso   1.000  C
  C74      1.0000 0.31800  0.73370  0.90516  Biso   1.000  C
  H45      1.0000 0.68630  0.33690  0.11640  Biso   1.000  H
  H46      1.0000 0.31370  0.66310  0.88360  Biso   1.000  H
  C75      1.0000 0.56030  0.28830  0.07081  Biso   1.000  C
  C76      1.0000 0.43970  0.71170  0.92919  Biso   1.000  C
  H47      1.0000 0.48390  0.37260  0.07580  Biso   1.000  H
  H48      1.0000 0.51610  0.62740  0.92420  Biso   1.000  H
  C77      1.0000 0.55270  0.18420  0.03920  Biso   1.000  C
  C78      1.0000 0.44730  0.81580  0.96080  Biso   1.000  C
  H49      1.0000 0.47110  0.19740  0.02250  Biso   1.000  H
  H50      1.0000 0.52890  0.80260  0.97750  Biso   1.000  H
  C79      1.0000 0.66710  0.05990  0.03247  Biso   1.000  C
  C80      1.0000 0.33290  0.94010  0.96753  Biso   1.000  C
  H51      1.0000 0.66340  0.98820  0.01150  Biso   1.000  H
  H52      1.0000 0.33660  0.01180  0.98850  Biso   1.000  H
  C81      1.0000 0.78810  0.04340  0.05754  Biso   1.000  C
  C82      1.0000 0.21190  0.95660  0.94246  Biso   1.000  C
  C83      1.0000 0.91580  0.91580  0.05369  Biso   1.000  C
  C84      1.0000 0.08420  0.08420  0.94631  Biso   1.000  C
  C85      1.0000 0.92900  0.79550  0.02687  Biso   1.000  C
  C86      1.0000 0.07100  0.20450  0.97313  Biso   1.000  C
  H53      1.0000 0.85460  0.79220  0.00900  Biso   1.000  H
  H54      1.0000 0.14540  0.20780  0.99100  Biso   1.000  H
  C87      1.0000 0.05320  0.68080  0.02680  Biso   1.000  C
  C88      1.0000 0.94680  0.31920  0.97320  Biso   1.000  C
  H55      1.0000 0.06310  0.59960  0.00890  Biso   1.000  H
  H56      1.0000 0.93690  0.40040  0.99110  Biso   1.000  H
  C89      1.0000 0.16170  0.68780  0.05348  Biso   1.000  C
  C90      1.0000 0.83830  0.31220  0.94652  Biso   1.000  C
  H57      1.0000 0.24650  0.61190  0.05370  Biso   1.000  H
  H58      1.0000 0.75350  0.38810  0.94630  Biso   1.000  H
  C91      1.0000 0.14250  0.81010  0.08002  Biso   1.000  C
  C92      1.0000 0.85750  0.18990  0.91998  Biso   1.000  C
  H59      1.0000 0.21570  0.81470  0.09840  Biso   1.000  H
  H60      1.0000 0.78430  0.18530  0.90160  Biso   1.000  H
  O1       1.0000 0.85627  0.90646  0.21376  Biso   1.000  O
  O2       1.0000 0.14373  0.09354  0.78624  Biso   1.000  O
  O3       1.0000 0.67596  0.11076  0.23834  Biso   1.000  O
  O4       1.0000 0.32404  0.88924  0.76166  Biso   1.000  O
  O5       1.0000 0.18996  0.04722  0.11484  Biso   1.000  O
  O6       1.0000 0.81004  0.95278  0.88516  Biso   1.000  O
  O7       1.0000 0.20160  0.20950  0.17053  Biso   1.000  O
  O8       1.0000 0.79840  0.79050  0.82947  Biso   1.000  O
  O9       1.0000 0.73100  0.63500  0.02967  Biso   1.000  O
  O10      1.0000 0.26900  0.36500  0.97033  Biso   1.000  O
  O11      1.0000 0.75960  0.53270  0.12571  Biso   1.000  O
  O12      1.0000 0.24040  0.46730  0.87429  Biso   1.000  O
  O13      1.0000 0.53730  0.59280  0.08794  Biso   1.000  O
  O14      1.0000 0.46270  0.40720  0.91206  Biso   1.000  O
  O15      1.0000 0.34673  0.51387  0.36992  Biso   1.000  O
  O16      1.0000 0.65327  0.48613  0.63008  Biso   1.000  O
  O17      1.0000 0.32510  0.31720  0.35672  Biso   1.000  O
  O18      1.0000 0.67490  0.68280  0.64328  Biso   1.000  O
  O19      1.0000 0.68204  0.52094  0.30297  Biso   1.000  O
  O20      1.0000 0.31796  0.47906  0.69703  Biso   1.000  O
  O21      1.0000 0.87469  0.32535  0.29122  Biso   1.000  O
  O22      1.0000 0.12531  0.67465  0.70878  Biso   1.000  O
  O23      1.0000 0.89720  0.97494  0.33498  Biso   1.000  O
  O24      1.0000 0.10280  0.02506  0.66502  Biso   1.000  O
  O25      1.0000 0.67750  0.94510  0.37630  Biso   1.000  O
  O26      1.0000 0.32250  0.05490  0.62370  Biso   1.000  O
  O27      1.0000 0.85950  0.91780  0.43734  Biso   1.000  O
  O28      1.0000 0.14050  0.08220  0.56266  Biso   1.000  O
  O29      1.0000 0.61521  0.28310  0.33549  Biso   1.000  O
  O30      1.0000 0.38479  0.71690  0.66451  Biso   1.000  O
  H61      1.0000 0.54900  0.26000  0.33350  Biso   1.000  H
  H62      1.0000 0.45100  0.74000  0.66650  Biso   1.000  H
  O31      1.0000 0.94385  0.11797  0.21503  Biso   1.000  O
  O32      1.0000 0.05615  0.88203  0.78497  Biso   1.000  O
  H63      1.0000 0.99800  0.15400  0.22100  Biso   1.000  H
  H64      1.0000 0.00200  0.84600  0.77900  Biso   1.000  H
  O33      1.0000 0.97180  0.29860  0.11447  Biso   1.000  O
  O34      1.0000 0.02820  0.70140  0.88553  Biso   1.000  O
  H65      1.0000 0.90000  0.36900  0.12220  Biso   1.000  H
  H66      1.0000 0.10000  0.63100  0.87780  Biso   1.000  H
  H67      1.0000 0.03100  0.30300  0.13430  Biso   1.000  H
  H68      1.0000 0.96900  0.69700  0.86570  Biso   1.000  H
  N1       1.0000 0.71840  0.37760  0.42691  Biso   1.000  N
  N2       1.0000 0.28160  0.62240  0.57309  Biso   1.000  N
  N3       1.0000 0.50570  0.61250  0.43305  Biso   1.000  N
  N4       1.0000 0.49430  0.38750  0.56695  Biso   1.000  N
  N5       1.0000 0.18450  0.93610  0.27192  Biso   1.000  N
  N6       1.0000 0.81550  0.06390  0.72808  Biso   1.000  N
  N7       1.0000 0.14750  0.73350  0.22698  Biso   1.000  N
  N8       1.0000 0.85250  0.26650  0.77302  Biso   1.000  N
  N9       1.0000 0.79500  0.14680  0.08836  Biso   1.000  N
  N10      1.0000 0.20500  0.85320  0.91164  Biso   1.000  N
  N11      1.0000 0.02230  0.92240  0.08019  Biso   1.000  N
  N12      1.0000 0.97770  0.07760  0.91981  Biso   1.000  N
