data_image0
_cell_length_a       41.839
_cell_length_b       41.839
_cell_length_c       11.844
_cell_angle_alpha    90
_cell_angle_beta     90
_cell_angle_gamma    120

_symmetry_space_group_name_H-M    "P 1"
_symmetry_int_tables_number       1

loop_
  _symmetry_equiv_pos_as_xyz
  'x, y, z'

loop_
  _atom_site_label
  _atom_site_occupancy
  _atom_site_fract_x
  _atom_site_fract_y
  _atom_site_fract_z
  _atom_site_thermal_displace_type
  _atom_site_B_iso_or_equiv
  _atom_site_type_symbol
  Cu1      1.0000 0.49764  0.47213  0.94115  Biso   1.000  Cu
  Cu2      1.0000 0.52787  0.02551  0.94115  Biso   1.000  Cu
  Cu3      1.0000 0.97449  0.50236  0.94115  Biso   1.000  Cu
  Cu4      1.0000 0.16431  0.80546  0.27448  Biso   1.000  Cu
  Cu5      1.0000 0.19454  0.35884  0.27448  Biso   1.000  Cu
  Cu6      1.0000 0.64116  0.83569  0.27448  Biso   1.000  Cu
  Cu7      1.0000 0.83097  0.13880  0.60782  Biso   1.000  Cu
  Cu8      1.0000 0.86120  0.69218  0.60782  Biso   1.000  Cu
  Cu9      1.0000 0.30782  0.16903  0.60782  Biso   1.000  Cu
  Cu10     1.0000 0.50236  0.52787  0.05885  Biso   1.000  Cu
  Cu11     1.0000 0.47213  0.97449  0.05885  Biso   1.000  Cu
  Cu12     1.0000 0.02551  0.49764  0.05885  Biso   1.000  Cu
  Cu13     1.0000 0.16903  0.86120  0.39218  Biso   1.000  Cu
  Cu14     1.0000 0.13880  0.30782  0.39218  Biso   1.000  Cu
  Cu15     1.0000 0.69218  0.83097  0.39218  Biso   1.000  Cu
  Cu16     1.0000 0.83569  0.19454  0.72552  Biso   1.000  Cu
  Cu17     1.0000 0.80546  0.64116  0.72552  Biso   1.000  Cu
  Cu18     1.0000 0.35884  0.16431  0.72552  Biso   1.000  Cu
  O1       1.0000 0.51065  0.55231  0.91320  Biso   1.000  O
  O2       1.0000 0.44769  0.95834  0.91320  Biso   1.000  O
  O3       1.0000 0.04166  0.48935  0.91320  Biso   1.000  O
  O4       1.0000 0.17732  0.88564  0.24653  Biso   1.000  O
  O5       1.0000 0.11436  0.29167  0.24653  Biso   1.000  O
  O6       1.0000 0.70833  0.82268  0.24653  Biso   1.000  O
  O7       1.0000 0.84398  0.21898  0.57987  Biso   1.000  O
  O8       1.0000 0.78102  0.62501  0.57987  Biso   1.000  O
  O9       1.0000 0.37499  0.15602  0.57987  Biso   1.000  O
  O10      1.0000 0.48935  0.44769  0.08680  Biso   1.000  O
  O11      1.0000 0.55231  0.04166  0.08680  Biso   1.000  O
  O12      1.0000 0.95834  0.51065  0.08680  Biso   1.000  O
  O13      1.0000 0.15602  0.78102  0.42013  Biso   1.000  O
  O14      1.0000 0.21898  0.37499  0.42013  Biso   1.000  O
  O15      1.0000 0.62501  0.84398  0.42013  Biso   1.000  O
  O16      1.0000 0.82268  0.11436  0.75347  Biso   1.000  O
  O17      1.0000 0.88564  0.70833  0.75347  Biso   1.000  O
  O18      1.0000 0.29167  0.17732  0.75347  Biso   1.000  O
  O19      1.0000 0.65610  0.77739  0.40130  Biso   1.000  O
  O20      1.0000 0.22261  0.87871  0.40130  Biso   1.000  O
  O21      1.0000 0.12129  0.34390  0.40130  Biso   1.000  O
  O22      1.0000 0.32277  0.11072  0.73463  Biso   1.000  O
  O23      1.0000 0.88928  0.21204  0.73463  Biso   1.000  O
  O24      1.0000 0.78796  0.67723  0.73463  Biso   1.000  O
  O25      1.0000 0.98943  0.44406  0.06797  Biso   1.000  O
  O26      1.0000 0.55594  0.54538  0.06797  Biso   1.000  O
  O27      1.0000 0.45462  0.01057  0.06797  Biso   1.000  O
  O28      1.0000 0.34390  0.22261  0.59870  Biso   1.000  O
  O29      1.0000 0.77739  0.12129  0.59870  Biso   1.000  O
  O30      1.0000 0.87871  0.65610  0.59870  Biso   1.000  O
  O31      1.0000 0.01057  0.55594  0.93203  Biso   1.000  O
  O32      1.0000 0.44406  0.45462  0.93203  Biso   1.000  O
  O33      1.0000 0.54538  0.98943  0.93203  Biso   1.000  O
  O34      1.0000 0.67723  0.88928  0.26537  Biso   1.000  O
  O35      1.0000 0.11072  0.78796  0.26537  Biso   1.000  O
  O36      1.0000 0.21204  0.32277  0.26537  Biso   1.000  O
  O37      1.0000 0.50394  0.50489  0.81250  Biso   1.000  O
  O38      1.0000 0.49511  0.99905  0.81250  Biso   1.000  O
  O39      1.0000 0.00095  0.49606  0.81250  Biso   1.000  O
  O40      1.0000 0.17061  0.83822  0.14583  Biso   1.000  O
  O41      1.0000 0.16178  0.33238  0.14583  Biso   1.000  O
  O42      1.0000 0.66762  0.82939  0.14583  Biso   1.000  O
  O43      1.0000 0.83727  0.17156  0.47917  Biso   1.000  O
  O44      1.0000 0.82844  0.66572  0.47917  Biso   1.000  O
  O45      1.0000 0.33428  0.16273  0.47917  Biso   1.000  O
  O46      1.0000 0.49606  0.49511  0.18750  Biso   1.000  O
  O47      1.0000 0.50489  0.00095  0.18750  Biso   1.000  O
  O48      1.0000 0.99905  0.50394  0.18750  Biso   1.000  O
  O49      1.0000 0.16273  0.82844  0.52083  Biso   1.000  O
  O50      1.0000 0.17156  0.33428  0.52083  Biso   1.000  O
  O51      1.0000 0.66572  0.83727  0.52083  Biso   1.000  O
  O52      1.0000 0.82939  0.16178  0.85417  Biso   1.000  O
  O53      1.0000 0.83822  0.66762  0.85417  Biso   1.000  O
  O54      1.0000 0.33238  0.17061  0.85417  Biso   1.000  O
  O55      1.0000 0.61562  0.78326  0.30600  Biso   1.000  O
  O56      1.0000 0.21674  0.83236  0.30600  Biso   1.000  O
  O57      1.0000 0.16764  0.38438  0.30600  Biso   1.000  O
  O58      1.0000 0.28229  0.11659  0.63933  Biso   1.000  O
  O59      1.0000 0.88341  0.16569  0.63933  Biso   1.000  O
  O60      1.0000 0.83431  0.71771  0.63933  Biso   1.000  O
  O61      1.0000 0.94895  0.44993  0.97267  Biso   1.000  O
  O62      1.0000 0.55007  0.49903  0.97267  Biso   1.000  O
  O63      1.0000 0.50097  0.05105  0.97267  Biso   1.000  O
  O64      1.0000 0.38438  0.21674  0.69400  Biso   1.000  O
  O65      1.0000 0.78326  0.16764  0.69400  Biso   1.000  O
  O66      1.0000 0.83236  0.61562  0.69400  Biso   1.000  O
  O67      1.0000 0.05105  0.55007  0.02733  Biso   1.000  O
  O68      1.0000 0.44993  0.50097  0.02733  Biso   1.000  O
  O69      1.0000 0.49903  0.94895  0.02733  Biso   1.000  O
  O70      1.0000 0.71771  0.88341  0.36067  Biso   1.000  O
  O71      1.0000 0.11659  0.83431  0.36067  Biso   1.000  O
  O72      1.0000 0.16569  0.28229  0.36067  Biso   1.000  O
  N1       1.0000 0.49925  0.56674  0.16900  Biso   1.000  N
  N2       1.0000 0.43326  0.93251  0.16900  Biso   1.000  N
  N3       1.0000 0.06749  0.50075  0.16900  Biso   1.000  N
  N4       1.0000 0.16592  0.90007  0.50233  Biso   1.000  N
  N5       1.0000 0.09993  0.26584  0.50233  Biso   1.000  N
  N6       1.0000 0.73416  0.83408  0.50233  Biso   1.000  N
  N7       1.0000 0.83258  0.23341  0.83567  Biso   1.000  N
  N8       1.0000 0.76659  0.59918  0.83567  Biso   1.000  N
  N9       1.0000 0.40082  0.16742  0.83567  Biso   1.000  N
  N10      1.0000 0.50075  0.43326  0.83100  Biso   1.000  N
  N11      1.0000 0.56674  0.06749  0.83100  Biso   1.000  N
  N12      1.0000 0.93251  0.49925  0.83100  Biso   1.000  N
  N13      1.0000 0.16742  0.76659  0.16433  Biso   1.000  N
  N14      1.0000 0.23341  0.40082  0.16433  Biso   1.000  N
  N15      1.0000 0.59918  0.83258  0.16433  Biso   1.000  N
  N16      1.0000 0.83408  0.09993  0.49767  Biso   1.000  N
  N17      1.0000 0.90007  0.73416  0.49767  Biso   1.000  N
  N18      1.0000 0.26584  0.16592  0.49767  Biso   1.000  N
  N19      1.0000 0.50290  0.59397  0.32500  Biso   1.000  N
  N20      1.0000 0.40603  0.90893  0.32500  Biso   1.000  N
  N21      1.0000 0.09107  0.49710  0.32500  Biso   1.000  N
  N22      1.0000 0.16957  0.92730  0.65833  Biso   1.000  N
  N23      1.0000 0.07270  0.24226  0.65833  Biso   1.000  N
  N24      1.0000 0.75774  0.83043  0.65833  Biso   1.000  N
  N25      1.0000 0.83623  0.26064  0.99167  Biso   1.000  N
  N26      1.0000 0.73936  0.57560  0.99167  Biso   1.000  N
  N27      1.0000 0.42440  0.16377  0.99167  Biso   1.000  N
  N28      1.0000 0.49710  0.40603  0.67500  Biso   1.000  N
  N29      1.0000 0.59397  0.09107  0.67500  Biso   1.000  N
  N30      1.0000 0.90893  0.50290  0.67500  Biso   1.000  N
  N31      1.0000 0.16377  0.73936  0.00833  Biso   1.000  N
  N32      1.0000 0.26064  0.42440  0.00833  Biso   1.000  N
  N33      1.0000 0.57560  0.83623  0.00833  Biso   1.000  N
  N34      1.0000 0.83043  0.07270  0.34167  Biso   1.000  N
  N35      1.0000 0.92730  0.75774  0.34167  Biso   1.000  N
  N36      1.0000 0.24226  0.16957  0.34167  Biso   1.000  N
  C1       1.0000 0.50868  0.53573  0.82370  Biso   1.000  C
  C2       1.0000 0.46427  0.97295  0.82370  Biso   1.000  C
  C3       1.0000 0.02705  0.49132  0.82370  Biso   1.000  C
  C4       1.0000 0.17535  0.86906  0.15703  Biso   1.000  C
  C5       1.0000 0.13094  0.30628  0.15703  Biso   1.000  C
  C6       1.0000 0.69372  0.82465  0.15703  Biso   1.000  C
  C7       1.0000 0.84201  0.20240  0.49037  Biso   1.000  C
  C8       1.0000 0.79760  0.63962  0.49037  Biso   1.000  C
  C9       1.0000 0.36038  0.15799  0.49037  Biso   1.000  C
  C10      1.0000 0.49132  0.46427  0.17630  Biso   1.000  C
  C11      1.0000 0.53573  0.02705  0.17630  Biso   1.000  C
  C12      1.0000 0.97295  0.50868  0.17630  Biso   1.000  C
  C13      1.0000 0.15799  0.79760  0.50963  Biso   1.000  C
  C14      1.0000 0.20240  0.36038  0.50963  Biso   1.000  C
  C15      1.0000 0.63962  0.84201  0.50963  Biso   1.000  C
  C16      1.0000 0.82465  0.13094  0.84297  Biso   1.000  C
  C17      1.0000 0.86906  0.69372  0.84297  Biso   1.000  C
  C18      1.0000 0.30628  0.17535  0.84297  Biso   1.000  C
  C19      1.0000 0.52150  0.58478  0.24730  Biso   1.000  C
  C20      1.0000 0.41522  0.93672  0.24730  Biso   1.000  C
  C21      1.0000 0.06328  0.47850  0.24730  Biso   1.000  C
  C22      1.0000 0.18817  0.91811  0.58063  Biso   1.000  C
  C23      1.0000 0.08189  0.27005  0.58063  Biso   1.000  C
  C24      1.0000 0.72995  0.81183  0.58063  Biso   1.000  C
  C25      1.0000 0.85483  0.25145  0.91397  Biso   1.000  C
  C26      1.0000 0.74855  0.60339  0.91397  Biso   1.000  C
  C27      1.0000 0.39661  0.14517  0.91397  Biso   1.000  C
  C28      1.0000 0.47850  0.41522  0.75270  Biso   1.000  C
  C29      1.0000 0.58478  0.06328  0.75270  Biso   1.000  C
  C30      1.0000 0.93672  0.52150  0.75270  Biso   1.000  C
  C31      1.0000 0.14517  0.74855  0.08603  Biso   1.000  C
  C32      1.0000 0.25145  0.39661  0.08603  Biso   1.000  C
  C33      1.0000 0.60339  0.85483  0.08603  Biso   1.000  C
  C34      1.0000 0.81183  0.08189  0.41937  Biso   1.000  C
  C35      1.0000 0.91811  0.72995  0.41937  Biso   1.000  C
  C36      1.0000 0.27005  0.18817  0.41937  Biso   1.000  C
  H1       1.0000 0.54610  0.59080  0.25180  Biso   1.000  H
  H2       1.0000 0.40920  0.95530  0.25180  Biso   1.000  H
  H3       1.0000 0.04470  0.45390  0.25180  Biso   1.000  H
  H4       1.0000 0.21277  0.92413  0.58513  Biso   1.000  H
  H5       1.0000 0.07587  0.28863  0.58513  Biso   1.000  H
  H6       1.0000 0.71137  0.78723  0.58513  Biso   1.000  H
  H7       1.0000 0.87943  0.25747  0.91847  Biso   1.000  H
  H8       1.0000 0.74253  0.62197  0.91847  Biso   1.000  H
  H9       1.0000 0.37803  0.12057  0.91847  Biso   1.000  H
  H10      1.0000 0.45390  0.40920  0.74820  Biso   1.000  H
  H11      1.0000 0.59080  0.04470  0.74820  Biso   1.000  H
  H12      1.0000 0.95530  0.54610  0.74820  Biso   1.000  H
  H13      1.0000 0.12057  0.74253  0.08153  Biso   1.000  H
  H14      1.0000 0.25747  0.37803  0.08153  Biso   1.000  H
  H15      1.0000 0.62197  0.87943  0.08153  Biso   1.000  H
  H16      1.0000 0.78723  0.07587  0.41487  Biso   1.000  H
  H17      1.0000 0.92413  0.71137  0.41487  Biso   1.000  H
  H18      1.0000 0.28863  0.21277  0.41487  Biso   1.000  H
  N37      1.0000 0.46380  0.56210  0.19420  Biso   1.000  N
  N38      1.0000 0.43790  0.90170  0.19420  Biso   1.000  N
  N39      1.0000 0.09830  0.53620  0.19420  Biso   1.000  N
  N40      1.0000 0.13047  0.89543  0.52753  Biso   1.000  N
  N41      1.0000 0.10457  0.23503  0.52753  Biso   1.000  N
  N42      1.0000 0.76497  0.86953  0.52753  Biso   1.000  N
  N43      1.0000 0.79713  0.22877  0.86087  Biso   1.000  N
  N44      1.0000 0.77123  0.56837  0.86087  Biso   1.000  N
  N45      1.0000 0.43163  0.20287  0.86087  Biso   1.000  N
  N46      1.0000 0.53620  0.43790  0.80580  Biso   1.000  N
  N47      1.0000 0.56210  0.09830  0.80580  Biso   1.000  N
  N48      1.0000 0.90170  0.46380  0.80580  Biso   1.000  N
  N49      1.0000 0.20287  0.77123  0.13913  Biso   1.000  N
  N50      1.0000 0.22877  0.43163  0.13913  Biso   1.000  N
  N51      1.0000 0.56837  0.79713  0.13913  Biso   1.000  N
  N52      1.0000 0.86953  0.10457  0.47247  Biso   1.000  N
  N53      1.0000 0.89543  0.76497  0.47247  Biso   1.000  N
  N54      1.0000 0.23503  0.13047  0.47247  Biso   1.000  N
  C37      1.0000 0.51270  0.55757  0.71590  Biso   1.000  C
  C38      1.0000 0.44243  0.95513  0.71590  Biso   1.000  C
  C39      1.0000 0.04487  0.48730  0.71590  Biso   1.000  C
  C40      1.0000 0.17937  0.89090  0.04923  Biso   1.000  C
  C41      1.0000 0.10910  0.28846  0.04923  Biso   1.000  C
  C42      1.0000 0.71154  0.82063  0.04923  Biso   1.000  C
  C43      1.0000 0.84603  0.22424  0.38257  Biso   1.000  C
  C44      1.0000 0.77576  0.62180  0.38257  Biso   1.000  C
  C45      1.0000 0.37820  0.15397  0.38257  Biso   1.000  C
  C46      1.0000 0.48730  0.44243  0.28410  Biso   1.000  C
  C47      1.0000 0.55757  0.04487  0.28410  Biso   1.000  C
  C48      1.0000 0.95513  0.51270  0.28410  Biso   1.000  C
  C49      1.0000 0.15397  0.77576  0.61743  Biso   1.000  C
  C50      1.0000 0.22424  0.37820  0.61743  Biso   1.000  C
  C51      1.0000 0.62180  0.84603  0.61743  Biso   1.000  C
  C52      1.0000 0.82063  0.10910  0.95077  Biso   1.000  C
  C53      1.0000 0.89090  0.71154  0.95077  Biso   1.000  C
  C54      1.0000 0.28846  0.17937  0.95077  Biso   1.000  C
  C55      1.0000 0.58100  0.66789  0.46060  Biso   1.000  C
  C56      1.0000 0.33211  0.91311  0.46060  Biso   1.000  C
  C57      1.0000 0.08689  0.41900  0.46060  Biso   1.000  C
  C58      1.0000 0.24767  0.00122  0.79393  Biso   1.000  C
  C59      1.0000 0.99878  0.24644  0.79393  Biso   1.000  C
  C60      1.0000 0.75356  0.75233  0.79393  Biso   1.000  C
  C61      1.0000 0.91433  0.33456  0.12727  Biso   1.000  C
  C62      1.0000 0.66544  0.57978  0.12727  Biso   1.000  C
  C63      1.0000 0.42022  0.08567  0.12727  Biso   1.000  C
  C64      1.0000 0.41900  0.33211  0.53940  Biso   1.000  C
  C65      1.0000 0.66789  0.08689  0.53940  Biso   1.000  C
  C66      1.0000 0.91311  0.58100  0.53940  Biso   1.000  C
  C67      1.0000 0.08567  0.66544  0.87273  Biso   1.000  C
  C68      1.0000 0.33456  0.42022  0.87273  Biso   1.000  C
  C69      1.0000 0.57978  0.91433  0.87273  Biso   1.000  C
  C70      1.0000 0.75233  0.99878  0.20607  Biso   1.000  C
  C71      1.0000 0.00122  0.75356  0.20607  Biso   1.000  C
  C72      1.0000 0.24644  0.24767  0.20607  Biso   1.000  C
  H19      1.0000 0.58530  0.65350  0.51140  Biso   1.000  H
  H20      1.0000 0.34650  0.93180  0.51140  Biso   1.000  H
  H21      1.0000 0.06820  0.41470  0.51140  Biso   1.000  H
  H22      1.0000 0.25197  0.98683  0.84473  Biso   1.000  H
  H23      1.0000 0.01317  0.26513  0.84473  Biso   1.000  H
  H24      1.0000 0.73487  0.74803  0.84473  Biso   1.000  H
  H25      1.0000 0.91863  0.32017  0.17807  Biso   1.000  H
  H26      1.0000 0.67983  0.59847  0.17807  Biso   1.000  H
  H27      1.0000 0.40153  0.08137  0.17807  Biso   1.000  H
  H28      1.0000 0.41470  0.34650  0.48860  Biso   1.000  H
  H29      1.0000 0.65350  0.06820  0.48860  Biso   1.000  H
  H30      1.0000 0.93180  0.58530  0.48860  Biso   1.000  H
  H31      1.0000 0.08137  0.67983  0.82193  Biso   1.000  H
  H32      1.0000 0.32017  0.40153  0.82193  Biso   1.000  H
  H33      1.0000 0.59847  0.91863  0.82193  Biso   1.000  H
  H34      1.0000 0.74803  0.01317  0.15527  Biso   1.000  H
  H35      1.0000 0.98683  0.73487  0.15527  Biso   1.000  H
  H36      1.0000 0.26513  0.25197  0.15527  Biso   1.000  H
  N55      1.0000 0.51800  0.61468  0.42460  Biso   1.000  N
  N56      1.0000 0.38532  0.90332  0.42460  Biso   1.000  N
  N57      1.0000 0.09668  0.48200  0.42460  Biso   1.000  N
  N58      1.0000 0.18467  0.94801  0.75793  Biso   1.000  N
  N59      1.0000 0.05199  0.23665  0.75793  Biso   1.000  N
  N60      1.0000 0.76335  0.81533  0.75793  Biso   1.000  N
  N61      1.0000 0.85133  0.28135  0.09127  Biso   1.000  N
  N62      1.0000 0.71865  0.56999  0.09127  Biso   1.000  N
  N63      1.0000 0.43001  0.14867  0.09127  Biso   1.000  N
  N64      1.0000 0.48200  0.38532  0.57540  Biso   1.000  N
  N65      1.0000 0.61468  0.09668  0.57540  Biso   1.000  N
  N66      1.0000 0.90332  0.51800  0.57540  Biso   1.000  N
  N67      1.0000 0.14867  0.71865  0.90873  Biso   1.000  N
  N68      1.0000 0.28135  0.43001  0.90873  Biso   1.000  N
  N69      1.0000 0.56999  0.85133  0.90873  Biso   1.000  N
  N70      1.0000 0.81533  0.05199  0.24207  Biso   1.000  N
  N71      1.0000 0.94801  0.76335  0.24207  Biso   1.000  N
  N72      1.0000 0.23665  0.18467  0.24207  Biso   1.000  N
  C73      1.0000 0.52090  0.61119  0.62140  Biso   1.000  C
  C74      1.0000 0.38881  0.90971  0.62140  Biso   1.000  C
  C75      1.0000 0.09029  0.47910  0.62140  Biso   1.000  C
  C76      1.0000 0.18757  0.94452  0.95473  Biso   1.000  C
  C77      1.0000 0.05548  0.24304  0.95473  Biso   1.000  C
  C78      1.0000 0.75696  0.81243  0.95473  Biso   1.000  C
  C79      1.0000 0.85423  0.27786  0.28807  Biso   1.000  C
  C80      1.0000 0.72214  0.57638  0.28807  Biso   1.000  C
  C81      1.0000 0.42362  0.14577  0.28807  Biso   1.000  C
  C82      1.0000 0.47910  0.38881  0.37860  Biso   1.000  C
  C83      1.0000 0.61119  0.09029  0.37860  Biso   1.000  C
  C84      1.0000 0.90971  0.52090  0.37860  Biso   1.000  C
  C85      1.0000 0.14577  0.72214  0.71193  Biso   1.000  C
  C86      1.0000 0.27786  0.42362  0.71193  Biso   1.000  C
  C87      1.0000 0.57638  0.85423  0.71193  Biso   1.000  C
  C88      1.0000 0.81243  0.05548  0.04527  Biso   1.000  C
  C89      1.0000 0.94452  0.75696  0.04527  Biso   1.000  C
  C90      1.0000 0.24304  0.18757  0.04527  Biso   1.000  C
  H37      1.0000 0.52230  0.63410  0.62490  Biso   1.000  H
  H38      1.0000 0.36590  0.88820  0.62490  Biso   1.000  H
  H39      1.0000 0.11180  0.47770  0.62490  Biso   1.000  H
  H40      1.0000 0.18897  0.96743  0.95823  Biso   1.000  H
  H41      1.0000 0.03257  0.22153  0.95823  Biso   1.000  H
  H42      1.0000 0.77847  0.81103  0.95823  Biso   1.000  H
  H43      1.0000 0.85563  0.30077  0.29157  Biso   1.000  H
  H44      1.0000 0.69923  0.55487  0.29157  Biso   1.000  H
  H45      1.0000 0.44513  0.14437  0.29157  Biso   1.000  H
  H46      1.0000 0.47770  0.36590  0.37510  Biso   1.000  H
  H47      1.0000 0.63410  0.11180  0.37510  Biso   1.000  H
  H48      1.0000 0.88820  0.52230  0.37510  Biso   1.000  H
  H49      1.0000 0.14437  0.69923  0.70843  Biso   1.000  H
  H50      1.0000 0.30077  0.44513  0.70843  Biso   1.000  H
  H51      1.0000 0.55487  0.85563  0.70843  Biso   1.000  H
  H52      1.0000 0.81103  0.03257  0.04177  Biso   1.000  H
  H53      1.0000 0.96743  0.77847  0.04177  Biso   1.000  H
  H54      1.0000 0.22153  0.18897  0.04177  Biso   1.000  H
  C91      1.0000 0.60800  0.70428  0.44720  Biso   1.000  C
  C92      1.0000 0.29572  0.90372  0.44720  Biso   1.000  C
  C93      1.0000 0.09628  0.39200  0.44720  Biso   1.000  C
  C94      1.0000 0.27467  0.03761  0.78053  Biso   1.000  C
  C95      1.0000 0.96239  0.23705  0.78053  Biso   1.000  C
  C96      1.0000 0.76295  0.72533  0.78053  Biso   1.000  C
  C97      1.0000 0.94133  0.37095  0.11387  Biso   1.000  C
  C98      1.0000 0.62905  0.57039  0.11387  Biso   1.000  C
  C99      1.0000 0.42961  0.05867  0.11387  Biso   1.000  C
  C100     1.0000 0.39200  0.29572  0.55280  Biso   1.000  C
  C101     1.0000 0.70428  0.09628  0.55280  Biso   1.000  C
  C102     1.0000 0.90372  0.60800  0.55280  Biso   1.000  C
  C103     1.0000 0.05867  0.62905  0.88613  Biso   1.000  C
  C104     1.0000 0.37095  0.42961  0.88613  Biso   1.000  C
  C105     1.0000 0.57039  0.94133  0.88613  Biso   1.000  C
  C106     1.0000 0.72533  0.96239  0.21947  Biso   1.000  C
  C107     1.0000 0.03761  0.76295  0.21947  Biso   1.000  C
  C108     1.0000 0.23705  0.27467  0.21947  Biso   1.000  C
  H55      1.0000 0.63100  0.71420  0.48220  Biso   1.000  H
  H56      1.0000 0.28580  0.91680  0.48220  Biso   1.000  H
  H57      1.0000 0.08320  0.36900  0.48220  Biso   1.000  H
  H58      1.0000 0.29767  0.04753  0.81553  Biso   1.000  H
  H59      1.0000 0.95247  0.25013  0.81553  Biso   1.000  H
  H60      1.0000 0.74987  0.70233  0.81553  Biso   1.000  H
  H61      1.0000 0.96433  0.38087  0.14887  Biso   1.000  H
  H62      1.0000 0.61913  0.58347  0.14887  Biso   1.000  H
  H63      1.0000 0.41653  0.03567  0.14887  Biso   1.000  H
  H64      1.0000 0.36900  0.28580  0.51780  Biso   1.000  H
  H65      1.0000 0.71420  0.08320  0.51780  Biso   1.000  H
  H66      1.0000 0.91680  0.63100  0.51780  Biso   1.000  H
  H67      1.0000 0.03567  0.61913  0.85113  Biso   1.000  H
  H68      1.0000 0.38087  0.41653  0.85113  Biso   1.000  H
  H69      1.0000 0.58347  0.96433  0.85113  Biso   1.000  H
  H70      1.0000 0.70233  0.95247  0.18447  Biso   1.000  H
  H71      1.0000 0.04753  0.74987  0.18447  Biso   1.000  H
  H72      1.0000 0.25013  0.29767  0.18447  Biso   1.000  H
  C109     1.0000 0.52000  0.59194  0.72150  Biso   1.000  C
  C110     1.0000 0.40806  0.92806  0.72150  Biso   1.000  C
  C111     1.0000 0.07194  0.48000  0.72150  Biso   1.000  C
  C112     1.0000 0.18667  0.92527  0.05483  Biso   1.000  C
  C113     1.0000 0.07473  0.26139  0.05483  Biso   1.000  C
  C114     1.0000 0.73861  0.81333  0.05483  Biso   1.000  C
  C115     1.0000 0.85333  0.25861  0.38817  Biso   1.000  C
  C116     1.0000 0.74139  0.59473  0.38817  Biso   1.000  C
  C117     1.0000 0.40527  0.14667  0.38817  Biso   1.000  C
  C118     1.0000 0.48000  0.40806  0.27850  Biso   1.000  C
  C119     1.0000 0.59194  0.07194  0.27850  Biso   1.000  C
  C120     1.0000 0.92806  0.52000  0.27850  Biso   1.000  C
  C121     1.0000 0.14667  0.74139  0.61183  Biso   1.000  C
  C122     1.0000 0.25861  0.40527  0.61183  Biso   1.000  C
  C123     1.0000 0.59473  0.85333  0.61183  Biso   1.000  C
  C124     1.0000 0.81333  0.07473  0.94517  Biso   1.000  C
  C125     1.0000 0.92527  0.73861  0.94517  Biso   1.000  C
  C126     1.0000 0.26139  0.18667  0.94517  Biso   1.000  C
  H73      1.0000 0.52470  0.60370  0.79110  Biso   1.000  H
  H74      1.0000 0.39630  0.92100  0.79110  Biso   1.000  H
  H75      1.0000 0.07900  0.47530  0.79110  Biso   1.000  H
  H76      1.0000 0.19137  0.93703  0.12443  Biso   1.000  H
  H77      1.0000 0.06297  0.25433  0.12443  Biso   1.000  H
  H78      1.0000 0.74567  0.80863  0.12443  Biso   1.000  H
  H79      1.0000 0.85803  0.27037  0.45777  Biso   1.000  H
  H80      1.0000 0.72963  0.58767  0.45777  Biso   1.000  H
  H81      1.0000 0.41233  0.14197  0.45777  Biso   1.000  H
  H82      1.0000 0.47530  0.39630  0.20890  Biso   1.000  H
  H83      1.0000 0.60370  0.07900  0.20890  Biso   1.000  H
  H84      1.0000 0.92100  0.52470  0.20890  Biso   1.000  H
  H85      1.0000 0.14197  0.72963  0.54223  Biso   1.000  H
  H86      1.0000 0.27037  0.41233  0.54223  Biso   1.000  H
  H87      1.0000 0.58767  0.85803  0.54223  Biso   1.000  H
  H88      1.0000 0.80863  0.06297  0.87557  Biso   1.000  H
  H89      1.0000 0.93703  0.74567  0.87557  Biso   1.000  H
  H90      1.0000 0.25433  0.19137  0.87557  Biso   1.000  H
  C127     1.0000 0.59830  0.72553  0.37590  Biso   1.000  C
  C128     1.0000 0.27447  0.87277  0.37590  Biso   1.000  C
  C129     1.0000 0.12723  0.40170  0.37590  Biso   1.000  C
  C130     1.0000 0.26497  0.05886  0.70923  Biso   1.000  C
  C131     1.0000 0.94114  0.20610  0.70923  Biso   1.000  C
  C132     1.0000 0.79390  0.73503  0.70923  Biso   1.000  C
  C133     1.0000 0.93163  0.39220  0.04257  Biso   1.000  C
  C134     1.0000 0.60780  0.53944  0.04257  Biso   1.000  C
  C135     1.0000 0.46056  0.06837  0.04257  Biso   1.000  C
  C136     1.0000 0.40170  0.27447  0.62410  Biso   1.000  C
  C137     1.0000 0.72553  0.12723  0.62410  Biso   1.000  C
  C138     1.0000 0.87277  0.59830  0.62410  Biso   1.000  C
  C139     1.0000 0.06837  0.60780  0.95743  Biso   1.000  C
  C140     1.0000 0.39220  0.46056  0.95743  Biso   1.000  C
  C141     1.0000 0.53944  0.93163  0.95743  Biso   1.000  C
  C142     1.0000 0.73503  0.94114  0.29077  Biso   1.000  C
  C143     1.0000 0.05886  0.79390  0.29077  Biso   1.000  C
  C144     1.0000 0.20610  0.26497  0.29077  Biso   1.000  C
  C145     1.0000 0.50870  0.53970  0.61390  Biso   1.000  C
  C146     1.0000 0.46030  0.96900  0.61390  Biso   1.000  C
  C147     1.0000 0.03100  0.49130  0.61390  Biso   1.000  C
  C148     1.0000 0.17537  0.87303  0.94723  Biso   1.000  C
  C149     1.0000 0.12697  0.30233  0.94723  Biso   1.000  C
  C150     1.0000 0.69767  0.82463  0.94723  Biso   1.000  C
  C151     1.0000 0.84203  0.20637  0.28057  Biso   1.000  C
  C152     1.0000 0.79363  0.63567  0.28057  Biso   1.000  C
  C153     1.0000 0.36433  0.15797  0.28057  Biso   1.000  C
  C154     1.0000 0.49130  0.46030  0.38610  Biso   1.000  C
  C155     1.0000 0.53970  0.03100  0.38610  Biso   1.000  C
  C156     1.0000 0.96900  0.50870  0.38610  Biso   1.000  C
  C157     1.0000 0.15797  0.79363  0.71943  Biso   1.000  C
  C158     1.0000 0.20637  0.36433  0.71943  Biso   1.000  C
  C159     1.0000 0.63567  0.84203  0.71943  Biso   1.000  C
  C160     1.0000 0.82463  0.12697  0.05277  Biso   1.000  C
  C161     1.0000 0.87303  0.69767  0.05277  Biso   1.000  C
  C162     1.0000 0.30233  0.17537  0.05277  Biso   1.000  C
  H91      1.0000 0.50570  0.51620  0.61010  Biso   1.000  H
  H92      1.0000 0.48380  0.98950  0.61010  Biso   1.000  H
  H93      1.0000 0.01050  0.49430  0.61010  Biso   1.000  H
  H94      1.0000 0.17237  0.84953  0.94343  Biso   1.000  H
  H95      1.0000 0.15047  0.32283  0.94343  Biso   1.000  H
  H96      1.0000 0.67717  0.82763  0.94343  Biso   1.000  H
  H97      1.0000 0.83903  0.18287  0.27677  Biso   1.000  H
  H98      1.0000 0.81713  0.65617  0.27677  Biso   1.000  H
  H99      1.0000 0.34383  0.16097  0.27677  Biso   1.000  H
  H100     1.0000 0.49430  0.48380  0.38990  Biso   1.000  H
  H101     1.0000 0.51620  0.01050  0.38990  Biso   1.000  H
  H102     1.0000 0.98950  0.50570  0.38990  Biso   1.000  H
  H103     1.0000 0.16097  0.81713  0.72323  Biso   1.000  H
  H104     1.0000 0.18287  0.34383  0.72323  Biso   1.000  H
  H105     1.0000 0.65617  0.83903  0.72323  Biso   1.000  H
  H106     1.0000 0.82763  0.15047  0.05657  Biso   1.000  H
  H107     1.0000 0.84953  0.67717  0.05657  Biso   1.000  H
  H108     1.0000 0.32283  0.17237  0.05657  Biso   1.000  H
  C163     1.0000 0.55040  0.65280  0.40700  Biso   1.000  C
  C164     1.0000 0.34720  0.89760  0.40700  Biso   1.000  C
  C165     1.0000 0.10240  0.44960  0.40700  Biso   1.000  C
  C166     1.0000 0.21707  0.98613  0.74033  Biso   1.000  C
  C167     1.0000 0.01387  0.23093  0.74033  Biso   1.000  C
  C168     1.0000 0.76907  0.78293  0.74033  Biso   1.000  C
  C169     1.0000 0.88373  0.31947  0.07367  Biso   1.000  C
  C170     1.0000 0.68053  0.56427  0.07367  Biso   1.000  C
  C171     1.0000 0.43573  0.11627  0.07367  Biso   1.000  C
  C172     1.0000 0.44960  0.34720  0.59300  Biso   1.000  C
  C173     1.0000 0.65280  0.10240  0.59300  Biso   1.000  C
  C174     1.0000 0.89760  0.55040  0.59300  Biso   1.000  C
  C175     1.0000 0.11627  0.68053  0.92633  Biso   1.000  C
  C176     1.0000 0.31947  0.43573  0.92633  Biso   1.000  C
  C177     1.0000 0.56427  0.88373  0.92633  Biso   1.000  C
  C178     1.0000 0.78293  0.01387  0.25967  Biso   1.000  C
  C179     1.0000 0.98613  0.76907  0.25967  Biso   1.000  C
  C180     1.0000 0.23093  0.21707  0.25967  Biso   1.000  C
  C181     1.0000 0.56410  0.70970  0.32370  Biso   1.000  C
  C182     1.0000 0.29030  0.85440  0.32370  Biso   1.000  C
  C183     1.0000 0.14560  0.43590  0.32370  Biso   1.000  C
  C184     1.0000 0.23077  0.04303  0.65703  Biso   1.000  C
  C185     1.0000 0.95697  0.18773  0.65703  Biso   1.000  C
  C186     1.0000 0.81227  0.76923  0.65703  Biso   1.000  C
  C187     1.0000 0.89743  0.37637  0.99037  Biso   1.000  C
  C188     1.0000 0.62363  0.52107  0.99037  Biso   1.000  C
  C189     1.0000 0.47893  0.10257  0.99037  Biso   1.000  C
  C190     1.0000 0.43590  0.29030  0.67630  Biso   1.000  C
  C191     1.0000 0.70970  0.14560  0.67630  Biso   1.000  C
  C192     1.0000 0.85440  0.56410  0.67630  Biso   1.000  C
  C193     1.0000 0.10257  0.62363  0.00963  Biso   1.000  C
  C194     1.0000 0.37637  0.47893  0.00963  Biso   1.000  C
  C195     1.0000 0.52107  0.89743  0.00963  Biso   1.000  C
  C196     1.0000 0.76923  0.95697  0.34297  Biso   1.000  C
  C197     1.0000 0.04303  0.81227  0.34297  Biso   1.000  C
  C198     1.0000 0.18773  0.23077  0.34297  Biso   1.000  C
  H109     1.0000 0.55830  0.72440  0.27950  Biso   1.000  H
  H110     1.0000 0.27560  0.83390  0.27950  Biso   1.000  H
  H111     1.0000 0.16610  0.44170  0.27950  Biso   1.000  H
  H112     1.0000 0.22497  0.05773  0.61283  Biso   1.000  H
  H113     1.0000 0.94227  0.16723  0.61283  Biso   1.000  H
  H114     1.0000 0.83277  0.77503  0.61283  Biso   1.000  H
  H115     1.0000 0.89163  0.39107  0.94617  Biso   1.000  H
  H116     1.0000 0.60893  0.50057  0.94617  Biso   1.000  H
  H117     1.0000 0.49943  0.10837  0.94617  Biso   1.000  H
  H118     1.0000 0.44170  0.27560  0.72050  Biso   1.000  H
  H119     1.0000 0.72440  0.16610  0.72050  Biso   1.000  H
  H120     1.0000 0.83390  0.55830  0.72050  Biso   1.000  H
  H121     1.0000 0.10837  0.60893  0.05383  Biso   1.000  H
  H122     1.0000 0.39107  0.49943  0.05383  Biso   1.000  H
  H123     1.0000 0.50057  0.89163  0.05383  Biso   1.000  H
  H124     1.0000 0.77503  0.94227  0.38717  Biso   1.000  H
  H125     1.0000 0.05773  0.83277  0.38717  Biso   1.000  H
  H126     1.0000 0.16723  0.22497  0.38717  Biso   1.000  H
  C199     1.0000 0.51950  0.59514  0.52150  Biso   1.000  C
  C200     1.0000 0.40486  0.92436  0.52150  Biso   1.000  C
  C201     1.0000 0.07564  0.48050  0.52150  Biso   1.000  C
  C202     1.0000 0.18617  0.92847  0.85483  Biso   1.000  C
  C203     1.0000 0.07153  0.25769  0.85483  Biso   1.000  C
  C204     1.0000 0.74231  0.81383  0.85483  Biso   1.000  C
  C205     1.0000 0.85283  0.26181  0.18817  Biso   1.000  C
  C206     1.0000 0.73819  0.59103  0.18817  Biso   1.000  C
  C207     1.0000 0.40897  0.14717  0.18817  Biso   1.000  C
  C208     1.0000 0.48050  0.40486  0.47850  Biso   1.000  C
  C209     1.0000 0.59514  0.07564  0.47850  Biso   1.000  C
  C210     1.0000 0.92436  0.51950  0.47850  Biso   1.000  C
  C211     1.0000 0.14717  0.73819  0.81183  Biso   1.000  C
  C212     1.0000 0.26181  0.40897  0.81183  Biso   1.000  C
  C213     1.0000 0.59103  0.85283  0.81183  Biso   1.000  C
  C214     1.0000 0.81383  0.07153  0.14517  Biso   1.000  C
  C215     1.0000 0.92847  0.74231  0.14517  Biso   1.000  C
  C216     1.0000 0.25769  0.18617  0.14517  Biso   1.000  C
  C217     1.0000 0.46870  0.58030  0.29240  Biso   1.000  C
  C218     1.0000 0.41970  0.88840  0.29240  Biso   1.000  C
  C219     1.0000 0.11160  0.53130  0.29240  Biso   1.000  C
  C220     1.0000 0.13537  0.91363  0.62573  Biso   1.000  C
  C221     1.0000 0.08637  0.22173  0.62573  Biso   1.000  C
  C222     1.0000 0.77827  0.86463  0.62573  Biso   1.000  C
  C223     1.0000 0.80203  0.24697  0.95907  Biso   1.000  C
  C224     1.0000 0.75303  0.55507  0.95907  Biso   1.000  C
  C225     1.0000 0.44493  0.19797  0.95907  Biso   1.000  C
  C226     1.0000 0.53130  0.41970  0.70760  Biso   1.000  C
  C227     1.0000 0.58030  0.11160  0.70760  Biso   1.000  C
  C228     1.0000 0.88840  0.46870  0.70760  Biso   1.000  C
  C229     1.0000 0.19797  0.75303  0.04093  Biso   1.000  C
  C230     1.0000 0.24697  0.44493  0.04093  Biso   1.000  C
  C231     1.0000 0.55507  0.80203  0.04093  Biso   1.000  C
  C232     1.0000 0.86463  0.08637  0.37427  Biso   1.000  C
  C233     1.0000 0.91363  0.77827  0.37427  Biso   1.000  C
  C234     1.0000 0.22173  0.13537  0.37427  Biso   1.000  C
  H127     1.0000 0.45070  0.58270  0.33070  Biso   1.000  H
  H128     1.0000 0.41730  0.86800  0.33070  Biso   1.000  H
  H129     1.0000 0.13200  0.54930  0.33070  Biso   1.000  H
  H130     1.0000 0.11737  0.91603  0.66403  Biso   1.000  H
  H131     1.0000 0.08397  0.20133  0.66403  Biso   1.000  H
  H132     1.0000 0.79867  0.88263  0.66403  Biso   1.000  H
  H133     1.0000 0.78403  0.24937  0.99737  Biso   1.000  H
  H134     1.0000 0.75063  0.53467  0.99737  Biso   1.000  H
  H135     1.0000 0.46533  0.21597  0.99737  Biso   1.000  H
  H136     1.0000 0.54930  0.41730  0.66930  Biso   1.000  H
  H137     1.0000 0.58270  0.13200  0.66930  Biso   1.000  H
  H138     1.0000 0.86800  0.45070  0.66930  Biso   1.000  H
  H139     1.0000 0.21597  0.75063  0.00263  Biso   1.000  H
  H140     1.0000 0.24937  0.46533  0.00263  Biso   1.000  H
  H141     1.0000 0.53467  0.78403  0.00263  Biso   1.000  H
  H142     1.0000 0.88263  0.08397  0.33597  Biso   1.000  H
  H143     1.0000 0.91603  0.79867  0.33597  Biso   1.000  H
  H144     1.0000 0.20133  0.11737  0.33597  Biso   1.000  H
  C235     1.0000 0.53930  0.67370  0.33490  Biso   1.000  C
  C236     1.0000 0.32630  0.86560  0.33490  Biso   1.000  C
  C237     1.0000 0.13440  0.46070  0.33490  Biso   1.000  C
  C238     1.0000 0.20597  0.00703  0.66823  Biso   1.000  C
  C239     1.0000 0.99297  0.19893  0.66823  Biso   1.000  C
  C240     1.0000 0.80107  0.79403  0.66823  Biso   1.000  C
  C241     1.0000 0.87263  0.34037  0.00157  Biso   1.000  C
  C242     1.0000 0.65963  0.53227  0.00157  Biso   1.000  C
  C243     1.0000 0.46773  0.12737  0.00157  Biso   1.000  C
  C244     1.0000 0.46070  0.32630  0.66510  Biso   1.000  C
  C245     1.0000 0.67370  0.13440  0.66510  Biso   1.000  C
  C246     1.0000 0.86560  0.53930  0.66510  Biso   1.000  C
  C247     1.0000 0.12737  0.65963  0.99843  Biso   1.000  C
  C248     1.0000 0.34037  0.46773  0.99843  Biso   1.000  C
  C249     1.0000 0.53227  0.87263  0.99843  Biso   1.000  C
  C250     1.0000 0.79403  0.99297  0.33177  Biso   1.000  C
  C251     1.0000 0.00703  0.80107  0.33177  Biso   1.000  C
  C252     1.0000 0.19893  0.20597  0.33177  Biso   1.000  C
  H145     1.0000 0.51640  0.66290  0.29890  Biso   1.000  H
  H146     1.0000 0.33710  0.85350  0.29890  Biso   1.000  H
  H147     1.0000 0.14650  0.48360  0.29890  Biso   1.000  H
  H148     1.0000 0.18307  0.99623  0.63223  Biso   1.000  H
  H149     1.0000 0.00377  0.18683  0.63223  Biso   1.000  H
  H150     1.0000 0.81317  0.81693  0.63223  Biso   1.000  H
  H151     1.0000 0.84973  0.32957  0.96557  Biso   1.000  H
  H152     1.0000 0.67043  0.52017  0.96557  Biso   1.000  H
  H153     1.0000 0.47983  0.15027  0.96557  Biso   1.000  H
  H154     1.0000 0.48360  0.33710  0.70110  Biso   1.000  H
  H155     1.0000 0.66290  0.14650  0.70110  Biso   1.000  H
  H156     1.0000 0.85350  0.51640  0.70110  Biso   1.000  H
  H157     1.0000 0.15027  0.67043  0.03443  Biso   1.000  H
  H158     1.0000 0.32957  0.47983  0.03443  Biso   1.000  H
  H159     1.0000 0.52017  0.84973  0.03443  Biso   1.000  H
  H160     1.0000 0.81693  0.00377  0.36777  Biso   1.000  H
  H161     1.0000 0.99623  0.81317  0.36777  Biso   1.000  H
  H162     1.0000 0.18683  0.18307  0.36777  Biso   1.000  H
  C253     1.0000 0.50940  0.55929  0.51630  Biso   1.000  C
  C254     1.0000 0.44071  0.95011  0.51630  Biso   1.000  C
  C255     1.0000 0.04989  0.49060  0.51630  Biso   1.000  C
  C256     1.0000 0.17607  0.89262  0.84963  Biso   1.000  C
  C257     1.0000 0.10738  0.28344  0.84963  Biso   1.000  C
  C258     1.0000 0.71656  0.82393  0.84963  Biso   1.000  C
  C259     1.0000 0.84273  0.22596  0.18297  Biso   1.000  C
  C260     1.0000 0.77404  0.61678  0.18297  Biso   1.000  C
  C261     1.0000 0.38322  0.15727  0.18297  Biso   1.000  C
  C262     1.0000 0.49060  0.44071  0.48370  Biso   1.000  C
  C263     1.0000 0.55929  0.04989  0.48370  Biso   1.000  C
  C264     1.0000 0.95011  0.50940  0.48370  Biso   1.000  C
  C265     1.0000 0.15727  0.77404  0.81703  Biso   1.000  C
  C266     1.0000 0.22596  0.38322  0.81703  Biso   1.000  C
  C267     1.0000 0.61678  0.84273  0.81703  Biso   1.000  C
  C268     1.0000 0.82393  0.10738  0.15037  Biso   1.000  C
  C269     1.0000 0.89262  0.71656  0.15037  Biso   1.000  C
  C270     1.0000 0.28344  0.17607  0.15037  Biso   1.000  C
  H163     1.0000 0.50290  0.54720  0.44710  Biso   1.000  H
  H164     1.0000 0.45280  0.95570  0.44710  Biso   1.000  H
  H165     1.0000 0.04430  0.49710  0.44710  Biso   1.000  H
  H166     1.0000 0.16957  0.88053  0.78043  Biso   1.000  H
  H167     1.0000 0.11947  0.28903  0.78043  Biso   1.000  H
  H168     1.0000 0.71097  0.83043  0.78043  Biso   1.000  H
  H169     1.0000 0.83623  0.21387  0.11377  Biso   1.000  H
  H170     1.0000 0.78613  0.62237  0.11377  Biso   1.000  H
  H171     1.0000 0.37763  0.16377  0.11377  Biso   1.000  H
  H172     1.0000 0.49710  0.45280  0.55290  Biso   1.000  H
  H173     1.0000 0.54720  0.04430  0.55290  Biso   1.000  H
  H174     1.0000 0.95570  0.50290  0.55290  Biso   1.000  H
  H175     1.0000 0.16377  0.78613  0.88623  Biso   1.000  H
  H176     1.0000 0.21387  0.37763  0.88623  Biso   1.000  H
  H177     1.0000 0.62237  0.83623  0.88623  Biso   1.000  H
  H178     1.0000 0.83043  0.11947  0.21957  Biso   1.000  H
  H179     1.0000 0.88053  0.71097  0.21957  Biso   1.000  H
  H180     1.0000 0.28903  0.16957  0.21957  Biso   1.000  H
  C271     1.0000 0.62390  0.76471  0.35620  Biso   1.000  C
  C272     1.0000 0.23529  0.85919  0.35620  Biso   1.000  C
  C273     1.0000 0.14081  0.37610  0.35620  Biso   1.000  C
  C274     1.0000 0.29057  0.09804  0.68953  Biso   1.000  C
  C275     1.0000 0.90196  0.19252  0.68953  Biso   1.000  C
  C276     1.0000 0.80748  0.70943  0.68953  Biso   1.000  C
  C277     1.0000 0.95723  0.43138  0.02287  Biso   1.000  C
  C278     1.0000 0.56862  0.52586  0.02287  Biso   1.000  C
  C279     1.0000 0.47414  0.04277  0.02287  Biso   1.000  C
  C280     1.0000 0.37610  0.23529  0.64380  Biso   1.000  C
  C281     1.0000 0.76471  0.14081  0.64380  Biso   1.000  C
  C282     1.0000 0.85919  0.62390  0.64380  Biso   1.000  C
  C283     1.0000 0.04277  0.56862  0.97713  Biso   1.000  C
  C284     1.0000 0.43138  0.47414  0.97713  Biso   1.000  C
  C285     1.0000 0.52586  0.95723  0.97713  Biso   1.000  C
  C286     1.0000 0.70943  0.90196  0.31047  Biso   1.000  C
  C287     1.0000 0.09804  0.80748  0.31047  Biso   1.000  C
  C288     1.0000 0.19252  0.29057  0.31047  Biso   1.000  C
