data_image0
_cell_length_a       18.198
_cell_length_b       18.198
_cell_length_c       43.859
_cell_angle_alpha    90
_cell_angle_beta     90
_cell_angle_gamma    90

_symmetry_space_group_name_H-M    "P 1"
_symmetry_int_tables_number       1

loop_
  _symmetry_equiv_pos_as_xyz
  'x, y, z'

loop_
  _atom_site_label
  _atom_site_occupancy
  _atom_site_fract_x
  _atom_site_fract_y
  _atom_site_fract_z
  _atom_site_thermal_displace_type
  _atom_site_B_iso_or_equiv
  _atom_site_type_symbol
  Cu1      1.0000 0.95345  0.69490  0.16203  Biso   1.000  Cu
  Cu2      1.0000 0.54655  0.30510  0.66203  Biso   1.000  Cu
  Cu3      1.0000 0.05510  0.20345  0.41203  Biso   1.000  Cu
  Cu4      1.0000 0.44490  0.79655  0.91203  Biso   1.000  Cu
  Cu5      1.0000 0.45345  0.19490  0.66203  Biso   1.000  Cu
  Cu6      1.0000 0.04655  0.80510  0.16203  Biso   1.000  Cu
  Cu7      1.0000 0.55510  0.70345  0.91203  Biso   1.000  Cu
  Cu8      1.0000 0.94490  0.29655  0.41203  Biso   1.000  Cu
  Cu9      1.0000 0.04655  0.30510  0.83797  Biso   1.000  Cu
  Cu10     1.0000 0.45345  0.69490  0.33797  Biso   1.000  Cu
  Cu11     1.0000 0.44490  0.29655  0.08797  Biso   1.000  Cu
  Cu12     1.0000 0.05510  0.70345  0.58797  Biso   1.000  Cu
  Cu13     1.0000 0.54655  0.80510  0.33797  Biso   1.000  Cu
  Cu14     1.0000 0.95345  0.19490  0.83797  Biso   1.000  Cu
  Cu15     1.0000 0.94490  0.79655  0.58797  Biso   1.000  Cu
  Cu16     1.0000 0.55510  0.20345  0.08797  Biso   1.000  Cu
  O1       1.0000 0.00860  0.34825  0.38186  Biso   1.000  O
  O2       1.0000 0.49140  0.65175  0.88186  Biso   1.000  O
  O3       1.0000 0.40175  0.25860  0.63186  Biso   1.000  O
  O4       1.0000 0.09825  0.74140  0.13186  Biso   1.000  O
  O5       1.0000 0.50860  0.84825  0.88186  Biso   1.000  O
  O6       1.0000 0.99140  0.15175  0.38186  Biso   1.000  O
  O7       1.0000 0.90175  0.75860  0.13186  Biso   1.000  O
  O8       1.0000 0.59825  0.24140  0.63186  Biso   1.000  O
  O9       1.0000 0.99140  0.65175  0.61814  Biso   1.000  O
  O10      1.0000 0.50860  0.34825  0.11814  Biso   1.000  O
  O11      1.0000 0.09825  0.24140  0.86814  Biso   1.000  O
  O12      1.0000 0.40175  0.75860  0.36814  Biso   1.000  O
  O13      1.0000 0.49140  0.15175  0.11814  Biso   1.000  O
  O14      1.0000 0.00860  0.84825  0.61814  Biso   1.000  O
  O15      1.0000 0.59825  0.74140  0.36814  Biso   1.000  O
  O16      1.0000 0.90175  0.25860  0.86814  Biso   1.000  O
  O17      1.0000 0.01441  0.64710  0.19202  Biso   1.000  O
  O18      1.0000 0.48559  0.35290  0.69202  Biso   1.000  O
  O19      1.0000 0.10290  0.26441  0.44202  Biso   1.000  O
  O20      1.0000 0.39710  0.73559  0.94202  Biso   1.000  O
  O21      1.0000 0.51441  0.14710  0.69202  Biso   1.000  O
  O22      1.0000 0.98559  0.85290  0.19202  Biso   1.000  O
  O23      1.0000 0.60290  0.76441  0.94202  Biso   1.000  O
  O24      1.0000 0.89710  0.23559  0.44202  Biso   1.000  O
  O25      1.0000 0.98559  0.35290  0.80798  Biso   1.000  O
  O26      1.0000 0.51441  0.64710  0.30798  Biso   1.000  O
  O27      1.0000 0.39710  0.23559  0.05798  Biso   1.000  O
  O28      1.0000 0.10290  0.76441  0.55798  Biso   1.000  O
  O29      1.0000 0.48559  0.85290  0.30798  Biso   1.000  O
  O30      1.0000 0.01441  0.14710  0.80798  Biso   1.000  O
  O31      1.0000 0.89710  0.73559  0.55798  Biso   1.000  O
  O32      1.0000 0.60290  0.26441  0.05798  Biso   1.000  O
  O33      1.0000 0.08994  0.74110  0.19560  Biso   1.000  O
  O34      1.0000 0.41006  0.25890  0.69560  Biso   1.000  O
  O35      1.0000 0.00890  0.33994  0.44560  Biso   1.000  O
  O36      1.0000 0.49110  0.66006  0.94560  Biso   1.000  O
  O37      1.0000 0.58994  0.24110  0.69560  Biso   1.000  O
  O38      1.0000 0.91006  0.75890  0.19560  Biso   1.000  O
  O39      1.0000 0.50890  0.83994  0.94560  Biso   1.000  O
  O40      1.0000 0.99110  0.16006  0.44560  Biso   1.000  O
  O41      1.0000 0.91006  0.25890  0.80440  Biso   1.000  O
  O42      1.0000 0.58994  0.74110  0.30440  Biso   1.000  O
  O43      1.0000 0.49110  0.16006  0.05440  Biso   1.000  O
  O44      1.0000 0.00890  0.83994  0.55440  Biso   1.000  O
  O45      1.0000 0.41006  0.75890  0.30440  Biso   1.000  O
  O46      1.0000 0.08994  0.24110  0.80440  Biso   1.000  O
  O47      1.0000 0.99110  0.66006  0.55440  Biso   1.000  O
  O48      1.0000 0.50890  0.33994  0.05440  Biso   1.000  O
  O49      1.0000 0.09420  0.26810  0.37938  Biso   1.000  O
  O50      1.0000 0.40580  0.73190  0.87938  Biso   1.000  O
  O51      1.0000 0.48190  0.34420  0.62938  Biso   1.000  O
  O52      1.0000 0.01810  0.65580  0.12938  Biso   1.000  O
  O53      1.0000 0.59420  0.76810  0.87938  Biso   1.000  O
  O54      1.0000 0.90580  0.23190  0.37938  Biso   1.000  O
  O55      1.0000 0.98190  0.84420  0.12938  Biso   1.000  O
  O56      1.0000 0.51810  0.15580  0.62938  Biso   1.000  O
  O57      1.0000 0.90580  0.73190  0.62062  Biso   1.000  O
  O58      1.0000 0.59420  0.26810  0.12062  Biso   1.000  O
  O59      1.0000 0.01810  0.15580  0.87062  Biso   1.000  O
  O60      1.0000 0.48190  0.84420  0.37062  Biso   1.000  O
  O61      1.0000 0.40580  0.23190  0.12062  Biso   1.000  O
  O62      1.0000 0.09420  0.76810  0.62062  Biso   1.000  O
  O63      1.0000 0.51810  0.65580  0.37062  Biso   1.000  O
  O64      1.0000 0.98190  0.34420  0.87062  Biso   1.000  O
  N1       1.0000 0.27790  0.56300  0.31269  Biso   1.000  N
  N2       1.0000 0.22210  0.43700  0.81269  Biso   1.000  N
  N3       1.0000 0.18700  0.52790  0.56269  Biso   1.000  N
  N4       1.0000 0.31300  0.47210  0.06269  Biso   1.000  N
  N5       1.0000 0.77790  0.06300  0.81269  Biso   1.000  N
  N6       1.0000 0.72210  0.93700  0.31269  Biso   1.000  N
  N7       1.0000 0.68700  0.02790  0.06269  Biso   1.000  N
  N8       1.0000 0.81300  0.97210  0.56269  Biso   1.000  N
  N9       1.0000 0.72210  0.43700  0.68731  Biso   1.000  N
  N10      1.0000 0.77790  0.56300  0.18731  Biso   1.000  N
  N11      1.0000 0.31300  0.97210  0.93731  Biso   1.000  N
  N12      1.0000 0.18700  0.02790  0.43731  Biso   1.000  N
  N13      1.0000 0.22210  0.93700  0.18731  Biso   1.000  N
  N14      1.0000 0.27790  0.06300  0.68731  Biso   1.000  N
  N15      1.0000 0.81300  0.47210  0.43731  Biso   1.000  N
  N16      1.0000 0.68700  0.52790  0.93731  Biso   1.000  N
  N17      1.0000 0.36562  0.62060  0.33441  Biso   1.000  N
  N18      1.0000 0.13438  0.37940  0.83441  Biso   1.000  N
  N19      1.0000 0.12940  0.61562  0.58441  Biso   1.000  N
  N20      1.0000 0.37060  0.38438  0.08441  Biso   1.000  N
  N21      1.0000 0.86562  0.12060  0.83441  Biso   1.000  N
  N22      1.0000 0.63438  0.87940  0.33441  Biso   1.000  N
  N23      1.0000 0.62940  0.11562  0.08441  Biso   1.000  N
  N24      1.0000 0.87060  0.88438  0.58441  Biso   1.000  N
  N25      1.0000 0.63438  0.37940  0.66559  Biso   1.000  N
  N26      1.0000 0.86562  0.62060  0.16559  Biso   1.000  N
  N27      1.0000 0.37060  0.88438  0.91559  Biso   1.000  N
  N28      1.0000 0.12940  0.11562  0.41559  Biso   1.000  N
  N29      1.0000 0.13438  0.87940  0.16559  Biso   1.000  N
  N30      1.0000 0.36562  0.12060  0.66559  Biso   1.000  N
  N31      1.0000 0.87060  0.38438  0.41559  Biso   1.000  N
  N32      1.0000 0.62940  0.61562  0.91559  Biso   1.000  N
  C1       1.0000 0.06820  0.67970  0.20286  Biso   1.000  C
  C2       1.0000 0.43180  0.32030  0.70286  Biso   1.000  C
  C3       1.0000 0.07030  0.31820  0.45286  Biso   1.000  C
  C4       1.0000 0.42970  0.68180  0.95286  Biso   1.000  C
  C5       1.0000 0.56820  0.17970  0.70286  Biso   1.000  C
  C6       1.0000 0.93180  0.82030  0.20286  Biso   1.000  C
  C7       1.0000 0.57030  0.81820  0.95286  Biso   1.000  C
  C8       1.0000 0.92970  0.18180  0.45286  Biso   1.000  C
  C9       1.0000 0.93180  0.32030  0.79714  Biso   1.000  C
  C10      1.0000 0.56820  0.67970  0.29714  Biso   1.000  C
  C11      1.0000 0.42970  0.18180  0.04714  Biso   1.000  C
  C12      1.0000 0.07030  0.81820  0.54714  Biso   1.000  C
  C13      1.0000 0.43180  0.82030  0.29714  Biso   1.000  C
  C14      1.0000 0.06820  0.17970  0.79714  Biso   1.000  C
  C15      1.0000 0.92970  0.68180  0.54714  Biso   1.000  C
  C16      1.0000 0.57030  0.31820  0.04714  Biso   1.000  C
  C17      1.0000 0.07020  0.32320  0.37156  Biso   1.000  C
  C18      1.0000 0.42980  0.67680  0.87156  Biso   1.000  C
  C19      1.0000 0.42680  0.32020  0.62156  Biso   1.000  C
  C20      1.0000 0.07320  0.67980  0.12156  Biso   1.000  C
  C21      1.0000 0.57020  0.82320  0.87156  Biso   1.000  C
  C22      1.0000 0.92980  0.17680  0.37156  Biso   1.000  C
  C23      1.0000 0.92680  0.82020  0.12156  Biso   1.000  C
  C24      1.0000 0.57320  0.17980  0.62156  Biso   1.000  C
  C25      1.0000 0.92980  0.67680  0.62844  Biso   1.000  C
  C26      1.0000 0.57020  0.32320  0.12844  Biso   1.000  C
  C27      1.0000 0.07320  0.17980  0.87844  Biso   1.000  C
  C28      1.0000 0.42680  0.82020  0.37844  Biso   1.000  C
  C29      1.0000 0.42980  0.17680  0.12844  Biso   1.000  C
  C30      1.0000 0.07020  0.82320  0.62844  Biso   1.000  C
  C31      1.0000 0.57320  0.67980  0.37844  Biso   1.000  C
  C32      1.0000 0.92680  0.32020  0.87844  Biso   1.000  C
  C33      1.0000 0.35430  0.57240  0.31272  Biso   1.000  C
  C34      1.0000 0.14570  0.42760  0.81272  Biso   1.000  C
  C35      1.0000 0.17760  0.60430  0.56272  Biso   1.000  C
  C36      1.0000 0.32240  0.39570  0.06272  Biso   1.000  C
  C37      1.0000 0.85430  0.07240  0.81272  Biso   1.000  C
  C38      1.0000 0.64570  0.92760  0.31272  Biso   1.000  C
  C39      1.0000 0.67760  0.10430  0.06272  Biso   1.000  C
  C40      1.0000 0.82240  0.89570  0.56272  Biso   1.000  C
  C41      1.0000 0.64570  0.42760  0.68728  Biso   1.000  C
  C42      1.0000 0.85430  0.57240  0.18728  Biso   1.000  C
  C43      1.0000 0.32240  0.89570  0.93728  Biso   1.000  C
  C44      1.0000 0.17760  0.10430  0.43728  Biso   1.000  C
  C45      1.0000 0.14570  0.92760  0.18728  Biso   1.000  C
  C46      1.0000 0.35430  0.07240  0.68728  Biso   1.000  C
  C47      1.0000 0.82240  0.39570  0.43728  Biso   1.000  C
  C48      1.0000 0.67760  0.60430  0.93728  Biso   1.000  C
  H1       1.0000 0.38890  0.54970  0.30030  Biso   1.000  H
  H2       1.0000 0.11110  0.45030  0.80030  Biso   1.000  H
  H3       1.0000 0.20030  0.63890  0.55030  Biso   1.000  H
  H4       1.0000 0.29970  0.36110  0.05030  Biso   1.000  H
  H5       1.0000 0.88890  0.04970  0.80030  Biso   1.000  H
  H6       1.0000 0.61110  0.95030  0.30030  Biso   1.000  H
  H7       1.0000 0.70030  0.13890  0.05030  Biso   1.000  H
  H8       1.0000 0.79970  0.86110  0.55030  Biso   1.000  H
  H9       1.0000 0.61110  0.45030  0.69970  Biso   1.000  H
  H10      1.0000 0.88890  0.54970  0.19970  Biso   1.000  H
  H11      1.0000 0.29970  0.86110  0.94970  Biso   1.000  H
  H12      1.0000 0.20030  0.13890  0.44970  Biso   1.000  H
  H13      1.0000 0.11110  0.95030  0.19970  Biso   1.000  H
  H14      1.0000 0.38890  0.04970  0.69970  Biso   1.000  H
  H15      1.0000 0.79970  0.36110  0.44970  Biso   1.000  H
  H16      1.0000 0.70030  0.63890  0.94970  Biso   1.000  H
  C49      1.0000 0.16570  0.67550  0.24315  Biso   1.000  C
  C50      1.0000 0.33430  0.32450  0.74315  Biso   1.000  C
  C51      1.0000 0.07450  0.41570  0.49315  Biso   1.000  C
  C52      1.0000 0.42550  0.58430  0.99315  Biso   1.000  C
  C53      1.0000 0.66570  0.17550  0.74315  Biso   1.000  C
  C54      1.0000 0.83430  0.82450  0.24315  Biso   1.000  C
  C55      1.0000 0.57450  0.91570  0.99315  Biso   1.000  C
  C56      1.0000 0.92550  0.08430  0.49315  Biso   1.000  C
  C57      1.0000 0.83430  0.32450  0.75685  Biso   1.000  C
  C58      1.0000 0.66570  0.67550  0.25685  Biso   1.000  C
  C59      1.0000 0.42550  0.08430  0.00685  Biso   1.000  C
  C60      1.0000 0.07450  0.91570  0.50685  Biso   1.000  C
  C61      1.0000 0.33430  0.82450  0.25685  Biso   1.000  C
  C62      1.0000 0.16570  0.17550  0.75685  Biso   1.000  C
  C63      1.0000 0.92550  0.58430  0.50685  Biso   1.000  C
  C64      1.0000 0.57450  0.41570  0.00685  Biso   1.000  C
  H17      1.0000 0.17840  0.72370  0.23840  Biso   1.000  H
  H18      1.0000 0.32160  0.27630  0.73840  Biso   1.000  H
  H19      1.0000 0.02630  0.42840  0.48840  Biso   1.000  H
  H20      1.0000 0.47370  0.57160  0.98840  Biso   1.000  H
  H21      1.0000 0.67840  0.22370  0.73840  Biso   1.000  H
  H22      1.0000 0.82160  0.77630  0.23840  Biso   1.000  H
  H23      1.0000 0.52630  0.92840  0.98840  Biso   1.000  H
  H24      1.0000 0.97370  0.07160  0.48840  Biso   1.000  H
  H25      1.0000 0.82160  0.27630  0.76160  Biso   1.000  H
  H26      1.0000 0.67840  0.72370  0.26160  Biso   1.000  H
  H27      1.0000 0.47370  0.07160  0.01160  Biso   1.000  H
  H28      1.0000 0.02630  0.92840  0.51160  Biso   1.000  H
  H29      1.0000 0.32160  0.77630  0.26160  Biso   1.000  H
  H30      1.0000 0.17840  0.22370  0.76160  Biso   1.000  H
  H31      1.0000 0.97370  0.57160  0.51160  Biso   1.000  H
  H32      1.0000 0.52630  0.42840  0.01160  Biso   1.000  H
  C65      1.0000 0.11110  0.37480  0.34989  Biso   1.000  C
  C66      1.0000 0.38890  0.62520  0.84989  Biso   1.000  C
  C67      1.0000 0.37520  0.36110  0.59989  Biso   1.000  C
  C68      1.0000 0.12480  0.63890  0.09989  Biso   1.000  C
  C69      1.0000 0.61110  0.87480  0.84989  Biso   1.000  C
  C70      1.0000 0.88890  0.12520  0.34989  Biso   1.000  C
  C71      1.0000 0.87520  0.86110  0.09989  Biso   1.000  C
  C72      1.0000 0.62480  0.13890  0.59989  Biso   1.000  C
  C73      1.0000 0.88890  0.62520  0.65011  Biso   1.000  C
  C74      1.0000 0.61110  0.37480  0.15011  Biso   1.000  C
  C75      1.0000 0.12480  0.13890  0.90011  Biso   1.000  C
  C76      1.0000 0.37520  0.86110  0.40011  Biso   1.000  C
  C77      1.0000 0.38890  0.12520  0.15011  Biso   1.000  C
  C78      1.0000 0.11110  0.87480  0.65011  Biso   1.000  C
  C79      1.0000 0.62480  0.63890  0.40011  Biso   1.000  C
  C80      1.0000 0.87520  0.36110  0.90011  Biso   1.000  C
  C81      1.0000 0.11030  0.64290  0.22774  Biso   1.000  C
  C82      1.0000 0.38970  0.35710  0.72774  Biso   1.000  C
  C83      1.0000 0.10710  0.36030  0.47774  Biso   1.000  C
  C84      1.0000 0.39290  0.63970  0.97774  Biso   1.000  C
  C85      1.0000 0.61030  0.14290  0.72774  Biso   1.000  C
  C86      1.0000 0.88970  0.85710  0.22774  Biso   1.000  C
  C87      1.0000 0.60710  0.86030  0.97774  Biso   1.000  C
  C88      1.0000 0.89290  0.13970  0.47774  Biso   1.000  C
  C89      1.0000 0.88970  0.35710  0.77226  Biso   1.000  C
  C90      1.0000 0.61030  0.64290  0.27226  Biso   1.000  C
  C91      1.0000 0.39290  0.13970  0.02226  Biso   1.000  C
  C92      1.0000 0.10710  0.86030  0.52226  Biso   1.000  C
  C93      1.0000 0.38970  0.85710  0.27226  Biso   1.000  C
  C94      1.0000 0.11030  0.14290  0.77226  Biso   1.000  C
  C95      1.0000 0.89290  0.63970  0.52226  Biso   1.000  C
  C96      1.0000 0.60710  0.36030  0.02226  Biso   1.000  C
  N33      1.0000 0.24360  0.60100  0.33451  Biso   1.000  N
  N34      1.0000 0.25640  0.39900  0.83451  Biso   1.000  N
  N35      1.0000 0.14900  0.49360  0.58451  Biso   1.000  N
  N36      1.0000 0.35100  0.50640  0.08451  Biso   1.000  N
  N37      1.0000 0.74360  0.10100  0.83451  Biso   1.000  N
  N38      1.0000 0.75640  0.89900  0.33451  Biso   1.000  N
  N39      1.0000 0.64900  0.99360  0.08451  Biso   1.000  N
  N40      1.0000 0.85100  0.00640  0.58451  Biso   1.000  N
  N41      1.0000 0.75640  0.39900  0.66549  Biso   1.000  N
  N42      1.0000 0.74360  0.60100  0.16549  Biso   1.000  N
  N43      1.0000 0.35100  0.00640  0.91549  Biso   1.000  N
  N44      1.0000 0.14900  0.99360  0.41549  Biso   1.000  N
  N45      1.0000 0.25640  0.89900  0.16549  Biso   1.000  N
  N46      1.0000 0.24360  0.10100  0.66549  Biso   1.000  N
  N47      1.0000 0.85100  0.50640  0.41549  Biso   1.000  N
  N48      1.0000 0.64900  0.49360  0.91549  Biso   1.000  N
  C97      1.0000 0.23860  0.51130  0.29231  Biso   1.000  C
  C98      1.0000 0.26140  0.48870  0.79231  Biso   1.000  C
  C99      1.0000 0.23870  0.48860  0.54231  Biso   1.000  C
  C100     1.0000 0.26130  0.51140  0.04231  Biso   1.000  C
  C101     1.0000 0.73860  0.01130  0.79231  Biso   1.000  C
  C102     1.0000 0.76140  0.98870  0.29231  Biso   1.000  C
  C103     1.0000 0.73870  0.98860  0.04231  Biso   1.000  C
  C104     1.0000 0.76130  0.01140  0.54231  Biso   1.000  C
  C105     1.0000 0.76140  0.48870  0.70769  Biso   1.000  C
  C106     1.0000 0.73860  0.51130  0.20769  Biso   1.000  C
  C107     1.0000 0.26130  0.01140  0.95769  Biso   1.000  C
  C108     1.0000 0.23870  0.98860  0.45769  Biso   1.000  C
  C109     1.0000 0.26140  0.98870  0.20769  Biso   1.000  C
  C110     1.0000 0.23860  0.01130  0.70769  Biso   1.000  C
  C111     1.0000 0.76130  0.51140  0.45769  Biso   1.000  C
  C112     1.0000 0.73870  0.48860  0.95769  Biso   1.000  C
  H33      1.0000 0.27560  0.48170  0.28170  Biso   1.000  H
  H34      1.0000 0.22440  0.51830  0.78170  Biso   1.000  H
  H35      1.0000 0.26830  0.52560  0.53170  Biso   1.000  H
  H36      1.0000 0.23170  0.47440  0.03170  Biso   1.000  H
  H37      1.0000 0.77560  0.98170  0.78170  Biso   1.000  H
  H38      1.0000 0.72440  0.01830  0.28170  Biso   1.000  H
  H39      1.0000 0.76830  0.02560  0.03170  Biso   1.000  H
  H40      1.0000 0.73170  0.97440  0.53170  Biso   1.000  H
  H41      1.0000 0.72440  0.51830  0.71830  Biso   1.000  H
  H42      1.0000 0.77560  0.48170  0.21830  Biso   1.000  H
  H43      1.0000 0.23170  0.97440  0.96830  Biso   1.000  H
  H44      1.0000 0.26830  0.02560  0.46830  Biso   1.000  H
  H45      1.0000 0.22440  0.01830  0.21830  Biso   1.000  H
  H46      1.0000 0.27560  0.98170  0.71830  Biso   1.000  H
  H47      1.0000 0.73170  0.47440  0.46830  Biso   1.000  H
  H48      1.0000 0.76830  0.52560  0.96830  Biso   1.000  H
  C113     1.0000 0.13390  0.49320  0.32492  Biso   1.000  C
  C114     1.0000 0.36610  0.50680  0.82492  Biso   1.000  C
  C115     1.0000 0.25680  0.38390  0.57492  Biso   1.000  C
  C116     1.0000 0.24320  0.61610  0.07492  Biso   1.000  C
  C117     1.0000 0.63390  0.99320  0.82492  Biso   1.000  C
  C118     1.0000 0.86610  0.00680  0.32492  Biso   1.000  C
  C119     1.0000 0.75680  0.88390  0.07492  Biso   1.000  C
  C120     1.0000 0.74320  0.11610  0.57492  Biso   1.000  C
  C121     1.0000 0.86610  0.50680  0.67508  Biso   1.000  C
  C122     1.0000 0.63390  0.49320  0.17508  Biso   1.000  C
  C123     1.0000 0.24320  0.11610  0.92508  Biso   1.000  C
  C124     1.0000 0.25680  0.88390  0.42508  Biso   1.000  C
  C125     1.0000 0.36610  0.00680  0.17508  Biso   1.000  C
  C126     1.0000 0.13390  0.99320  0.67508  Biso   1.000  C
  C127     1.0000 0.74320  0.61610  0.42508  Biso   1.000  C
  C128     1.0000 0.75680  0.38390  0.92508  Biso   1.000  C
  H49      1.0000 0.12450  0.54340  0.32430  Biso   1.000  H
  H50      1.0000 0.37550  0.45660  0.82430  Biso   1.000  H
  H51      1.0000 0.20660  0.37450  0.57430  Biso   1.000  H
  H52      1.0000 0.29340  0.62550  0.07430  Biso   1.000  H
  H53      1.0000 0.62450  0.04340  0.82430  Biso   1.000  H
  H54      1.0000 0.87550  0.95660  0.32430  Biso   1.000  H
  H55      1.0000 0.70660  0.87450  0.07430  Biso   1.000  H
  H56      1.0000 0.79340  0.12550  0.57430  Biso   1.000  H
  H57      1.0000 0.87550  0.45660  0.67570  Biso   1.000  H
  H58      1.0000 0.62450  0.54340  0.17570  Biso   1.000  H
  H59      1.0000 0.29340  0.12550  0.92570  Biso   1.000  H
  H60      1.0000 0.20660  0.87450  0.42570  Biso   1.000  H
  H61      1.0000 0.37550  0.95660  0.17570  Biso   1.000  H
  H62      1.0000 0.12450  0.04340  0.67570  Biso   1.000  H
  H63      1.0000 0.79340  0.62550  0.42570  Biso   1.000  H
  H64      1.0000 0.70660  0.37450  0.92570  Biso   1.000  H
  C129     1.0000 0.29700  0.63710  0.34556  Biso   1.000  C
  C130     1.0000 0.20300  0.36290  0.84556  Biso   1.000  C
  C131     1.0000 0.11290  0.54700  0.59556  Biso   1.000  C
  C132     1.0000 0.38710  0.45300  0.09556  Biso   1.000  C
  C133     1.0000 0.79700  0.13710  0.84556  Biso   1.000  C
  C134     1.0000 0.70300  0.86290  0.34556  Biso   1.000  C
  C135     1.0000 0.61290  0.04700  0.09556  Biso   1.000  C
  C136     1.0000 0.88710  0.95300  0.59556  Biso   1.000  C
  C137     1.0000 0.70300  0.36290  0.65444  Biso   1.000  C
  C138     1.0000 0.79700  0.63710  0.15444  Biso   1.000  C
  C139     1.0000 0.38710  0.95300  0.90444  Biso   1.000  C
  C140     1.0000 0.11290  0.04700  0.40444  Biso   1.000  C
  C141     1.0000 0.20300  0.86290  0.15444  Biso   1.000  C
  C142     1.0000 0.29700  0.13710  0.65444  Biso   1.000  C
  C143     1.0000 0.88710  0.45300  0.40444  Biso   1.000  C
  C144     1.0000 0.61290  0.54700  0.90444  Biso   1.000  C
  H65      1.0000 0.29000  0.67280  0.36040  Biso   1.000  H
  H66      1.0000 0.21000  0.32720  0.86040  Biso   1.000  H
  H67      1.0000 0.07720  0.54000  0.61040  Biso   1.000  H
  H68      1.0000 0.42280  0.46000  0.11040  Biso   1.000  H
  H69      1.0000 0.79000  0.17280  0.86040  Biso   1.000  H
  H70      1.0000 0.71000  0.82720  0.36040  Biso   1.000  H
  H71      1.0000 0.57720  0.04000  0.11040  Biso   1.000  H
  H72      1.0000 0.92280  0.96000  0.61040  Biso   1.000  H
  H73      1.0000 0.71000  0.32720  0.63960  Biso   1.000  H
  H74      1.0000 0.79000  0.67280  0.13960  Biso   1.000  H
  H75      1.0000 0.42280  0.96000  0.88960  Biso   1.000  H
  H76      1.0000 0.07720  0.04000  0.38960  Biso   1.000  H
  H77      1.0000 0.21000  0.82720  0.13960  Biso   1.000  H
  H78      1.0000 0.29000  0.17280  0.63960  Biso   1.000  H
  H79      1.0000 0.92280  0.46000  0.38960  Biso   1.000  H
  H80      1.0000 0.57720  0.54000  0.88960  Biso   1.000  H
  C145     1.0000 0.18260  0.34560  0.33635  Biso   1.000  C
  C146     1.0000 0.31740  0.65440  0.83635  Biso   1.000  C
  C147     1.0000 0.40440  0.43260  0.58635  Biso   1.000  C
  C148     1.0000 0.09560  0.56740  0.08635  Biso   1.000  C
  C149     1.0000 0.68260  0.84560  0.83635  Biso   1.000  C
  C150     1.0000 0.81740  0.15440  0.33635  Biso   1.000  C
  C151     1.0000 0.90440  0.93260  0.08635  Biso   1.000  C
  C152     1.0000 0.59560  0.06740  0.58635  Biso   1.000  C
  C153     1.0000 0.81740  0.65440  0.66365  Biso   1.000  C
  C154     1.0000 0.68260  0.34560  0.16365  Biso   1.000  C
  C155     1.0000 0.09560  0.06740  0.91365  Biso   1.000  C
  C156     1.0000 0.40440  0.93260  0.41365  Biso   1.000  C
  C157     1.0000 0.31740  0.15440  0.16365  Biso   1.000  C
  C158     1.0000 0.18260  0.84560  0.66365  Biso   1.000  C
  C159     1.0000 0.59560  0.56740  0.41365  Biso   1.000  C
  C160     1.0000 0.90440  0.43260  0.91365  Biso   1.000  C
  H81      1.0000 0.19970  0.29870  0.34100  Biso   1.000  H
  H82      1.0000 0.30030  0.70130  0.84100  Biso   1.000  H
  H83      1.0000 0.45130  0.44970  0.59100  Biso   1.000  H
  H84      1.0000 0.04870  0.55030  0.09100  Biso   1.000  H
  H85      1.0000 0.69970  0.79870  0.84100  Biso   1.000  H
  H86      1.0000 0.80030  0.20130  0.34100  Biso   1.000  H
  H87      1.0000 0.95130  0.94970  0.09100  Biso   1.000  H
  H88      1.0000 0.54870  0.05030  0.59100  Biso   1.000  H
  H89      1.0000 0.80030  0.70130  0.65900  Biso   1.000  H
  H90      1.0000 0.69970  0.29870  0.15900  Biso   1.000  H
  H91      1.0000 0.04870  0.05030  0.90900  Biso   1.000  H
  H92      1.0000 0.45130  0.94970  0.40900  Biso   1.000  H
  H93      1.0000 0.30030  0.20130  0.15900  Biso   1.000  H
  H94      1.0000 0.19970  0.79870  0.65900  Biso   1.000  H
  H95      1.0000 0.54870  0.55030  0.40900  Biso   1.000  H
  H96      1.0000 0.95130  0.44970  0.90900  Biso   1.000  H
  C161     1.0000 0.19320  0.46140  0.31043  Biso   1.000  C
  C162     1.0000 0.30680  0.53860  0.81043  Biso   1.000  C
  C163     1.0000 0.28860  0.44320  0.56043  Biso   1.000  C
  C164     1.0000 0.21140  0.55680  0.06043  Biso   1.000  C
  C165     1.0000 0.69320  0.96140  0.81043  Biso   1.000  C
  C166     1.0000 0.80680  0.03860  0.31043  Biso   1.000  C
  C167     1.0000 0.78860  0.94320  0.06043  Biso   1.000  C
  C168     1.0000 0.71140  0.05680  0.56043  Biso   1.000  C
  C169     1.0000 0.80680  0.53860  0.68957  Biso   1.000  C
  C170     1.0000 0.69320  0.46140  0.18957  Biso   1.000  C
  C171     1.0000 0.21140  0.05680  0.93957  Biso   1.000  C
  C172     1.0000 0.28860  0.94320  0.43957  Biso   1.000  C
  C173     1.0000 0.30680  0.03860  0.18957  Biso   1.000  C
  C174     1.0000 0.19320  0.96140  0.68957  Biso   1.000  C
  C175     1.0000 0.71140  0.55680  0.43957  Biso   1.000  C
  C176     1.0000 0.78860  0.44320  0.93957  Biso   1.000  C
  C177     1.0000 0.08490  0.43910  0.34207  Biso   1.000  C
  C178     1.0000 0.41510  0.56090  0.84207  Biso   1.000  C
  C179     1.0000 0.31090  0.33490  0.59207  Biso   1.000  C
  C180     1.0000 0.18910  0.66510  0.09207  Biso   1.000  C
  C181     1.0000 0.58490  0.93910  0.84207  Biso   1.000  C
  C182     1.0000 0.91510  0.06090  0.34207  Biso   1.000  C
  C183     1.0000 0.81090  0.83490  0.09207  Biso   1.000  C
  C184     1.0000 0.68910  0.16510  0.59207  Biso   1.000  C
  C185     1.0000 0.91510  0.56090  0.65793  Biso   1.000  C
  C186     1.0000 0.58490  0.43910  0.15793  Biso   1.000  C
  C187     1.0000 0.18910  0.16510  0.90793  Biso   1.000  C
  C188     1.0000 0.31090  0.83490  0.40793  Biso   1.000  C
  C189     1.0000 0.41510  0.06090  0.15793  Biso   1.000  C
  C190     1.0000 0.08490  0.93910  0.65793  Biso   1.000  C
  C191     1.0000 0.68910  0.66510  0.40793  Biso   1.000  C
  C192     1.0000 0.81090  0.33490  0.90793  Biso   1.000  C
  H97      1.0000 0.03680  0.45170  0.34690  Biso   1.000  H
  H98      1.0000 0.46320  0.54830  0.84690  Biso   1.000  H
  H99      1.0000 0.29830  0.28680  0.59690  Biso   1.000  H
  H100     1.0000 0.20170  0.71320  0.09690  Biso   1.000  H
  H101     1.0000 0.53680  0.95170  0.84690  Biso   1.000  H
  H102     1.0000 0.96320  0.04830  0.34690  Biso   1.000  H
  H103     1.0000 0.79830  0.78680  0.09690  Biso   1.000  H
  H104     1.0000 0.70170  0.21320  0.59690  Biso   1.000  H
  H105     1.0000 0.96320  0.54830  0.65310  Biso   1.000  H
  H106     1.0000 0.53680  0.45170  0.15310  Biso   1.000  H
  H107     1.0000 0.20170  0.21320  0.90310  Biso   1.000  H
  H108     1.0000 0.29830  0.78680  0.40310  Biso   1.000  H
  H109     1.0000 0.46320  0.04830  0.15310  Biso   1.000  H
  H110     1.0000 0.03680  0.95170  0.65310  Biso   1.000  H
  H111     1.0000 0.70170  0.71320  0.40310  Biso   1.000  H
  H112     1.0000 0.79830  0.28680  0.90310  Biso   1.000  H
  C193     1.0000 0.20400  0.63880  0.26578  Biso   1.000  C
  C194     1.0000 0.29600  0.36120  0.76578  Biso   1.000  C
  C195     1.0000 0.11120  0.45400  0.51578  Biso   1.000  C
  C196     1.0000 0.38880  0.54600  0.01578  Biso   1.000  C
  C197     1.0000 0.70400  0.13880  0.76578  Biso   1.000  C
  C198     1.0000 0.79600  0.86120  0.26578  Biso   1.000  C
  C199     1.0000 0.61120  0.95400  0.01578  Biso   1.000  C
  C200     1.0000 0.88880  0.04600  0.51578  Biso   1.000  C
  C201     1.0000 0.79600  0.36120  0.73422  Biso   1.000  C
  C202     1.0000 0.70400  0.63880  0.23422  Biso   1.000  C
  C203     1.0000 0.38880  0.04600  0.98422  Biso   1.000  C
  C204     1.0000 0.11120  0.95400  0.48422  Biso   1.000  C
  C205     1.0000 0.29600  0.86120  0.23422  Biso   1.000  C
  C206     1.0000 0.20400  0.13880  0.73422  Biso   1.000  C
  C207     1.0000 0.88880  0.54600  0.48422  Biso   1.000  C
  C208     1.0000 0.61120  0.45400  0.98422  Biso   1.000  C
  H113     1.0000 0.23340  0.66520  0.27930  Biso   1.000  H
  H114     1.0000 0.26660  0.33480  0.77930  Biso   1.000  H
  H115     1.0000 0.08480  0.48340  0.52930  Biso   1.000  H
  H116     1.0000 0.41520  0.51660  0.02930  Biso   1.000  H
  H117     1.0000 0.73340  0.16520  0.77930  Biso   1.000  H
  H118     1.0000 0.76660  0.83480  0.27930  Biso   1.000  H
  H119     1.0000 0.58480  0.98340  0.02930  Biso   1.000  H
  H120     1.0000 0.91520  0.01660  0.52930  Biso   1.000  H
  H121     1.0000 0.76660  0.33480  0.72070  Biso   1.000  H
  H122     1.0000 0.73340  0.66520  0.22070  Biso   1.000  H
  H123     1.0000 0.41520  0.01660  0.97070  Biso   1.000  H
  H124     1.0000 0.08480  0.98340  0.47070  Biso   1.000  H
  H125     1.0000 0.26660  0.83480  0.22070  Biso   1.000  H
  H126     1.0000 0.23340  0.16520  0.72070  Biso   1.000  H
  H127     1.0000 0.91520  0.51660  0.47070  Biso   1.000  H
  H128     1.0000 0.58480  0.48340  0.97070  Biso   1.000  H
  C209     1.0000 0.21970  0.38950  0.31761  Biso   1.000  C
  C210     1.0000 0.28030  0.61050  0.81761  Biso   1.000  C
  C211     1.0000 0.36050  0.46970  0.56761  Biso   1.000  C
  C212     1.0000 0.13950  0.53030  0.06761  Biso   1.000  C
  C213     1.0000 0.71970  0.88950  0.81761  Biso   1.000  C
  C214     1.0000 0.78030  0.11050  0.31761  Biso   1.000  C
  C215     1.0000 0.86050  0.96970  0.06761  Biso   1.000  C
  C216     1.0000 0.63950  0.03030  0.56761  Biso   1.000  C
  C217     1.0000 0.78030  0.61050  0.68239  Biso   1.000  C
  C218     1.0000 0.71970  0.38950  0.18239  Biso   1.000  C
  C219     1.0000 0.13950  0.03030  0.93239  Biso   1.000  C
  C220     1.0000 0.36050  0.96970  0.43239  Biso   1.000  C
  C221     1.0000 0.28030  0.11050  0.18239  Biso   1.000  C
  C222     1.0000 0.21970  0.88950  0.68239  Biso   1.000  C
  C223     1.0000 0.63950  0.53030  0.43239  Biso   1.000  C
  C224     1.0000 0.86050  0.46970  0.93239  Biso   1.000  C
  H129     1.0000 0.26350  0.37310  0.30900  Biso   1.000  H
  H130     1.0000 0.23650  0.62690  0.80900  Biso   1.000  H
  H131     1.0000 0.37690  0.51350  0.55900  Biso   1.000  H
  H132     1.0000 0.12310  0.48650  0.05900  Biso   1.000  H
  H133     1.0000 0.76350  0.87310  0.80900  Biso   1.000  H
  H134     1.0000 0.73650  0.12690  0.30900  Biso   1.000  H
  H135     1.0000 0.87690  0.01350  0.05900  Biso   1.000  H
  H136     1.0000 0.62310  0.98650  0.55900  Biso   1.000  H
  H137     1.0000 0.73650  0.62690  0.69100  Biso   1.000  H
  H138     1.0000 0.76350  0.37310  0.19100  Biso   1.000  H
  H139     1.0000 0.12310  0.98650  0.94100  Biso   1.000  H
  H140     1.0000 0.37690  0.01350  0.44100  Biso   1.000  H
  H141     1.0000 0.23650  0.12690  0.19100  Biso   1.000  H
  H142     1.0000 0.26350  0.87310  0.69100  Biso   1.000  H
  H143     1.0000 0.62310  0.48650  0.44100  Biso   1.000  H
  H144     1.0000 0.87690  0.51350  0.94100  Biso   1.000  H
  C225     1.0000 0.19830  0.55580  0.26868  Biso   1.000  C
  C226     1.0000 0.30170  0.44420  0.76868  Biso   1.000  C
  C227     1.0000 0.19420  0.44830  0.51868  Biso   1.000  C
  C228     1.0000 0.30580  0.55170  0.01868  Biso   1.000  C
  C229     1.0000 0.69830  0.05580  0.76868  Biso   1.000  C
  C230     1.0000 0.80170  0.94420  0.26868  Biso   1.000  C
  C231     1.0000 0.69420  0.94830  0.01868  Biso   1.000  C
  C232     1.0000 0.80580  0.05170  0.51868  Biso   1.000  C
  C233     1.0000 0.80170  0.44420  0.73132  Biso   1.000  C
  C234     1.0000 0.69830  0.55580  0.23132  Biso   1.000  C
  C235     1.0000 0.30580  0.05170  0.98132  Biso   1.000  C
  C236     1.0000 0.19420  0.94830  0.48132  Biso   1.000  C
  C237     1.0000 0.30170  0.94420  0.23132  Biso   1.000  C
  C238     1.0000 0.19830  0.05580  0.73132  Biso   1.000  C
  C239     1.0000 0.80580  0.55170  0.48132  Biso   1.000  C
  C240     1.0000 0.69420  0.44830  0.98132  Biso   1.000  C
  C241     1.0000 0.09390  0.56930  0.23446  Biso   1.000  C
  C242     1.0000 0.40610  0.43070  0.73446  Biso   1.000  C
  C243     1.0000 0.18070  0.34390  0.48446  Biso   1.000  C
  C244     1.0000 0.31930  0.65610  0.98446  Biso   1.000  C
  C245     1.0000 0.59390  0.06930  0.73446  Biso   1.000  C
  C246     1.0000 0.90610  0.93070  0.23446  Biso   1.000  C
  C247     1.0000 0.68070  0.84390  0.98446  Biso   1.000  C
  C248     1.0000 0.81930  0.15610  0.48446  Biso   1.000  C
  C249     1.0000 0.90610  0.43070  0.76554  Biso   1.000  C
  C250     1.0000 0.59390  0.56930  0.26554  Biso   1.000  C
  C251     1.0000 0.31930  0.15610  0.01554  Biso   1.000  C
  C252     1.0000 0.18070  0.84390  0.51554  Biso   1.000  C
  C253     1.0000 0.40610  0.93070  0.26554  Biso   1.000  C
  C254     1.0000 0.09390  0.06930  0.76554  Biso   1.000  C
  C255     1.0000 0.81930  0.65610  0.51554  Biso   1.000  C
  C256     1.0000 0.68070  0.34390  0.01554  Biso   1.000  C
  H145     1.0000 0.05380  0.54730  0.22510  Biso   1.000  H
  H146     1.0000 0.44620  0.45270  0.72510  Biso   1.000  H
  H147     1.0000 0.20270  0.30380  0.47510  Biso   1.000  H
  H148     1.0000 0.29730  0.69620  0.97510  Biso   1.000  H
  H149     1.0000 0.55380  0.04730  0.72510  Biso   1.000  H
  H150     1.0000 0.94620  0.95270  0.22510  Biso   1.000  H
  H151     1.0000 0.70270  0.80380  0.97510  Biso   1.000  H
  H152     1.0000 0.79730  0.19620  0.47510  Biso   1.000  H
  H153     1.0000 0.94620  0.45270  0.77490  Biso   1.000  H
  H154     1.0000 0.55380  0.54730  0.27490  Biso   1.000  H
  H155     1.0000 0.29730  0.19620  0.02490  Biso   1.000  H
  H156     1.0000 0.20270  0.80380  0.52490  Biso   1.000  H
  H157     1.0000 0.44620  0.95270  0.27490  Biso   1.000  H
  H158     1.0000 0.05380  0.04730  0.77490  Biso   1.000  H
  H159     1.0000 0.79730  0.69620  0.52490  Biso   1.000  H
  H160     1.0000 0.70270  0.30380  0.02490  Biso   1.000  H
  C257     1.0000 0.13510  0.52900  0.25430  Biso   1.000  C
  C258     1.0000 0.36490  0.47100  0.75430  Biso   1.000  C
  C259     1.0000 0.22100  0.38510  0.50430  Biso   1.000  C
  C260     1.0000 0.27900  0.61490  0.00430  Biso   1.000  C
  C261     1.0000 0.63510  0.02900  0.75430  Biso   1.000  C
  C262     1.0000 0.86490  0.97100  0.25430  Biso   1.000  C
  C263     1.0000 0.72100  0.88510  0.00430  Biso   1.000  C
  C264     1.0000 0.77900  0.11490  0.50430  Biso   1.000  C
  C265     1.0000 0.86490  0.47100  0.74570  Biso   1.000  C
  C266     1.0000 0.63510  0.52900  0.24570  Biso   1.000  C
  C267     1.0000 0.27900  0.11490  0.99570  Biso   1.000  C
  C268     1.0000 0.22100  0.88510  0.49570  Biso   1.000  C
  C269     1.0000 0.36490  0.97100  0.24570  Biso   1.000  C
  C270     1.0000 0.13510  0.02900  0.74570  Biso   1.000  C
  C271     1.0000 0.77900  0.61490  0.49570  Biso   1.000  C
  C272     1.0000 0.72100  0.38510  0.99570  Biso   1.000  C
  H161     1.0000 0.12040  0.48110  0.25860  Biso   1.000  H
  H162     1.0000 0.37960  0.51890  0.75860  Biso   1.000  H
  H163     1.0000 0.26890  0.37040  0.50860  Biso   1.000  H
  H164     1.0000 0.23110  0.62960  0.00860  Biso   1.000  H
  H165     1.0000 0.62040  0.98110  0.75860  Biso   1.000  H
  H166     1.0000 0.87960  0.01890  0.25860  Biso   1.000  H
  H167     1.0000 0.76890  0.87040  0.00860  Biso   1.000  H
  H168     1.0000 0.73110  0.12960  0.50860  Biso   1.000  H
  H169     1.0000 0.87960  0.51890  0.74140  Biso   1.000  H
  H170     1.0000 0.62040  0.48110  0.24140  Biso   1.000  H
  H171     1.0000 0.23110  0.12960  0.99140  Biso   1.000  H
  H172     1.0000 0.26890  0.87040  0.49140  Biso   1.000  H
  H173     1.0000 0.37960  0.01890  0.24140  Biso   1.000  H
  H174     1.0000 0.12040  0.98110  0.74140  Biso   1.000  H
  H175     1.0000 0.73110  0.62960  0.49140  Biso   1.000  H
  H176     1.0000 0.76890  0.37040  0.99140  Biso   1.000  H
