data_image0
_cell_length_a       24.149
_cell_length_b       17.969
_cell_length_c       10.4091
_cell_angle_alpha    90
_cell_angle_beta     90.56
_cell_angle_gamma    90

_symmetry_space_group_name_H-M    "P 1"
_symmetry_int_tables_number       1

loop_
  _symmetry_equiv_pos_as_xyz
  'x, y, z'

loop_
  _atom_site_label
  _atom_site_occupancy
  _atom_site_fract_x
  _atom_site_fract_y
  _atom_site_fract_z
  _atom_site_thermal_displace_type
  _atom_site_B_iso_or_equiv
  _atom_site_type_symbol
  Cu1      1.0000 0.71804  0.71015  0.42651  Biso   1.000  Cu
  Cu2      1.0000 0.28196  0.71015  0.07349  Biso   1.000  Cu
  Cu3      1.0000 0.21804  0.21015  0.42651  Biso   1.000  Cu
  Cu4      1.0000 0.78196  0.21015  0.07349  Biso   1.000  Cu
  Cu5      1.0000 0.28196  0.28985  0.57349  Biso   1.000  Cu
  Cu6      1.0000 0.71804  0.28985  0.92651  Biso   1.000  Cu
  Cu7      1.0000 0.78196  0.78985  0.57349  Biso   1.000  Cu
  Cu8      1.0000 0.21804  0.78985  0.92651  Biso   1.000  Cu
  O1       1.0000 0.73680  0.62843  0.54432  Biso   1.000  O
  O2       1.0000 0.26320  0.62843  0.95568  Biso   1.000  O
  O3       1.0000 0.23680  0.12843  0.54432  Biso   1.000  O
  O4       1.0000 0.76320  0.12843  0.95568  Biso   1.000  O
  O5       1.0000 0.26320  0.37157  0.45568  Biso   1.000  O
  O6       1.0000 0.73680  0.37157  0.04432  Biso   1.000  O
  O7       1.0000 0.76320  0.87157  0.45568  Biso   1.000  O
  O8       1.0000 0.23680  0.87157  0.04432  Biso   1.000  O
  O9       1.0000 0.79202  0.69645  0.66970  Biso   1.000  O
  O10      1.0000 0.20798  0.69645  0.83030  Biso   1.000  O
  O11      1.0000 0.29202  0.19645  0.66970  Biso   1.000  O
  O12      1.0000 0.70798  0.19645  0.83030  Biso   1.000  O
  O13      1.0000 0.20798  0.30355  0.33030  Biso   1.000  O
  O14      1.0000 0.79202  0.30355  0.16970  Biso   1.000  O
  O15      1.0000 0.70798  0.80355  0.33030  Biso   1.000  O
  O16      1.0000 0.29202  0.80355  0.16970  Biso   1.000  O
  O17      1.0000 0.78579  0.69332  0.32860  Biso   1.000  O
  O18      1.0000 0.21421  0.69332  0.17140  Biso   1.000  O
  O19      1.0000 0.28579  0.19332  0.32860  Biso   1.000  O
  O20      1.0000 0.71421  0.19332  0.17140  Biso   1.000  O
  O21      1.0000 0.21421  0.30668  0.67140  Biso   1.000  O
  O22      1.0000 0.78579  0.30668  0.82860  Biso   1.000  O
  O23      1.0000 0.71421  0.80668  0.67140  Biso   1.000  O
  O24      1.0000 0.28579  0.80668  0.82860  Biso   1.000  O
  O25      1.0000 0.84081  0.76169  0.45360  Biso   1.000  O
  O26      1.0000 0.15919  0.76169  0.04640  Biso   1.000  O
  O27      1.0000 0.34081  0.26169  0.45360  Biso   1.000  O
  O28      1.0000 0.65919  0.26169  0.04640  Biso   1.000  O
  O29      1.0000 0.15919  0.23831  0.54640  Biso   1.000  O
  O30      1.0000 0.84081  0.23831  0.95360  Biso   1.000  O
  O31      1.0000 0.65919  0.73831  0.54640  Biso   1.000  O
  O32      1.0000 0.34081  0.73831  0.95360  Biso   1.000  O
  N1       1.0000 0.66488  0.64562  0.30170  Biso   1.000  N
  N2       1.0000 0.33512  0.64562  0.19830  Biso   1.000  N
  N3       1.0000 0.16488  0.14562  0.30170  Biso   1.000  N
  N4       1.0000 0.83512  0.14562  0.19830  Biso   1.000  N
  N5       1.0000 0.33512  0.35438  0.69830  Biso   1.000  N
  N6       1.0000 0.66488  0.35438  0.80170  Biso   1.000  N
  N7       1.0000 0.83512  0.85438  0.69830  Biso   1.000  N
  N8       1.0000 0.16488  0.85438  0.80170  Biso   1.000  N
  C1       1.0000 0.76716  0.63726  0.64190  Biso   1.000  C
  C2       1.0000 0.23284  0.63726  0.85810  Biso   1.000  C
  C3       1.0000 0.26716  0.13726  0.64190  Biso   1.000  C
  C4       1.0000 0.73284  0.13726  0.85810  Biso   1.000  C
  C5       1.0000 0.23284  0.36274  0.35810  Biso   1.000  C
  C6       1.0000 0.76716  0.36274  0.14190  Biso   1.000  C
  C7       1.0000 0.73284  0.86274  0.35810  Biso   1.000  C
  C8       1.0000 0.26716  0.86274  0.14190  Biso   1.000  C
  C9       1.0000 0.77092  0.57286  0.73870  Biso   1.000  C
  C10      1.0000 0.22908  0.57286  0.76130  Biso   1.000  C
  C11      1.0000 0.27092  0.07286  0.73870  Biso   1.000  C
  C12      1.0000 0.72908  0.07286  0.76130  Biso   1.000  C
  C13      1.0000 0.22908  0.42714  0.26130  Biso   1.000  C
  C14      1.0000 0.77092  0.42714  0.23870  Biso   1.000  C
  C15      1.0000 0.72908  0.92714  0.26130  Biso   1.000  C
  C16      1.0000 0.27092  0.92714  0.23870  Biso   1.000  C
  C17      1.0000 0.82640  0.57330  0.80820  Biso   1.000  C
  C18      1.0000 0.17360  0.57330  0.69180  Biso   1.000  C
  C19      1.0000 0.32640  0.07330  0.80820  Biso   1.000  C
  C20      1.0000 0.67360  0.07330  0.69180  Biso   1.000  C
  C21      1.0000 0.17360  0.42670  0.19180  Biso   1.000  C
  C22      1.0000 0.82640  0.42670  0.30820  Biso   1.000  C
  C23      1.0000 0.67360  0.92670  0.19180  Biso   1.000  C
  C24      1.0000 0.32640  0.92670  0.30820  Biso   1.000  C
  H1       1.0000 0.83230  0.62210  0.84840  Biso   1.000  H
  H2       1.0000 0.16770  0.62210  0.65160  Biso   1.000  H
  H3       1.0000 0.33230  0.12210  0.84840  Biso   1.000  H
  H4       1.0000 0.66770  0.12210  0.65160  Biso   1.000  H
  H5       1.0000 0.16770  0.37790  0.15160  Biso   1.000  H
  H6       1.0000 0.83230  0.37790  0.34840  Biso   1.000  H
  H7       1.0000 0.66770  0.87790  0.15160  Biso   1.000  H
  H8       1.0000 0.33230  0.87790  0.34840  Biso   1.000  H
  H9       1.0000 0.82670  0.53460  0.87460  Biso   1.000  H
  H10      1.0000 0.17330  0.53460  0.62540  Biso   1.000  H
  H11      1.0000 0.32670  0.03460  0.87460  Biso   1.000  H
  H12      1.0000 0.67330  0.03460  0.62540  Biso   1.000  H
  H13      1.0000 0.17330  0.46540  0.12540  Biso   1.000  H
  H14      1.0000 0.82670  0.46540  0.37460  Biso   1.000  H
  H15      1.0000 0.67330  0.96540  0.12540  Biso   1.000  H
  H16      1.0000 0.32670  0.96540  0.37460  Biso   1.000  H
  H17      1.0000 0.85600  0.56360  0.74670  Biso   1.000  H
  H18      1.0000 0.14400  0.56360  0.75330  Biso   1.000  H
  H19      1.0000 0.35600  0.06360  0.74670  Biso   1.000  H
  H20      1.0000 0.64400  0.06360  0.75330  Biso   1.000  H
  H21      1.0000 0.14400  0.43640  0.25330  Biso   1.000  H
  H22      1.0000 0.85600  0.43640  0.24670  Biso   1.000  H
  H23      1.0000 0.64400  0.93640  0.25330  Biso   1.000  H
  H24      1.0000 0.35600  0.93640  0.24670  Biso   1.000  H
  C25      1.0000 0.75998  0.49820  0.67490  Biso   1.000  C
  C26      1.0000 0.24002  0.49820  0.82510  Biso   1.000  C
  C27      1.0000 0.25998  0.99820  0.67490  Biso   1.000  C
  C28      1.0000 0.74002  0.99820  0.82510  Biso   1.000  C
  C29      1.0000 0.24002  0.50180  0.32510  Biso   1.000  C
  C30      1.0000 0.75998  0.50180  0.17490  Biso   1.000  C
  C31      1.0000 0.74002  0.00180  0.32510  Biso   1.000  C
  C32      1.0000 0.25998  0.00180  0.17490  Biso   1.000  C
  H25      1.0000 0.72390  0.49950  0.63080  Biso   1.000  H
  H26      1.0000 0.27610  0.49950  0.86920  Biso   1.000  H
  H27      1.0000 0.22390  0.99950  0.63080  Biso   1.000  H
  H28      1.0000 0.77610  0.99950  0.86920  Biso   1.000  H
  H29      1.0000 0.27610  0.50050  0.36920  Biso   1.000  H
  H30      1.0000 0.72390  0.50050  0.13080  Biso   1.000  H
  H31      1.0000 0.77610  0.00050  0.36920  Biso   1.000  H
  H32      1.0000 0.22390  0.00050  0.13080  Biso   1.000  H
  H33      1.0000 0.78910  0.48790  0.61240  Biso   1.000  H
  H34      1.0000 0.21090  0.48790  0.88760  Biso   1.000  H
  H35      1.0000 0.28910  0.98790  0.61240  Biso   1.000  H
  H36      1.0000 0.71090  0.98790  0.88760  Biso   1.000  H
  H37      1.0000 0.21090  0.51210  0.38760  Biso   1.000  H
  H38      1.0000 0.78910  0.51210  0.11240  Biso   1.000  H
  H39      1.0000 0.71090  0.01210  0.38760  Biso   1.000  H
  H40      1.0000 0.28910  0.01210  0.11240  Biso   1.000  H
  H41      1.0000 0.75980  0.45900  0.74030  Biso   1.000  H
  H42      1.0000 0.24020  0.45900  0.75970  Biso   1.000  H
  H43      1.0000 0.25980  0.95900  0.74030  Biso   1.000  H
  H44      1.0000 0.74020  0.95900  0.75970  Biso   1.000  H
  H45      1.0000 0.24020  0.54100  0.25970  Biso   1.000  H
  H46      1.0000 0.75980  0.54100  0.24030  Biso   1.000  H
  H47      1.0000 0.74020  0.04100  0.25970  Biso   1.000  H
  H48      1.0000 0.25980  0.04100  0.24030  Biso   1.000  H
  C33      1.0000 0.72484  0.58770  0.83680  Biso   1.000  C
  C34      1.0000 0.27516  0.58770  0.66320  Biso   1.000  C
  C35      1.0000 0.22484  0.08770  0.83680  Biso   1.000  C
  C36      1.0000 0.77516  0.08770  0.66320  Biso   1.000  C
  C37      1.0000 0.27516  0.41230  0.16320  Biso   1.000  C
  C38      1.0000 0.72484  0.41230  0.33680  Biso   1.000  C
  C39      1.0000 0.77516  0.91230  0.16320  Biso   1.000  C
  C40      1.0000 0.22484  0.91230  0.33680  Biso   1.000  C
  H49      1.0000 0.68880  0.58750  0.79280  Biso   1.000  H
  H50      1.0000 0.31120  0.58750  0.70720  Biso   1.000  H
  H51      1.0000 0.18880  0.08750  0.79280  Biso   1.000  H
  H52      1.0000 0.81120  0.08750  0.70720  Biso   1.000  H
  H53      1.0000 0.31120  0.41250  0.20720  Biso   1.000  H
  H54      1.0000 0.68880  0.41250  0.29280  Biso   1.000  H
  H55      1.0000 0.81120  0.91250  0.20720  Biso   1.000  H
  H56      1.0000 0.18880  0.91250  0.29280  Biso   1.000  H
  H57      1.0000 0.72550  0.54880  0.90270  Biso   1.000  H
  H58      1.0000 0.27450  0.54880  0.59730  Biso   1.000  H
  H59      1.0000 0.22550  0.04880  0.90270  Biso   1.000  H
  H60      1.0000 0.77450  0.04880  0.59730  Biso   1.000  H
  H61      1.0000 0.27450  0.45120  0.09730  Biso   1.000  H
  H62      1.0000 0.72550  0.45120  0.40270  Biso   1.000  H
  H63      1.0000 0.77450  0.95120  0.09730  Biso   1.000  H
  H64      1.0000 0.22550  0.95120  0.40270  Biso   1.000  H
  H65      1.0000 0.73090  0.63630  0.87730  Biso   1.000  H
  H66      1.0000 0.26910  0.63630  0.62270  Biso   1.000  H
  H67      1.0000 0.23090  0.13630  0.87730  Biso   1.000  H
  H68      1.0000 0.76910  0.13630  0.62270  Biso   1.000  H
  H69      1.0000 0.26910  0.36370  0.12270  Biso   1.000  H
  H70      1.0000 0.73090  0.36370  0.37730  Biso   1.000  H
  H71      1.0000 0.76910  0.86370  0.12270  Biso   1.000  H
  H72      1.0000 0.23090  0.86370  0.37730  Biso   1.000  H
  C41      1.0000 0.83154  0.72222  0.35640  Biso   1.000  C
  C42      1.0000 0.16846  0.72222  0.14360  Biso   1.000  C
  C43      1.0000 0.33154  0.22222  0.35640  Biso   1.000  C
  C44      1.0000 0.66846  0.22222  0.14360  Biso   1.000  C
  C45      1.0000 0.16846  0.27778  0.64360  Biso   1.000  C
  C46      1.0000 0.83154  0.27778  0.85640  Biso   1.000  C
  C47      1.0000 0.66846  0.77778  0.64360  Biso   1.000  C
  C48      1.0000 0.33154  0.77778  0.85640  Biso   1.000  C
  C49      1.0000 0.87979  0.70807  0.26520  Biso   1.000  C
  C50      1.0000 0.12021  0.70807  0.23480  Biso   1.000  C
  C51      1.0000 0.37979  0.20807  0.26520  Biso   1.000  C
  C52      1.0000 0.62021  0.20807  0.23480  Biso   1.000  C
  C53      1.0000 0.12021  0.29193  0.73480  Biso   1.000  C
  C54      1.0000 0.87979  0.29193  0.76520  Biso   1.000  C
  C55      1.0000 0.62021  0.79193  0.73480  Biso   1.000  C
  C56      1.0000 0.37979  0.79193  0.76520  Biso   1.000  C
  C57      1.0000 0.91808  0.77570  0.26240  Biso   1.000  C
  C58      1.0000 0.08192  0.77570  0.23760  Biso   1.000  C
  C59      1.0000 0.41808  0.27570  0.26240  Biso   1.000  C
  C60      1.0000 0.58192  0.27570  0.23760  Biso   1.000  C
  C61      1.0000 0.08192  0.22430  0.73760  Biso   1.000  C
  C62      1.0000 0.91808  0.22430  0.76240  Biso   1.000  C
  C63      1.0000 0.58192  0.72430  0.73760  Biso   1.000  C
  C64      1.0000 0.41808  0.72430  0.76240  Biso   1.000  C
  H73      1.0000 0.89760  0.81890  0.22940  Biso   1.000  H
  H74      1.0000 0.10240  0.81890  0.27060  Biso   1.000  H
  H75      1.0000 0.39760  0.31890  0.22940  Biso   1.000  H
  H76      1.0000 0.60240  0.31890  0.27060  Biso   1.000  H
  H77      1.0000 0.10240  0.18110  0.77060  Biso   1.000  H
  H78      1.0000 0.89760  0.18110  0.72940  Biso   1.000  H
  H79      1.0000 0.60240  0.68110  0.77060  Biso   1.000  H
  H80      1.0000 0.39760  0.68110  0.72940  Biso   1.000  H
  H81      1.0000 0.93160  0.78630  0.34950  Biso   1.000  H
  H82      1.0000 0.06840  0.78630  0.15050  Biso   1.000  H
  H83      1.0000 0.43160  0.28630  0.34950  Biso   1.000  H
  H84      1.0000 0.56840  0.28630  0.15050  Biso   1.000  H
  H85      1.0000 0.06840  0.21370  0.65050  Biso   1.000  H
  H86      1.0000 0.93160  0.21370  0.84950  Biso   1.000  H
  H87      1.0000 0.56840  0.71370  0.65050  Biso   1.000  H
  H88      1.0000 0.43160  0.71370  0.84950  Biso   1.000  H
  H89      1.0000 0.94950  0.76530  0.20640  Biso   1.000  H
  H90      1.0000 0.05050  0.76530  0.29360  Biso   1.000  H
  H91      1.0000 0.44950  0.26530  0.20640  Biso   1.000  H
  H92      1.0000 0.55050  0.26530  0.29360  Biso   1.000  H
  H93      1.0000 0.05050  0.23470  0.79360  Biso   1.000  H
  H94      1.0000 0.94950  0.23470  0.70640  Biso   1.000  H
  H95      1.0000 0.55050  0.73470  0.79360  Biso   1.000  H
  H96      1.0000 0.44950  0.73470  0.70640  Biso   1.000  H
  C65      1.0000 0.91062  0.64060  0.31600  Biso   1.000  C
  C66      1.0000 0.08938  0.64060  0.18400  Biso   1.000  C
  C67      1.0000 0.41062  0.14060  0.31600  Biso   1.000  C
  C68      1.0000 0.58938  0.14060  0.18400  Biso   1.000  C
  C69      1.0000 0.08938  0.35940  0.68400  Biso   1.000  C
  C70      1.0000 0.91062  0.35940  0.81600  Biso   1.000  C
  C71      1.0000 0.58938  0.85940  0.68400  Biso   1.000  C
  C72      1.0000 0.41062  0.85940  0.81600  Biso   1.000  C
  H97      1.0000 0.88560  0.59770  0.31730  Biso   1.000  H
  H98      1.0000 0.11440  0.59770  0.18270  Biso   1.000  H
  H99      1.0000 0.38560  0.09770  0.31730  Biso   1.000  H
  H100     1.0000 0.61440  0.09770  0.18270  Biso   1.000  H
  H101     1.0000 0.11440  0.40230  0.68270  Biso   1.000  H
  H102     1.0000 0.88560  0.40230  0.81730  Biso   1.000  H
  H103     1.0000 0.61440  0.90230  0.68270  Biso   1.000  H
  H104     1.0000 0.38560  0.90230  0.81730  Biso   1.000  H
  H105     1.0000 0.94210  0.62980  0.26020  Biso   1.000  H
  H106     1.0000 0.05790  0.62980  0.23980  Biso   1.000  H
  H107     1.0000 0.44210  0.12980  0.26020  Biso   1.000  H
  H108     1.0000 0.55790  0.12980  0.23980  Biso   1.000  H
  H109     1.0000 0.05790  0.37020  0.73980  Biso   1.000  H
  H110     1.0000 0.94210  0.37020  0.76020  Biso   1.000  H
  H111     1.0000 0.55790  0.87020  0.73980  Biso   1.000  H
  H112     1.0000 0.44210  0.87020  0.76020  Biso   1.000  H
  H113     1.0000 0.92420  0.65070  0.40330  Biso   1.000  H
  H114     1.0000 0.07580  0.65070  0.09670  Biso   1.000  H
  H115     1.0000 0.42420  0.15070  0.40330  Biso   1.000  H
  H116     1.0000 0.57580  0.15070  0.09670  Biso   1.000  H
  H117     1.0000 0.07580  0.34930  0.59670  Biso   1.000  H
  H118     1.0000 0.92420  0.34930  0.90330  Biso   1.000  H
  H119     1.0000 0.57580  0.84930  0.59670  Biso   1.000  H
  H120     1.0000 0.42420  0.84930  0.90330  Biso   1.000  H
  C73      1.0000 0.85697  0.69340  0.12920  Biso   1.000  C
  C74      1.0000 0.14303  0.69340  0.37080  Biso   1.000  C
  C75      1.0000 0.35697  0.19340  0.12920  Biso   1.000  C
  C76      1.0000 0.64303  0.19340  0.37080  Biso   1.000  C
  C77      1.0000 0.14303  0.30660  0.87080  Biso   1.000  C
  C78      1.0000 0.85697  0.30660  0.62920  Biso   1.000  C
  C79      1.0000 0.64303  0.80660  0.87080  Biso   1.000  C
  C80      1.0000 0.35697  0.80660  0.62920  Biso   1.000  C
  H121     1.0000 0.83720  0.73760  0.09820  Biso   1.000  H
  H122     1.0000 0.16280  0.73760  0.40180  Biso   1.000  H
  H123     1.0000 0.33720  0.23760  0.09820  Biso   1.000  H
  H124     1.0000 0.66280  0.23760  0.40180  Biso   1.000  H
  H125     1.0000 0.16280  0.26240  0.90180  Biso   1.000  H
  H126     1.0000 0.83720  0.26240  0.59820  Biso   1.000  H
  H127     1.0000 0.66280  0.76240  0.90180  Biso   1.000  H
  H128     1.0000 0.33720  0.76240  0.59820  Biso   1.000  H
  H129     1.0000 0.88770  0.68220  0.07150  Biso   1.000  H
  H130     1.0000 0.11230  0.68220  0.42850  Biso   1.000  H
  H131     1.0000 0.38770  0.18220  0.07150  Biso   1.000  H
  H132     1.0000 0.61230  0.18220  0.42850  Biso   1.000  H
  H133     1.0000 0.11230  0.31780  0.92850  Biso   1.000  H
  H134     1.0000 0.88770  0.31780  0.57150  Biso   1.000  H
  H135     1.0000 0.61230  0.81780  0.92850  Biso   1.000  H
  H136     1.0000 0.38770  0.81780  0.57150  Biso   1.000  H
  H137     1.0000 0.83150  0.65100  0.13120  Biso   1.000  H
  H138     1.0000 0.16850  0.65100  0.36880  Biso   1.000  H
  H139     1.0000 0.33150  0.15100  0.13120  Biso   1.000  H
  H140     1.0000 0.66850  0.15100  0.36880  Biso   1.000  H
  H141     1.0000 0.16850  0.34900  0.86880  Biso   1.000  H
  H142     1.0000 0.83150  0.34900  0.63120  Biso   1.000  H
  H143     1.0000 0.66850  0.84900  0.86880  Biso   1.000  H
  H144     1.0000 0.33150  0.84900  0.63120  Biso   1.000  H
  C81      1.0000 0.63425  0.59125  0.34980  Biso   1.000  C
  C82      1.0000 0.36575  0.59125  0.15020  Biso   1.000  C
  C83      1.0000 0.13425  0.09125  0.34980  Biso   1.000  C
  C84      1.0000 0.86575  0.09125  0.15020  Biso   1.000  C
  C85      1.0000 0.36575  0.40875  0.65020  Biso   1.000  C
  C86      1.0000 0.63425  0.40875  0.84980  Biso   1.000  C
  C87      1.0000 0.86575  0.90875  0.65020  Biso   1.000  C
  C88      1.0000 0.13425  0.90875  0.84980  Biso   1.000  C
  H145     1.0000 0.64010  0.58010  0.44000  Biso   1.000  H
  H146     1.0000 0.35990  0.58010  0.06000  Biso   1.000  H
  H147     1.0000 0.14010  0.08010  0.44000  Biso   1.000  H
  H148     1.0000 0.85990  0.08010  0.06000  Biso   1.000  H
  H149     1.0000 0.35990  0.41990  0.56000  Biso   1.000  H
  H150     1.0000 0.64010  0.41990  0.94000  Biso   1.000  H
  H151     1.0000 0.85990  0.91990  0.56000  Biso   1.000  H
  H152     1.0000 0.14010  0.91990  0.94000  Biso   1.000  H
  C89      1.0000 0.59485  0.55289  0.27770  Biso   1.000  C
  C90      1.0000 0.40515  0.55289  0.22230  Biso   1.000  C
  C91      1.0000 0.09485  0.05289  0.27770  Biso   1.000  C
  C92      1.0000 0.90515  0.05289  0.22230  Biso   1.000  C
  C93      1.0000 0.40515  0.44711  0.72230  Biso   1.000  C
  C94      1.0000 0.59485  0.44711  0.77770  Biso   1.000  C
  C95      1.0000 0.90515  0.94711  0.72230  Biso   1.000  C
  C96      1.0000 0.09485  0.94711  0.77770  Biso   1.000  C
  H153     1.0000 0.57350  0.51430  0.31400  Biso   1.000  H
  H154     1.0000 0.42650  0.51430  0.18600  Biso   1.000  H
  H155     1.0000 0.07350  0.01430  0.31400  Biso   1.000  H
  H156     1.0000 0.92650  0.01430  0.18600  Biso   1.000  H
  H157     1.0000 0.42650  0.48570  0.68600  Biso   1.000  H
  H158     1.0000 0.57350  0.48570  0.81400  Biso   1.000  H
  H159     1.0000 0.92650  0.98570  0.68600  Biso   1.000  H
  H160     1.0000 0.07350  0.98570  0.81400  Biso   1.000  H
  C97      1.0000 0.58606  0.57188  0.15030  Biso   1.000  C
  C98      1.0000 0.41394  0.57188  0.34970  Biso   1.000  C
  C99      1.0000 0.08606  0.07188  0.15030  Biso   1.000  C
  C100     1.0000 0.91394  0.07188  0.34970  Biso   1.000  C
  C101     1.0000 0.41394  0.42812  0.84970  Biso   1.000  C
  C102     1.0000 0.58606  0.42812  0.65030  Biso   1.000  C
  C103     1.0000 0.91394  0.92812  0.84970  Biso   1.000  C
  C104     1.0000 0.08606  0.92812  0.65030  Biso   1.000  C
  C105     1.0000 0.61917  0.62786  0.09960  Biso   1.000  C
  C106     1.0000 0.38083  0.62786  0.40040  Biso   1.000  C
  C107     1.0000 0.11917  0.12786  0.09960  Biso   1.000  C
  C108     1.0000 0.88083  0.12786  0.40040  Biso   1.000  C
  C109     1.0000 0.38083  0.37214  0.90040  Biso   1.000  C
  C110     1.0000 0.61917  0.37214  0.59960  Biso   1.000  C
  C111     1.0000 0.88083  0.87214  0.90040  Biso   1.000  C
  C112     1.0000 0.11917  0.87214  0.59960  Biso   1.000  C
  H161     1.0000 0.61820  0.64200  0.01200  Biso   1.000  H
  H162     1.0000 0.38180  0.64200  0.48800  Biso   1.000  H
  H163     1.0000 0.11820  0.14200  0.01200  Biso   1.000  H
  H164     1.0000 0.88180  0.14200  0.48800  Biso   1.000  H
  H165     1.0000 0.38180  0.35800  0.98800  Biso   1.000  H
  H166     1.0000 0.61820  0.35800  0.51200  Biso   1.000  H
  H167     1.0000 0.88180  0.85800  0.98800  Biso   1.000  H
  H168     1.0000 0.11820  0.85800  0.51200  Biso   1.000  H
  C113     1.0000 0.65778  0.66265  0.17770  Biso   1.000  C
  C114     1.0000 0.34222  0.66265  0.32230  Biso   1.000  C
  C115     1.0000 0.15778  0.16265  0.17770  Biso   1.000  C
  C116     1.0000 0.84222  0.16265  0.32230  Biso   1.000  C
  C117     1.0000 0.34222  0.33735  0.82230  Biso   1.000  C
  C118     1.0000 0.65778  0.33735  0.67770  Biso   1.000  C
  C119     1.0000 0.84222  0.83735  0.82230  Biso   1.000  C
  C120     1.0000 0.15778  0.83735  0.67770  Biso   1.000  C
  H169     1.0000 0.67800  0.70030  0.14700  Biso   1.000  H
  H170     1.0000 0.32200  0.70030  0.35300  Biso   1.000  H
  H171     1.0000 0.17800  0.20030  0.14700  Biso   1.000  H
  H172     1.0000 0.82200  0.20030  0.35300  Biso   1.000  H
  H173     1.0000 0.32200  0.29970  0.85300  Biso   1.000  H
  H174     1.0000 0.67800  0.29970  0.64700  Biso   1.000  H
  H175     1.0000 0.82200  0.79970  0.85300  Biso   1.000  H
  H176     1.0000 0.17800  0.79970  0.64700  Biso   1.000  H
  C121     1.0000 0.54212  0.53473  0.07250  Biso   1.000  C
  C122     1.0000 0.45788  0.53473  0.42750  Biso   1.000  C
  C123     1.0000 0.04212  0.03473  0.07250  Biso   1.000  C
  C124     1.0000 0.95788  0.03473  0.42750  Biso   1.000  C
  C125     1.0000 0.45788  0.46527  0.92750  Biso   1.000  C
  C126     1.0000 0.54212  0.46527  0.57250  Biso   1.000  C
  C127     1.0000 0.95788  0.96527  0.92750  Biso   1.000  C
  C128     1.0000 0.04212  0.96527  0.57250  Biso   1.000  C
  C129     1.0000 0.53077  0.45916  0.08840  Biso   1.000  C
  C130     1.0000 0.46923  0.45916  0.41160  Biso   1.000  C
  C131     1.0000 0.03077  0.95916  0.08840  Biso   1.000  C
  C132     1.0000 0.96923  0.95916  0.41160  Biso   1.000  C
  C133     1.0000 0.46923  0.54084  0.91160  Biso   1.000  C
  C134     1.0000 0.53077  0.54084  0.58840  Biso   1.000  C
  C135     1.0000 0.96923  0.04084  0.91160  Biso   1.000  C
  C136     1.0000 0.03077  0.04084  0.58840  Biso   1.000  C
  H177     1.0000 0.55230  0.43240  0.14900  Biso   1.000  H
  H178     1.0000 0.44770  0.43240  0.35100  Biso   1.000  H
  H179     1.0000 0.05230  0.93240  0.14900  Biso   1.000  H
  H180     1.0000 0.94770  0.93240  0.35100  Biso   1.000  H
  H181     1.0000 0.44770  0.56760  0.85100  Biso   1.000  H
  H182     1.0000 0.55230  0.56760  0.64900  Biso   1.000  H
  H183     1.0000 0.94770  0.06760  0.85100  Biso   1.000  H
  H184     1.0000 0.05230  0.06760  0.64900  Biso   1.000  H
  C137     1.0000 0.51072  0.57533  0.98260  Biso   1.000  C
  C138     1.0000 0.48928  0.57533  0.51740  Biso   1.000  C
  C139     1.0000 0.01072  0.07533  0.98260  Biso   1.000  C
  C140     1.0000 0.98928  0.07533  0.51740  Biso   1.000  C
  C141     1.0000 0.48928  0.42467  0.01740  Biso   1.000  C
  C142     1.0000 0.51072  0.42467  0.48260  Biso   1.000  C
  C143     1.0000 0.98928  0.92467  0.01740  Biso   1.000  C
  C144     1.0000 0.01072  0.92467  0.48260  Biso   1.000  C
  H185     1.0000 0.51530  0.62760  0.97200  Biso   1.000  H
  H186     1.0000 0.48470  0.62760  0.52800  Biso   1.000  H
  H187     1.0000 0.01530  0.12760  0.97200  Biso   1.000  H
  H188     1.0000 0.98470  0.12760  0.52800  Biso   1.000  H
  H189     1.0000 0.48470  0.37240  0.02800  Biso   1.000  H
  H190     1.0000 0.51530  0.37240  0.47200  Biso   1.000  H
  H191     1.0000 0.98470  0.87240  0.02800  Biso   1.000  H
  H192     1.0000 0.01530  0.87240  0.47200  Biso   1.000  H
