data_image0
_cell_length_a       14.523
_cell_length_b       16.589
_cell_length_c       9.114
_cell_angle_alpha    90
_cell_angle_beta     107.907
_cell_angle_gamma    90

_symmetry_space_group_name_H-M    "P 1"
_symmetry_int_tables_number       1

loop_
  _symmetry_equiv_pos_as_xyz
  'x, y, z'

loop_
  _atom_site_label
  _atom_site_occupancy
  _atom_site_fract_x
  _atom_site_fract_y
  _atom_site_fract_z
  _atom_site_thermal_displace_type
  _atom_site_B_iso_or_equiv
  _atom_site_type_symbol
  Cu1      1.0000 0.26096  0.67385  0.83271  Biso   1.000  Cu
  Cu2      1.0000 0.73904  0.17385  0.66729  Biso   1.000  Cu
  Cu3      1.0000 0.73904  0.32615  0.16729  Biso   1.000  Cu
  Cu4      1.0000 0.26096  0.82615  0.33271  Biso   1.000  Cu
  O1       1.0000 0.27528  0.72970  0.02420  Biso   1.000  O
  O2       1.0000 0.72472  0.22970  0.47580  Biso   1.000  O
  O3       1.0000 0.72472  0.27030  0.97580  Biso   1.000  O
  O4       1.0000 0.27528  0.77030  0.52420  Biso   1.000  O
  O5       1.0000 0.37228  0.73896  0.26780  Biso   1.000  O
  O6       1.0000 0.62772  0.23896  0.23220  Biso   1.000  O
  O7       1.0000 0.62772  0.26104  0.73220  Biso   1.000  O
  O8       1.0000 0.37228  0.76104  0.76780  Biso   1.000  O
  O9       1.0000 0.26672  0.60434  0.66440  Biso   1.000  O
  O10      1.0000 0.73328  0.10434  0.83560  Biso   1.000  O
  O11      1.0000 0.73328  0.39566  0.33560  Biso   1.000  O
  O12      1.0000 0.26672  0.89566  0.16440  Biso   1.000  O
  O13      1.0000 0.37147  0.52245  0.60640  Biso   1.000  O
  O14      1.0000 0.62853  0.02245  0.89360  Biso   1.000  O
  O15      1.0000 0.62853  0.47755  0.39360  Biso   1.000  O
  O16      1.0000 0.37147  0.97755  0.10640  Biso   1.000  O
  O17      1.0000 0.14300  0.52847  0.82780  Biso   1.000  O
  O18      1.0000 0.85700  0.02847  0.67220  Biso   1.000  O
  O19      1.0000 0.85700  0.47153  0.17220  Biso   1.000  O
  O20      1.0000 0.14300  0.97153  0.32780  Biso   1.000  O
  N1       1.0000 0.35651  0.59680  0.96890  Biso   1.000  N
  N2       1.0000 0.64349  0.09680  0.53110  Biso   1.000  N
  N3       1.0000 0.64349  0.40320  0.03110  Biso   1.000  N
  N4       1.0000 0.35651  0.90320  0.46890  Biso   1.000  N
  N5       1.0000 0.01630  0.75026  0.47860  Biso   1.000  N
  N6       1.0000 0.98370  0.25026  0.02140  Biso   1.000  N
  N7       1.0000 0.98370  0.24974  0.52140  Biso   1.000  N
  N8       1.0000 0.01630  0.74974  0.97860  Biso   1.000  N
  N9       1.0000 0.14651  0.73766  0.71400  Biso   1.000  N
  N10      1.0000 0.85349  0.23766  0.78600  Biso   1.000  N
  N11      1.0000 0.85349  0.26234  0.28600  Biso   1.000  N
  N12      1.0000 0.14651  0.76234  0.21400  Biso   1.000  N
  N13      1.0000 0.94924  0.87521  0.38080  Biso   1.000  N
  N14      1.0000 0.05076  0.37521  0.11920  Biso   1.000  N
  N15      1.0000 0.05076  0.12479  0.61920  Biso   1.000  N
  N16      1.0000 0.94924  0.62479  0.88080  Biso   1.000  N
  H1       1.0000 0.94420  0.92750  0.39520  Biso   1.000  H
  H2       1.0000 0.05580  0.42750  0.10480  Biso   1.000  H
  H3       1.0000 0.05580  0.07250  0.60480  Biso   1.000  H
  H4       1.0000 0.94420  0.57250  0.89520  Biso   1.000  H
  N17      1.0000 0.09392  0.94834  0.67090  Biso   1.000  N
  N18      1.0000 0.90608  0.44834  0.82910  Biso   1.000  N
  N19      1.0000 0.90608  0.05166  0.32910  Biso   1.000  N
  N20      1.0000 0.09392  0.55166  0.17090  Biso   1.000  N
  N21      1.0000 0.19325  0.86485  0.84570  Biso   1.000  N
  N22      1.0000 0.80675  0.36485  0.65430  Biso   1.000  N
  N23      1.0000 0.80675  0.13515  0.15430  Biso   1.000  N
  N24      1.0000 0.19325  0.63515  0.34570  Biso   1.000  N
  H5       1.0000 0.23790  0.84940  0.93040  Biso   1.000  H
  H6       1.0000 0.76210  0.34940  0.56960  Biso   1.000  H
  H7       1.0000 0.76210  0.15060  0.06960  Biso   1.000  H
  H8       1.0000 0.23790  0.65060  0.43040  Biso   1.000  H
  C1       1.0000 0.41380  0.64710  0.09830  Biso   1.000  C
  C2       1.0000 0.58620  0.14710  0.40170  Biso   1.000  C
  C3       1.0000 0.58620  0.35290  0.90170  Biso   1.000  C
  C4       1.0000 0.41380  0.85290  0.59830  Biso   1.000  C
  H9       1.0000 0.46560  0.67470  0.06780  Biso   1.000  H
  H10      1.0000 0.53440  0.17470  0.43220  Biso   1.000  H
  H11      1.0000 0.53440  0.32530  0.93220  Biso   1.000  H
  H12      1.0000 0.46560  0.82530  0.56780  Biso   1.000  H
  H13      1.0000 0.44480  0.61260  0.18850  Biso   1.000  H
  H14      1.0000 0.55520  0.11260  0.31150  Biso   1.000  H
  H15      1.0000 0.55520  0.38740  0.81150  Biso   1.000  H
  H16      1.0000 0.44480  0.88740  0.68850  Biso   1.000  H
  C5       1.0000 0.35120  0.70958  0.13920  Biso   1.000  C
  C6       1.0000 0.64880  0.20958  0.36080  Biso   1.000  C
  C7       1.0000 0.64880  0.29042  0.86080  Biso   1.000  C
  C8       1.0000 0.35120  0.79042  0.63920  Biso   1.000  C
  C9       1.0000 0.40790  0.56300  0.86420  Biso   1.000  C
  C10      1.0000 0.59210  0.06300  0.63580  Biso   1.000  C
  C11      1.0000 0.59210  0.43700  0.13580  Biso   1.000  C
  C12      1.0000 0.40790  0.93700  0.36420  Biso   1.000  C
  H17      1.0000 0.42850  0.50730  0.89720  Biso   1.000  H
  H18      1.0000 0.57150  0.00730  0.60280  Biso   1.000  H
  H19      1.0000 0.57150  0.49270  0.10280  Biso   1.000  H
  H20      1.0000 0.42850  0.99270  0.39720  Biso   1.000  H
  H21      1.0000 0.46660  0.59520  0.87250  Biso   1.000  H
  H22      1.0000 0.53340  0.09520  0.62750  Biso   1.000  H
  H23      1.0000 0.53340  0.40480  0.12750  Biso   1.000  H
  H24      1.0000 0.46660  0.90480  0.37250  Biso   1.000  H
  C13      1.0000 0.34370  0.56211  0.69830  Biso   1.000  C
  C14      1.0000 0.65630  0.06211  0.80170  Biso   1.000  C
  C15      1.0000 0.65630  0.43789  0.30170  Biso   1.000  C
  C16      1.0000 0.34370  0.93789  0.19830  Biso   1.000  C
  C17      1.0000 0.30310  0.53100  0.03140  Biso   1.000  C
  C18      1.0000 0.69690  0.03100  0.46860  Biso   1.000  C
  C19      1.0000 0.69690  0.46900  0.96860  Biso   1.000  C
  C20      1.0000 0.30310  0.96900  0.53140  Biso   1.000  C
  H25      1.0000 0.35090  0.49180  0.09310  Biso   1.000  H
  H26      1.0000 0.64910  0.99180  0.40690  Biso   1.000  H
  H27      1.0000 0.64910  0.50820  0.90690  Biso   1.000  H
  H28      1.0000 0.35090  0.00820  0.59310  Biso   1.000  H
  H29      1.0000 0.27020  0.55610  0.10030  Biso   1.000  H
  H30      1.0000 0.72980  0.05610  0.39970  Biso   1.000  H
  H31      1.0000 0.72980  0.44390  0.89970  Biso   1.000  H
  H32      1.0000 0.27020  0.94390  0.60030  Biso   1.000  H
  C21      1.0000 0.22880  0.48840  0.90090  Biso   1.000  C
  C22      1.0000 0.77120  0.98840  0.59910  Biso   1.000  C
  C23      1.0000 0.77120  0.51160  0.09910  Biso   1.000  C
  C24      1.0000 0.22880  0.01160  0.40090  Biso   1.000  C
  C25      1.0000 0.08770  0.47854  0.71130  Biso   1.000  C
  C26      1.0000 0.91230  0.97854  0.78870  Biso   1.000  C
  C27      1.0000 0.91230  0.52146  0.28870  Biso   1.000  C
  C28      1.0000 0.08770  0.02146  0.21130  Biso   1.000  C
  H33      1.0000 0.02580  0.49120  0.64170  Biso   1.000  H
  H34      1.0000 0.97420  0.99120  0.85830  Biso   1.000  H
  H35      1.0000 0.97420  0.50880  0.35830  Biso   1.000  H
  H36      1.0000 0.02580  0.00880  0.14170  Biso   1.000  H
  C29      1.0000 0.13710  0.40900  0.70940  Biso   1.000  C
  C30      1.0000 0.86290  0.90900  0.79060  Biso   1.000  C
  C31      1.0000 0.86290  0.59100  0.29060  Biso   1.000  C
  C32      1.0000 0.13710  0.09100  0.20940  Biso   1.000  C
  H37      1.0000 0.11420  0.36300  0.64670  Biso   1.000  H
  H38      1.0000 0.88580  0.86300  0.85330  Biso   1.000  H
  H39      1.0000 0.88580  0.63700  0.35330  Biso   1.000  H
  H40      1.0000 0.11420  0.13700  0.14670  Biso   1.000  H
  C33      1.0000 0.22760  0.41830  0.81840  Biso   1.000  C
  C34      1.0000 0.77240  0.91830  0.68160  Biso   1.000  C
  C35      1.0000 0.77240  0.58170  0.18160  Biso   1.000  C
  C36      1.0000 0.22760  0.08170  0.31840  Biso   1.000  C
  H41      1.0000 0.28060  0.38220  0.83590  Biso   1.000  H
  H42      1.0000 0.71940  0.88220  0.66410  Biso   1.000  H
  H43      1.0000 0.71940  0.61780  0.16410  Biso   1.000  H
  H44      1.0000 0.28060  0.11780  0.33590  Biso   1.000  H
  C37      1.0000 0.08084  0.70924  0.58560  Biso   1.000  C
  C38      1.0000 0.91916  0.20924  0.91440  Biso   1.000  C
  C39      1.0000 0.91916  0.29076  0.41440  Biso   1.000  C
  C40      1.0000 0.08084  0.79076  0.08560  Biso   1.000  C
  H45      1.0000 0.08110  0.65260  0.57070  Biso   1.000  H
  H46      1.0000 0.91890  0.15260  0.92930  Biso   1.000  H
  H47      1.0000 0.91890  0.34740  0.42930  Biso   1.000  H
  H48      1.0000 0.08110  0.84740  0.07070  Biso   1.000  H
  C41      1.0000 0.14090  0.81871  0.72820  Biso   1.000  C
  C42      1.0000 0.85910  0.31871  0.77180  Biso   1.000  C
  C43      1.0000 0.85910  0.18129  0.27180  Biso   1.000  C
  C44      1.0000 0.14090  0.68129  0.22820  Biso   1.000  C
  C45      1.0000 0.07804  0.86658  0.62540  Biso   1.000  C
  C46      1.0000 0.92196  0.36658  0.87460  Biso   1.000  C
  C47      1.0000 0.92196  0.13342  0.37460  Biso   1.000  C
  C48      1.0000 0.07804  0.63342  0.12540  Biso   1.000  C
  C49      1.0000 0.01365  0.83247  0.49250  Biso   1.000  C
  C50      1.0000 0.98635  0.33247  0.00750  Biso   1.000  C
  C51      1.0000 0.98635  0.16753  0.50750  Biso   1.000  C
  C52      1.0000 0.01365  0.66753  0.99250  Biso   1.000  C
  C53      1.0000 0.16190  0.94105  0.80520  Biso   1.000  C
  C54      1.0000 0.83810  0.44105  0.69480  Biso   1.000  C
  C55      1.0000 0.83810  0.05895  0.19480  Biso   1.000  C
  C56      1.0000 0.16190  0.55895  0.30520  Biso   1.000  C
  H49      1.0000 0.18680  0.98610  0.86950  Biso   1.000  H
  H50      1.0000 0.81320  0.48610  0.63050  Biso   1.000  H
  H51      1.0000 0.81320  0.01390  0.13050  Biso   1.000  H
  H52      1.0000 0.18680  0.51390  0.36950  Biso   1.000  H
  C57      1.0000 0.88641  0.83838  0.23550  Biso   1.000  C
  C58      1.0000 0.11359  0.33838  0.26450  Biso   1.000  C
  C59      1.0000 0.11359  0.16162  0.76450  Biso   1.000  C
  C60      1.0000 0.88641  0.66162  0.73550  Biso   1.000  C
  H53      1.0000 0.90820  0.78260  0.22640  Biso   1.000  H
  H54      1.0000 0.09180  0.28260  0.27360  Biso   1.000  H
  H55      1.0000 0.09180  0.21740  0.77360  Biso   1.000  H
  H56      1.0000 0.90820  0.71740  0.72640  Biso   1.000  H
  H57      1.0000 0.89300  0.86950  0.14660  Biso   1.000  H
  H58      1.0000 0.10700  0.36950  0.35340  Biso   1.000  H
  H59      1.0000 0.10700  0.13050  0.85340  Biso   1.000  H
  H60      1.0000 0.89300  0.63050  0.64660  Biso   1.000  H
  C61      1.0000 0.78010  0.83721  0.22850  Biso   1.000  C
  C62      1.0000 0.21990  0.33721  0.27150  Biso   1.000  C
  C63      1.0000 0.21990  0.16279  0.77150  Biso   1.000  C
  C64      1.0000 0.78010  0.66279  0.72850  Biso   1.000  C
  C65      1.0000 0.71020  0.86750  0.10040  Biso   1.000  C
  C66      1.0000 0.28980  0.36750  0.39960  Biso   1.000  C
  C67      1.0000 0.28980  0.13250  0.89960  Biso   1.000  C
  C68      1.0000 0.71020  0.63250  0.60040  Biso   1.000  C
  H61      1.0000 0.72910  0.89000  0.01820  Biso   1.000  H
  H62      1.0000 0.27090  0.39000  0.48180  Biso   1.000  H
  H63      1.0000 0.27090  0.11000  0.98180  Biso   1.000  H
  H64      1.0000 0.72910  0.61000  0.51820  Biso   1.000  H
  C69      1.0000 0.61340  0.86440  0.08910  Biso   1.000  C
  C70      1.0000 0.38660  0.36440  0.41090  Biso   1.000  C
  C71      1.0000 0.38660  0.13560  0.91090  Biso   1.000  C
  C72      1.0000 0.61340  0.63560  0.58910  Biso   1.000  C
  H65      1.0000 0.56590  0.88830  0.00430  Biso   1.000  H
  H66      1.0000 0.43410  0.38830  0.49570  Biso   1.000  H
  H67      1.0000 0.43410  0.11170  0.99570  Biso   1.000  H
  H68      1.0000 0.56590  0.61170  0.50430  Biso   1.000  H
  C73      1.0000 0.58770  0.82540  0.20720  Biso   1.000  C
  C74      1.0000 0.41230  0.32540  0.29280  Biso   1.000  C
  C75      1.0000 0.41230  0.17460  0.79280  Biso   1.000  C
  C76      1.0000 0.58770  0.67460  0.70720  Biso   1.000  C
  H69      1.0000 0.52100  0.81690  0.19430  Biso   1.000  H
  H70      1.0000 0.47900  0.31690  0.30570  Biso   1.000  H
  H71      1.0000 0.47900  0.18310  0.80570  Biso   1.000  H
  H72      1.0000 0.52100  0.68310  0.69430  Biso   1.000  H
  C77      1.0000 0.65390  0.80040  0.33880  Biso   1.000  C
  C78      1.0000 0.34610  0.30040  0.16120  Biso   1.000  C
  C79      1.0000 0.34610  0.19960  0.66120  Biso   1.000  C
  C80      1.0000 0.65390  0.69960  0.83880  Biso   1.000  C
  H73      1.0000 0.63470  0.78220  0.42380  Biso   1.000  H
  H74      1.0000 0.36530  0.28220  0.07620  Biso   1.000  H
  H75      1.0000 0.36530  0.21780  0.57620  Biso   1.000  H
  H76      1.0000 0.63470  0.71780  0.92380  Biso   1.000  H
  C81      1.0000 0.75260  0.80180  0.34900  Biso   1.000  C
  C82      1.0000 0.24740  0.30180  0.15100  Biso   1.000  C
  C83      1.0000 0.24740  0.19820  0.65100  Biso   1.000  C
  C84      1.0000 0.75260  0.69820  0.84900  Biso   1.000  C
  H77      1.0000 0.79970  0.77830  0.43470  Biso   1.000  H
  H78      1.0000 0.20030  0.27830  0.06530  Biso   1.000  H
  H79      1.0000 0.20030  0.22170  0.56530  Biso   1.000  H
  H80      1.0000 0.79970  0.72170  0.93470  Biso   1.000  H
