data_image0
_cell_length_a       11.282
_cell_length_b       6.239
_cell_length_c       29.248
_cell_angle_alpha    90
_cell_angle_beta     110.75
_cell_angle_gamma    90

_symmetry_space_group_name_H-M    "P 1"
_symmetry_int_tables_number       1

loop_
  _symmetry_equiv_pos_as_xyz
  'x, y, z'

loop_
  _atom_site_label
  _atom_site_occupancy
  _atom_site_fract_x
  _atom_site_fract_y
  _atom_site_fract_z
  _atom_site_thermal_displace_type
  _atom_site_B_iso_or_equiv
  _atom_site_type_symbol
  Cu1      1.0000 0.90568  0.02126  0.16176  Biso   1.000  Cu
  Cu2      1.0000 0.09432  0.52126  0.33824  Biso   1.000  Cu
  Cu3      1.0000 0.09432  0.97874  0.83824  Biso   1.000  Cu
  Cu4      1.0000 0.90568  0.47874  0.66176  Biso   1.000  Cu
  N1       1.0000 0.76790  0.93720  0.18672  Biso   1.000  N
  N2       1.0000 0.23210  0.43720  0.31328  Biso   1.000  N
  N3       1.0000 0.23210  0.06280  0.81328  Biso   1.000  N
  N4       1.0000 0.76790  0.56280  0.68672  Biso   1.000  N
  C1       1.0000 0.80990  0.01080  0.23790  Biso   1.000  C
  C2       1.0000 0.19010  0.51080  0.26210  Biso   1.000  C
  C3       1.0000 0.19010  0.98920  0.76210  Biso   1.000  C
  C4       1.0000 0.80990  0.48920  0.73790  Biso   1.000  C
  H1       1.0000 0.85080  0.89040  0.25990  Biso   1.000  H
  H2       1.0000 0.14920  0.39040  0.24010  Biso   1.000  H
  H3       1.0000 0.14920  0.10960  0.74010  Biso   1.000  H
  H4       1.0000 0.85080  0.60960  0.75990  Biso   1.000  H
  H5       1.0000 0.73540  0.05700  0.24580  Biso   1.000  H
  H6       1.0000 0.26460  0.55700  0.25420  Biso   1.000  H
  H7       1.0000 0.26460  0.94300  0.75420  Biso   1.000  H
  H8       1.0000 0.73540  0.44300  0.74580  Biso   1.000  H
  C5       1.0000 0.90360  0.19720  0.24680  Biso   1.000  C
  C6       1.0000 0.09640  0.69720  0.25320  Biso   1.000  C
  C7       1.0000 0.09640  0.80280  0.75320  Biso   1.000  C
  C8       1.0000 0.90360  0.30280  0.74680  Biso   1.000  C
  O1       1.0000 0.94310  0.24400  0.21164  Biso   1.000  O
  O2       1.0000 0.05690  0.74400  0.28836  Biso   1.000  O
  O3       1.0000 0.05690  0.75600  0.78836  Biso   1.000  O
  O4       1.0000 0.94310  0.25600  0.71164  Biso   1.000  O
  O5       1.0000 0.93670  0.28770  0.28667  Biso   1.000  O
  O6       1.0000 0.06330  0.78770  0.21333  Biso   1.000  O
  O7       1.0000 0.06330  0.71230  0.71333  Biso   1.000  O
  O8       1.0000 0.93670  0.21230  0.78667  Biso   1.000  O
  C9       1.0000 0.65010  0.05160  0.15425  Biso   1.000  C
  C10      1.0000 0.34990  0.55160  0.34575  Biso   1.000  C
  C11      1.0000 0.34990  0.94840  0.84575  Biso   1.000  C
  C12      1.0000 0.65010  0.44840  0.65425  Biso   1.000  C
  H9       1.0000 0.66890  0.20670  0.15470  Biso   1.000  H
  H10      1.0000 0.33110  0.70670  0.34530  Biso   1.000  H
  H11      1.0000 0.33110  0.79330  0.84530  Biso   1.000  H
  H12      1.0000 0.66890  0.29330  0.65470  Biso   1.000  H
  H13      1.0000 0.62990  0.00040  0.12030  Biso   1.000  H
  H14      1.0000 0.37010  0.50040  0.37970  Biso   1.000  H
  H15      1.0000 0.37010  0.99960  0.87970  Biso   1.000  H
  H16      1.0000 0.62990  0.49960  0.62030  Biso   1.000  H
  C13      1.0000 0.53450  0.02220  0.16810  Biso   1.000  C
  C14      1.0000 0.46550  0.52220  0.33190  Biso   1.000  C
  C15      1.0000 0.46550  0.97780  0.83190  Biso   1.000  C
  C16      1.0000 0.53450  0.47780  0.66810  Biso   1.000  C
  C17      1.0000 0.45360  0.84520  0.15080  Biso   1.000  C
  C18      1.0000 0.54640  0.34520  0.34920  Biso   1.000  C
  C19      1.0000 0.54640  0.15480  0.84920  Biso   1.000  C
  C20      1.0000 0.45360  0.65480  0.65080  Biso   1.000  C
  H17      1.0000 0.47110  0.74410  0.12980  Biso   1.000  H
  H18      1.0000 0.52890  0.24410  0.37020  Biso   1.000  H
  H19      1.0000 0.52890  0.25590  0.87020  Biso   1.000  H
  H20      1.0000 0.47110  0.75590  0.62980  Biso   1.000  H
  C21      1.0000 0.34830  0.81740  0.16440  Biso   1.000  C
  C22      1.0000 0.65170  0.31740  0.33560  Biso   1.000  C
  C23      1.0000 0.65170  0.18260  0.83560  Biso   1.000  C
  C24      1.0000 0.34830  0.68260  0.66440  Biso   1.000  C
  H21      1.0000 0.29450  0.69700  0.15280  Biso   1.000  H
  H22      1.0000 0.70550  0.19700  0.34720  Biso   1.000  H
  H23      1.0000 0.70550  0.30300  0.84720  Biso   1.000  H
  H24      1.0000 0.29450  0.80300  0.65280  Biso   1.000  H
  C25      1.0000 0.32210  0.96460  0.19460  Biso   1.000  C
  C26      1.0000 0.67790  0.46460  0.30540  Biso   1.000  C
  C27      1.0000 0.67790  0.03540  0.80540  Biso   1.000  C
  C28      1.0000 0.32210  0.53540  0.69460  Biso   1.000  C
  H25      1.0000 0.25020  0.94550  0.20390  Biso   1.000  H
  H26      1.0000 0.74980  0.44550  0.29610  Biso   1.000  H
  H27      1.0000 0.74980  0.05450  0.79610  Biso   1.000  H
  H28      1.0000 0.25020  0.55450  0.70390  Biso   1.000  H
  C29      1.0000 0.40070  0.14100  0.21140  Biso   1.000  C
  C30      1.0000 0.59930  0.64100  0.28860  Biso   1.000  C
  C31      1.0000 0.59930  0.85900  0.78860  Biso   1.000  C
  C32      1.0000 0.40070  0.35900  0.71140  Biso   1.000  C
  H29      1.0000 0.38250  0.24220  0.23230  Biso   1.000  H
  H30      1.0000 0.61750  0.74220  0.26770  Biso   1.000  H
  H31      1.0000 0.61750  0.75780  0.76770  Biso   1.000  H
  H32      1.0000 0.38250  0.25780  0.73230  Biso   1.000  H
  C33      1.0000 0.50640  0.17030  0.19790  Biso   1.000  C
  C34      1.0000 0.49360  0.67030  0.30210  Biso   1.000  C
  C35      1.0000 0.49360  0.82970  0.80210  Biso   1.000  C
  C36      1.0000 0.50640  0.32970  0.69790  Biso   1.000  C
  H33      1.0000 0.55910  0.29230  0.20910  Biso   1.000  H
  H34      1.0000 0.44090  0.79230  0.29090  Biso   1.000  H
  H35      1.0000 0.44090  0.70770  0.79090  Biso   1.000  H
  H36      1.0000 0.55910  0.20770  0.70910  Biso   1.000  H
  C37      1.0000 0.75700  0.70190  0.18000  Biso   1.000  C
  C38      1.0000 0.24300  0.20190  0.32000  Biso   1.000  C
  C39      1.0000 0.24300  0.29810  0.82000  Biso   1.000  C
  C40      1.0000 0.75700  0.79810  0.68000  Biso   1.000  C
  H37      1.0000 0.67280  0.65320  0.17930  Biso   1.000  H
  H38      1.0000 0.32720  0.15320  0.32070  Biso   1.000  H
  H39      1.0000 0.32720  0.34680  0.82070  Biso   1.000  H
  H40      1.0000 0.67280  0.84680  0.67930  Biso   1.000  H
  H41      1.0000 0.82280  0.62940  0.20750  Biso   1.000  H
  H42      1.0000 0.17720  0.12940  0.29250  Biso   1.000  H
  H43      1.0000 0.17720  0.37060  0.79250  Biso   1.000  H
  H44      1.0000 0.82280  0.87060  0.70750  Biso   1.000  H
  C41      1.0000 0.77390  0.64600  0.13180  Biso   1.000  C
  C42      1.0000 0.22610  0.14600  0.36820  Biso   1.000  C
  C43      1.0000 0.22610  0.35400  0.86820  Biso   1.000  C
  C44      1.0000 0.77390  0.85400  0.63180  Biso   1.000  C
  O9       1.0000 0.83820  0.78250  0.11688  Biso   1.000  O
  O10      1.0000 0.16180  0.28250  0.38312  Biso   1.000  O
  O11      1.0000 0.16180  0.21750  0.88312  Biso   1.000  O
  O12      1.0000 0.83820  0.71750  0.61688  Biso   1.000  O
  O13      1.0000 0.72850  0.47640  0.11051  Biso   1.000  O
  O14      1.0000 0.27150  0.97640  0.38949  Biso   1.000  O
  O15      1.0000 0.27150  0.52360  0.88949  Biso   1.000  O
  O16      1.0000 0.72850  0.02360  0.61051  Biso   1.000  O
  N5       1.0000 0.15540  0.88570  0.03186  Biso   1.000  N
  N6       1.0000 0.84460  0.38570  0.46814  Biso   1.000  N
  N7       1.0000 0.84460  0.11430  0.96814  Biso   1.000  N
  N8       1.0000 0.15540  0.61430  0.53186  Biso   1.000  N
  C45      1.0000 0.07110  0.77960  0.04200  Biso   1.000  C
  C46      1.0000 0.92890  0.27960  0.45800  Biso   1.000  C
  C47      1.0000 0.92890  0.22040  0.95800  Biso   1.000  C
  C48      1.0000 0.07110  0.72040  0.54200  Biso   1.000  C
  H45      1.0000 0.04550  0.64610  0.02590  Biso   1.000  H
  H46      1.0000 0.95450  0.14610  0.47410  Biso   1.000  H
  H47      1.0000 0.95450  0.35390  0.97410  Biso   1.000  H
  H48      1.0000 0.04550  0.85390  0.52590  Biso   1.000  H
  N9       1.0000 0.01470  0.84200  0.07407  Biso   1.000  N
  N10      1.0000 0.98530  0.34200  0.42593  Biso   1.000  N
  N11      1.0000 0.98530  0.15800  0.92593  Biso   1.000  N
  N12      1.0000 0.01470  0.65800  0.57407  Biso   1.000  N
  H49      1.0000 0.95450  0.76390  0.07620  Biso   1.000  H
  H50      1.0000 0.04550  0.26390  0.42380  Biso   1.000  H
  H51      1.0000 0.04550  0.23610  0.92380  Biso   1.000  H
  H52      1.0000 0.95450  0.73610  0.57620  Biso   1.000  H
  C49      1.0000 0.05190  0.03600  0.09490  Biso   1.000  C
  C50      1.0000 0.94810  0.53600  0.40510  Biso   1.000  C
  C51      1.0000 0.94810  0.96400  0.90510  Biso   1.000  C
  C52      1.0000 0.05190  0.46400  0.59490  Biso   1.000  C
  C53      1.0000 0.14310  0.16960  0.08540  Biso   1.000  C
  C54      1.0000 0.85690  0.66960  0.41460  Biso   1.000  C
  C55      1.0000 0.85690  0.83040  0.91460  Biso   1.000  C
  C56      1.0000 0.14310  0.33040  0.58540  Biso   1.000  C
  C57      1.0000 0.20090  0.08380  0.05440  Biso   1.000  C
  C58      1.0000 0.79910  0.58380  0.44560  Biso   1.000  C
  C59      1.0000 0.79910  0.91620  0.94560  Biso   1.000  C
  C60      1.0000 0.20090  0.41620  0.55440  Biso   1.000  C
  N13      1.0000 0.29720  0.17730  0.04510  Biso   1.000  N
  N14      1.0000 0.70280  0.67730  0.45490  Biso   1.000  N
  N15      1.0000 0.70280  0.82270  0.95490  Biso   1.000  N
  N16      1.0000 0.29720  0.32270  0.54510  Biso   1.000  N
  N17      1.0000 0.15660  0.35500  0.11134  Biso   1.000  N
  N18      1.0000 0.84340  0.85500  0.38866  Biso   1.000  N
  N19      1.0000 0.84340  0.64500  0.88866  Biso   1.000  N
  N20      1.0000 0.15660  0.14500  0.61134  Biso   1.000  N
  C61      1.0000 0.07520  0.32790  0.13470  Biso   1.000  C
  C62      1.0000 0.92480  0.82790  0.36530  Biso   1.000  C
  C63      1.0000 0.92480  0.67210  0.86530  Biso   1.000  C
  C64      1.0000 0.07520  0.17210  0.63470  Biso   1.000  C
  H53      1.0000 0.06250  0.43520  0.15560  Biso   1.000  H
  H54      1.0000 0.93750  0.93520  0.34440  Biso   1.000  H
  H55      1.0000 0.93750  0.56480  0.84440  Biso   1.000  H
  H56      1.0000 0.06250  0.06480  0.65560  Biso   1.000  H
  N21      1.0000 0.01050  0.13580  0.12691  Biso   1.000  N
  N22      1.0000 0.98950  0.63580  0.37309  Biso   1.000  N
  N23      1.0000 0.98950  0.86420  0.87309  Biso   1.000  N
  N24      1.0000 0.01050  0.36420  0.62691  Biso   1.000  N
  C65      1.0000 0.34510  0.08150  0.01000  Biso   1.000  C
  C66      1.0000 0.65490  0.58150  0.49000  Biso   1.000  C
  C67      1.0000 0.65490  0.91850  0.99000  Biso   1.000  C
  C68      1.0000 0.34510  0.41850  0.51000  Biso   1.000  C
  H57      1.0000 0.40520  0.17990  0.00360  Biso   1.000  H
  H58      1.0000 0.59480  0.67990  0.49640  Biso   1.000  H
  H59      1.0000 0.59480  0.82010  0.99640  Biso   1.000  H
  H60      1.0000 0.40520  0.32010  0.50360  Biso   1.000  H
  H61      1.0000 0.27450  0.05310  0.97950  Biso   1.000  H
  H62      1.0000 0.72550  0.55310  0.52050  Biso   1.000  H
  H63      1.0000 0.72550  0.94690  0.02050  Biso   1.000  H
  H64      1.0000 0.27450  0.44690  0.47950  Biso   1.000  H
  H65      1.0000 0.38810  0.94660  0.02320  Biso   1.000  H
  H66      1.0000 0.61190  0.44660  0.47680  Biso   1.000  H
  H67      1.0000 0.61190  0.05340  0.97680  Biso   1.000  H
  H68      1.0000 0.38810  0.55340  0.52320  Biso   1.000  H
  C69      1.0000 0.35940  0.37450  0.06960  Biso   1.000  C
  C70      1.0000 0.64060  0.87450  0.43040  Biso   1.000  C
  C71      1.0000 0.64060  0.62550  0.93040  Biso   1.000  C
  C72      1.0000 0.35940  0.12550  0.56960  Biso   1.000  C
  H69      1.0000 0.33260  0.49540  0.04690  Biso   1.000  H
  H70      1.0000 0.66740  0.99540  0.45310  Biso   1.000  H
  H71      1.0000 0.66740  0.50460  0.95310  Biso   1.000  H
  H72      1.0000 0.33260  0.00460  0.54690  Biso   1.000  H
  H73      1.0000 0.45160  0.35760  0.08010  Biso   1.000  H
  H74      1.0000 0.54840  0.85760  0.41990  Biso   1.000  H
  H75      1.0000 0.54840  0.64240  0.91990  Biso   1.000  H
  H76      1.0000 0.45160  0.14240  0.58010  Biso   1.000  H
  H77      1.0000 0.33560  0.40170  0.09820  Biso   1.000  H
  H78      1.0000 0.66440  0.90170  0.40180  Biso   1.000  H
  H79      1.0000 0.66440  0.59830  0.90180  Biso   1.000  H
  H80      1.0000 0.33560  0.09830  0.59820  Biso   1.000  H
  O17      1.0000 0.83850  0.46260  0.03670  Biso   1.000  O
  O18      1.0000 0.16150  0.96260  0.46330  Biso   1.000  O
  O19      1.0000 0.16150  0.53740  0.96330  Biso   1.000  O
  O20      1.0000 0.83850  0.03740  0.53670  Biso   1.000  O
  H81      1.0000 0.79710  0.44740  0.05580  Biso   1.000  H
  H82      1.0000 0.20290  0.94740  0.44420  Biso   1.000  H
  H83      1.0000 0.20290  0.55260  0.94420  Biso   1.000  H
  H84      1.0000 0.79710  0.05260  0.55580  Biso   1.000  H
  H85      1.0000 0.81930  0.35900  0.01640  Biso   1.000  H
  H86      1.0000 0.18070  0.85900  0.48360  Biso   1.000  H
  H87      1.0000 0.18070  0.64100  0.98360  Biso   1.000  H
  H88      1.0000 0.81930  0.14100  0.51640  Biso   1.000  H
