data_image0
_cell_length_a       8.4716
_cell_length_b       8.7904
_cell_length_c       15.2105
_cell_angle_alpha    88.106
_cell_angle_beta     87.745
_cell_angle_gamma    82.924

_symmetry_space_group_name_H-M    "P 1"
_symmetry_int_tables_number       1

loop_
  _symmetry_equiv_pos_as_xyz
  'x, y, z'

loop_
  _atom_site_label
  _atom_site_occupancy
  _atom_site_fract_x
  _atom_site_fract_y
  _atom_site_fract_z
  _atom_site_thermal_displace_type
  _atom_site_B_iso_or_equiv
  _atom_site_type_symbol
  Cu1      1.0000 0.00000  0.50000  0.50000  Biso   1.000  Cu
  Cu2      1.0000 0.00000  0.00000  0.00000  Biso   1.000  Cu
  N1       1.0000 0.18630  0.62150  0.49120  Biso   1.000  N
  N2       1.0000 0.81370  0.37850  0.50880  Biso   1.000  N
  N3       1.0000 0.60530  0.82930  0.46850  Biso   1.000  N
  N4       1.0000 0.39470  0.17070  0.53150  Biso   1.000  N
  H1       1.0000 0.66170  0.80920  0.51420  Biso   1.000  H
  H2       1.0000 0.33830  0.19080  0.48580  Biso   1.000  H
  N5       1.0000 0.59820  0.96210  0.33090  Biso   1.000  N
  N6       1.0000 0.40180  0.03790  0.66910  Biso   1.000  N
  N7       1.0000 0.60360  0.09780  0.19380  Biso   1.000  N
  N8       1.0000 0.39640  0.90220  0.80620  Biso   1.000  N
  H3       1.0000 0.65700  0.15890  0.16300  Biso   1.000  H
  H4       1.0000 0.34300  0.84110  0.83700  Biso   1.000  H
  N9       1.0000 0.18950  0.03430  0.06680  Biso   1.000  N
  N10      1.0000 0.81050  0.96570  0.93320  Biso   1.000  N
  O1       1.0000 0.00480  0.49210  0.37190  Biso   1.000  O
  O2       1.0000 0.99520  0.50790  0.62810  Biso   1.000  O
  O3       1.0000 0.17680  0.28830  0.40400  Biso   1.000  O
  O4       1.0000 0.82320  0.71170  0.59600  Biso   1.000  O
  O5       1.0000 0.02650  0.78580  0.04170  Biso   1.000  O
  O6       1.0000 0.97350  0.21420  0.95830  Biso   1.000  O
  O7       1.0000 0.17920  0.76910  0.92290  Biso   1.000  O
  O8       1.0000 0.82080  0.23090  0.07710  Biso   1.000  O
  C1       1.0000 0.29650  0.61300  0.55210  Biso   1.000  C
  C2       1.0000 0.70350  0.38700  0.44790  Biso   1.000  C
  H5       1.0000 0.27740  0.55680  0.60350  Biso   1.000  H
  H6       1.0000 0.72260  0.44320  0.39650  Biso   1.000  H
  C3       1.0000 0.43200  0.67770  0.54640  Biso   1.000  C
  C4       1.0000 0.56800  0.32230  0.45360  Biso   1.000  C
  H7       1.0000 0.50450  0.66100  0.59110  Biso   1.000  H
  H8       1.0000 0.49550  0.33900  0.40890  Biso   1.000  H
  C5       1.0000 0.46370  0.76970  0.47350  Biso   1.000  C
  C6       1.0000 0.53630  0.23030  0.52650  Biso   1.000  C
  C7       1.0000 0.34660  0.78770  0.40980  Biso   1.000  C
  C8       1.0000 0.65340  0.21230  0.59020  Biso   1.000  C
  H9       1.0000 0.35820  0.84960  0.35980  Biso   1.000  H
  H10      1.0000 0.64180  0.15040  0.64020  Biso   1.000  H
  C9       1.0000 0.21470  0.71230  0.42270  Biso   1.000  C
  C10      1.0000 0.78530  0.28770  0.57730  Biso   1.000  C
  H11      1.0000 0.13880  0.72610  0.37970  Biso   1.000  H
  H12      1.0000 0.86120  0.27390  0.62030  Biso   1.000  H
  C11      1.0000 0.67450  0.91510  0.40450  Biso   1.000  C
  C12      1.0000 0.32550  0.08490  0.59550  Biso   1.000  C
  C13      1.0000 0.82750  0.94670  0.42040  Biso   1.000  C
  C14      1.0000 0.17250  0.05330  0.57960  Biso   1.000  C
  H13      1.0000 0.87730  0.91030  0.47170  Biso   1.000  H
  H14      1.0000 0.12270  0.08970  0.52830  Biso   1.000  H
  C15      1.0000 0.90300  0.03170  0.35950  Biso   1.000  C
  C16      1.0000 0.09700  0.96830  0.64050  Biso   1.000  C
  H15      1.0000 0.00420  0.05660  0.36970  Biso   1.000  H
  H16      1.0000 0.99580  0.94340  0.63030  Biso   1.000  H
  C17      1.0000 0.82910  0.08090  0.28290  Biso   1.000  C
  C18      1.0000 0.17090  0.91910  0.71710  Biso   1.000  C
  H17      1.0000 0.87990  0.13680  0.23980  Biso   1.000  H
  H18      1.0000 0.12010  0.86320  0.76020  Biso   1.000  H
  C19      1.0000 0.67520  0.04410  0.27180  Biso   1.000  C
  C20      1.0000 0.32480  0.95590  0.72820  Biso   1.000  C
  C21      1.0000 0.46450  0.07220  0.15670  Biso   1.000  C
  C22      1.0000 0.53550  0.92780  0.84330  Biso   1.000  C
  C23      1.0000 0.36370  0.97160  0.18700  Biso   1.000  C
  C24      1.0000 0.63630  0.02840  0.81300  Biso   1.000  C
  H19      1.0000 0.38460  0.91400  0.23850  Biso   1.000  H
  H20      1.0000 0.61540  0.08600  0.76150  Biso   1.000  H
  C25      1.0000 0.23050  0.95590  0.14060  Biso   1.000  C
  C26      1.0000 0.76950  0.04410  0.85940  Biso   1.000  C
  H21      1.0000 0.16430  0.88550  0.16240  Biso   1.000  H
  H22      1.0000 0.83570  0.11450  0.83760  Biso   1.000  H
  C27      1.0000 0.42770  0.15040  0.07870  Biso   1.000  C
  C28      1.0000 0.57230  0.84960  0.92130  Biso   1.000  C
  H23      1.0000 0.49520  0.21720  0.05400  Biso   1.000  H
  H24      1.0000 0.50480  0.78280  0.94600  Biso   1.000  H
  C29      1.0000 0.29140  0.12920  0.03770  Biso   1.000  C
  C30      1.0000 0.70860  0.87080  0.96230  Biso   1.000  C
  H25      1.0000 0.26860  0.18520  0.98590  Biso   1.000  H
  H26      1.0000 0.73140  0.81480  0.01410  Biso   1.000  H
  C31      1.0000 0.10830  0.37980  0.34970  Biso   1.000  C
  C32      1.0000 0.89170  0.62020  0.65030  Biso   1.000  C
  C33      1.0000 0.14870  0.36010  0.25260  Biso   1.000  C
  C34      1.0000 0.85130  0.63990  0.74740  Biso   1.000  C
  H27      1.0000 0.17110  0.25290  0.24080  Biso   1.000  H
  H28      1.0000 0.82890  0.74710  0.75920  Biso   1.000  H
  H29      1.0000 0.24050  0.41030  0.23660  Biso   1.000  H
  H30      1.0000 0.75950  0.58970  0.76340  Biso   1.000  H
  H31      1.0000 0.06030  0.40460  0.21900  Biso   1.000  H
  H32      1.0000 0.93970  0.59540  0.78100  Biso   1.000  H
  C35      1.0000 0.13270  0.71330  0.99360  Biso   1.000  C
  C36      1.0000 0.86730  0.28670  0.00640  Biso   1.000  C
  C37      1.0000 0.20100  0.55510  0.02360  Biso   1.000  C
  C38      1.0000 0.79900  0.44490  0.97640  Biso   1.000  C
  H33      1.0000 0.29220  0.52060  0.98670  Biso   1.000  H
  H34      1.0000 0.70780  0.47940  0.01330  Biso   1.000  H
  H35      1.0000 0.12220  0.48610  0.01980  Biso   1.000  H
  H36      1.0000 0.87780  0.51390  0.98020  Biso   1.000  H
  H37      1.0000 0.23250  0.55740  0.08340  Biso   1.000  H
  H38      1.0000 0.76750  0.44260  0.91660  Biso   1.000  H
  C39      1.0000 0.77970  0.65940  0.19980  Biso   1.000  C
  C40      1.0000 0.22030  0.34060  0.80020  Biso   1.000  C
  H39      1.0000 0.75780  0.75780  0.17060  Biso   1.000  H
  H40      1.0000 0.24220  0.24220  0.82940  Biso   1.000  H
  H41      1.0000 0.86070  0.59700  0.16690  Biso   1.000  H
  H42      1.0000 0.13930  0.40300  0.83310  Biso   1.000  H
  H43      1.0000 0.81580  0.67260  0.25780  Biso   1.000  H
  H44      1.0000 0.18420  0.32740  0.74220  Biso   1.000  H
  C41      1.0000 0.62800  0.58100  0.20660  Biso   1.000  C
  C42      1.0000 0.37200  0.41900  0.79340  Biso   1.000  C
  N11      1.0000 0.52060  0.52700  0.20980  Biso   1.000  N
  N12      1.0000 0.47940  0.47300  0.79020  Biso   1.000  N
