data_image0
_cell_length_a       8.5396
_cell_length_b       16.4589
_cell_length_c       16.1176
_cell_angle_alpha    90
_cell_angle_beta     97.415
_cell_angle_gamma    90

_symmetry_space_group_name_H-M    "P 1"
_symmetry_int_tables_number       1

loop_
  _symmetry_equiv_pos_as_xyz
  'x, y, z'

loop_
  _atom_site_label
  _atom_site_occupancy
  _atom_site_fract_x
  _atom_site_fract_y
  _atom_site_fract_z
  _atom_site_thermal_displace_type
  _atom_site_B_iso_or_equiv
  _atom_site_type_symbol
  Cu1      1.0000 0.51913  0.15610  0.29686  Biso   1.000  Cu
  Cu2      1.0000 0.48087  0.65610  0.20314  Biso   1.000  Cu
  Cu3      1.0000 0.48087  0.84390  0.70314  Biso   1.000  Cu
  Cu4      1.0000 0.51913  0.34390  0.79686  Biso   1.000  Cu
  N1       1.0000 0.32560  0.11575  0.34403  Biso   1.000  N
  N2       1.0000 0.67440  0.61575  0.15597  Biso   1.000  N
  N3       1.0000 0.67440  0.88425  0.65597  Biso   1.000  N
  N4       1.0000 0.32560  0.38425  0.84403  Biso   1.000  N
  N5       1.0000 0.89550  0.03545  0.41135  Biso   1.000  N
  N6       1.0000 0.10450  0.53545  0.08865  Biso   1.000  N
  N7       1.0000 0.10450  0.96455  0.58865  Biso   1.000  N
  N8       1.0000 0.89550  0.46455  0.91135  Biso   1.000  N
  H1       1.0000 0.84540  0.07350  0.43330  Biso   1.000  H
  H2       1.0000 0.15460  0.57350  0.06670  Biso   1.000  H
  H3       1.0000 0.15460  0.92650  0.56670  Biso   1.000  H
  H4       1.0000 0.84540  0.42650  0.93330  Biso   1.000  H
  N9       1.0000 0.88400  0.89696  0.37327  Biso   1.000  N
  N10      1.0000 0.11600  0.39696  0.12673  Biso   1.000  N
  N11      1.0000 0.11600  0.10304  0.62673  Biso   1.000  N
  N12      1.0000 0.88400  0.60304  0.87327  Biso   1.000  N
  N13      1.0000 0.86540  0.75676  0.34132  Biso   1.000  N
  N14      1.0000 0.13460  0.25676  0.15868  Biso   1.000  N
  N15      1.0000 0.13460  0.24324  0.65868  Biso   1.000  N
  N16      1.0000 0.86540  0.74324  0.84132  Biso   1.000  N
  H5       1.0000 0.80690  0.71450  0.34390  Biso   1.000  H
  H6       1.0000 0.19310  0.21450  0.15610  Biso   1.000  H
  H7       1.0000 0.19310  0.28550  0.65610  Biso   1.000  H
  H8       1.0000 0.80690  0.78550  0.84390  Biso   1.000  H
  N17      1.0000 0.28780  0.69384  0.25231  Biso   1.000  N
  N18      1.0000 0.71220  0.19384  0.24769  Biso   1.000  N
  N19      1.0000 0.71220  0.30616  0.74769  Biso   1.000  N
  N20      1.0000 0.28780  0.80616  0.75231  Biso   1.000  N
  O1       1.0000 0.53210  0.25015  0.37141  Biso   1.000  O
  O2       1.0000 0.46790  0.75015  0.12859  Biso   1.000  O
  O3       1.0000 0.46790  0.74985  0.62859  Biso   1.000  O
  O4       1.0000 0.53210  0.24985  0.87141  Biso   1.000  O
  O5       1.0000 0.68770  0.16341  0.44643  Biso   1.000  O
  O6       1.0000 0.31230  0.66341  0.05357  Biso   1.000  O
  O7       1.0000 0.31230  0.83659  0.55357  Biso   1.000  O
  O8       1.0000 0.68770  0.33659  0.94643  Biso   1.000  O
  O9       1.0000 0.51000  0.06117  0.22550  Biso   1.000  O
  O10      1.0000 0.49000  0.56117  0.27450  Biso   1.000  O
  O11      1.0000 0.49000  0.93883  0.77450  Biso   1.000  O
  O12      1.0000 0.51000  0.43883  0.72550  Biso   1.000  O
  O13      1.0000 0.32860  0.11818  0.13390  Biso   1.000  O
  O14      1.0000 0.67140  0.61818  0.36610  Biso   1.000  O
  O15      1.0000 0.67140  0.88182  0.86610  Biso   1.000  O
  O16      1.0000 0.32860  0.38182  0.63390  Biso   1.000  O
  C1       1.0000 0.22080  0.16620  0.37290  Biso   1.000  C
  C2       1.0000 0.77920  0.66620  0.12710  Biso   1.000  C
  C3       1.0000 0.77920  0.83380  0.62710  Biso   1.000  C
  C4       1.0000 0.22080  0.33380  0.87290  Biso   1.000  C
  H9       1.0000 0.24460  0.22130  0.37640  Biso   1.000  H
  H10      1.0000 0.75540  0.72130  0.12360  Biso   1.000  H
  H11      1.0000 0.75540  0.77870  0.62360  Biso   1.000  H
  H12      1.0000 0.24460  0.27870  0.87640  Biso   1.000  H
  C5       1.0000 0.08100  0.14090  0.39730  Biso   1.000  C
  C6       1.0000 0.91900  0.64090  0.10270  Biso   1.000  C
  C7       1.0000 0.91900  0.85910  0.60270  Biso   1.000  C
  C8       1.0000 0.08100  0.35910  0.89730  Biso   1.000  C
  H13      1.0000 0.01360  0.17810  0.41780  Biso   1.000  H
  H14      1.0000 0.98640  0.67810  0.08220  Biso   1.000  H
  H15      1.0000 0.98640  0.82190  0.58220  Biso   1.000  H
  H16      1.0000 0.01360  0.32190  0.91780  Biso   1.000  H
  C9       1.0000 0.04010  0.05850  0.39123  Biso   1.000  C
  C10      1.0000 0.95990  0.55850  0.10877  Biso   1.000  C
  C11      1.0000 0.95990  0.94150  0.60877  Biso   1.000  C
  C12      1.0000 0.04010  0.44150  0.89123  Biso   1.000  C
  C13      1.0000 0.15520  0.00630  0.36700  Biso   1.000  C
  C14      1.0000 0.84480  0.50630  0.13300  Biso   1.000  C
  C15      1.0000 0.84480  0.99370  0.63300  Biso   1.000  C
  C16      1.0000 0.15520  0.49370  0.86700  Biso   1.000  C
  H17      1.0000 0.13950  0.95040  0.36680  Biso   1.000  H
  H18      1.0000 0.86050  0.45040  0.13320  Biso   1.000  H
  H19      1.0000 0.86050  0.04960  0.63320  Biso   1.000  H
  H20      1.0000 0.13950  0.54960  0.86680  Biso   1.000  H
  C17      1.0000 0.28850  0.03730  0.34390  Biso   1.000  C
  C18      1.0000 0.71150  0.53730  0.15610  Biso   1.000  C
  C19      1.0000 0.71150  0.96270  0.65610  Biso   1.000  C
  C20      1.0000 0.28850  0.46270  0.84390  Biso   1.000  C
  H21      1.0000 0.36080  0.00090  0.32650  Biso   1.000  H
  H22      1.0000 0.63920  0.50090  0.17350  Biso   1.000  H
  H23      1.0000 0.63920  0.99910  0.67350  Biso   1.000  H
  H24      1.0000 0.36080  0.49910  0.82650  Biso   1.000  H
  C21      1.0000 0.81490  0.96204  0.40277  Biso   1.000  C
  C22      1.0000 0.18510  0.46204  0.09723  Biso   1.000  C
  C23      1.0000 0.18510  0.03796  0.59723  Biso   1.000  C
  C24      1.0000 0.81490  0.53796  0.90277  Biso   1.000  C
  C25      1.0000 0.66270  0.96150  0.42600  Biso   1.000  C
  C26      1.0000 0.33730  0.46150  0.07400  Biso   1.000  C
  C27      1.0000 0.33730  0.03850  0.57400  Biso   1.000  C
  C28      1.0000 0.66270  0.53850  0.92600  Biso   1.000  C
  H25      1.0000 0.61920  0.00810  0.44620  Biso   1.000  H
  H26      1.0000 0.38080  0.50810  0.05380  Biso   1.000  H
  H27      1.0000 0.38080  0.99190  0.55380  Biso   1.000  H
  H28      1.0000 0.61920  0.49190  0.94620  Biso   1.000  H
  C29      1.0000 0.57950  0.88990  0.41830  Biso   1.000  C
  C30      1.0000 0.42050  0.38990  0.08170  Biso   1.000  C
  C31      1.0000 0.42050  0.11010  0.58170  Biso   1.000  C
  C32      1.0000 0.57950  0.61010  0.91830  Biso   1.000  C
  H29      1.0000 0.47800  0.88760  0.43330  Biso   1.000  H
  H30      1.0000 0.52200  0.38760  0.06670  Biso   1.000  H
  H31      1.0000 0.52200  0.11240  0.56670  Biso   1.000  H
  H32      1.0000 0.47800  0.61240  0.93330  Biso   1.000  H
  C33      1.0000 0.64580  0.82210  0.38840  Biso   1.000  C
  C34      1.0000 0.35420  0.32210  0.11160  Biso   1.000  C
  C35      1.0000 0.35420  0.17790  0.61160  Biso   1.000  C
  C36      1.0000 0.64580  0.67790  0.88840  Biso   1.000  C
  H33      1.0000 0.59040  0.77330  0.38220  Biso   1.000  H
  H34      1.0000 0.40960  0.27330  0.11780  Biso   1.000  H
  H35      1.0000 0.40960  0.22670  0.61780  Biso   1.000  H
  H36      1.0000 0.59040  0.72670  0.88220  Biso   1.000  H
  C37      1.0000 0.79940  0.82812  0.36720  Biso   1.000  C
  C38      1.0000 0.20060  0.32812  0.13280  Biso   1.000  C
  C39      1.0000 0.20060  0.17188  0.63280  Biso   1.000  C
  C40      1.0000 0.79940  0.67188  0.86720  Biso   1.000  C
  C41      1.0000 0.00690  0.74120  0.31240  Biso   1.000  C
  C42      1.0000 0.99310  0.24120  0.18760  Biso   1.000  C
  C43      1.0000 0.99310  0.25880  0.68760  Biso   1.000  C
  C44      1.0000 0.00690  0.75880  0.81240  Biso   1.000  C
  C45      1.0000 0.05340  0.65950  0.31070  Biso   1.000  C
  C46      1.0000 0.94660  0.15950  0.18930  Biso   1.000  C
  C47      1.0000 0.94660  0.34050  0.68930  Biso   1.000  C
  C48      1.0000 0.05340  0.84050  0.81070  Biso   1.000  C
  H37      1.0000 0.99120  0.61910  0.33020  Biso   1.000  H
  H38      1.0000 0.00880  0.11910  0.16980  Biso   1.000  H
  H39      1.0000 0.00880  0.38090  0.66980  Biso   1.000  H
  H40      1.0000 0.99120  0.88090  0.83020  Biso   1.000  H
  C49      1.0000 0.19080  0.63960  0.28020  Biso   1.000  C
  C50      1.0000 0.80920  0.13960  0.21980  Biso   1.000  C
  C51      1.0000 0.80920  0.36040  0.71980  Biso   1.000  C
  C52      1.0000 0.19080  0.86040  0.78020  Biso   1.000  C
  H41      1.0000 0.21820  0.58490  0.27890  Biso   1.000  H
  H42      1.0000 0.78180  0.08490  0.22110  Biso   1.000  H
  H43      1.0000 0.78180  0.41510  0.72110  Biso   1.000  H
  H44      1.0000 0.21820  0.91510  0.77890  Biso   1.000  H
  C53      1.0000 0.24170  0.77130  0.25330  Biso   1.000  C
  C54      1.0000 0.75830  0.27130  0.24670  Biso   1.000  C
  C55      1.0000 0.75830  0.22870  0.74670  Biso   1.000  C
  C56      1.0000 0.24170  0.72870  0.75330  Biso   1.000  C
  H45      1.0000 0.30580  0.81040  0.23320  Biso   1.000  H
  H46      1.0000 0.69420  0.31040  0.26680  Biso   1.000  H
  H47      1.0000 0.69420  0.18960  0.76680  Biso   1.000  H
  H48      1.0000 0.30580  0.68960  0.73320  Biso   1.000  H
  C57      1.0000 0.10480  0.79690  0.28230  Biso   1.000  C
  C58      1.0000 0.89520  0.29690  0.21770  Biso   1.000  C
  C59      1.0000 0.89520  0.20310  0.71770  Biso   1.000  C
  C60      1.0000 0.10480  0.70310  0.78230  Biso   1.000  C
  H49      1.0000 0.07900  0.85180  0.28150  Biso   1.000  H
  H50      1.0000 0.92100  0.35180  0.21850  Biso   1.000  H
  H51      1.0000 0.92100  0.14820  0.71850  Biso   1.000  H
  H52      1.0000 0.07900  0.64820  0.78150  Biso   1.000  H
  C61      1.0000 0.62250  0.23090  0.43800  Biso   1.000  C
  C62      1.0000 0.37750  0.73090  0.06200  Biso   1.000  C
  C63      1.0000 0.37750  0.76910  0.56200  Biso   1.000  C
  C64      1.0000 0.62250  0.26910  0.93800  Biso   1.000  C
  C65      1.0000 0.64790  0.29350  0.50560  Biso   1.000  C
  C66      1.0000 0.35210  0.79350  0.99440  Biso   1.000  C
  C67      1.0000 0.35210  0.70650  0.49440  Biso   1.000  C
  C68      1.0000 0.64790  0.20650  0.00560  Biso   1.000  C
  H53      1.0000 0.68830  0.26790  0.55750  Biso   1.000  H
  H54      1.0000 0.31170  0.76790  0.94250  Biso   1.000  H
  H55      1.0000 0.31170  0.73210  0.44250  Biso   1.000  H
  H56      1.0000 0.68830  0.23210  0.05750  Biso   1.000  H
  H57      1.0000 0.54930  0.31960  0.51150  Biso   1.000  H
  H58      1.0000 0.45070  0.81960  0.98850  Biso   1.000  H
  H59      1.0000 0.45070  0.68040  0.48850  Biso   1.000  H
  H60      1.0000 0.54930  0.18040  0.01150  Biso   1.000  H
  H61      1.0000 0.72220  0.33330  0.49140  Biso   1.000  H
  H62      1.0000 0.27780  0.83330  0.00860  Biso   1.000  H
  H63      1.0000 0.27780  0.66670  0.50860  Biso   1.000  H
  H64      1.0000 0.72220  0.16670  0.99140  Biso   1.000  H
  C69      1.0000 0.41110  0.06030  0.15940  Biso   1.000  C
  C70      1.0000 0.58890  0.56030  0.34060  Biso   1.000  C
  C71      1.0000 0.58890  0.93970  0.84060  Biso   1.000  C
  C72      1.0000 0.41110  0.43970  0.65940  Biso   1.000  C
  C73      1.0000 0.39820  0.98270  0.11330  Biso   1.000  C
  C74      1.0000 0.60180  0.48270  0.38670  Biso   1.000  C
  C75      1.0000 0.60180  0.01730  0.88670  Biso   1.000  C
  C76      1.0000 0.39820  0.51730  0.61330  Biso   1.000  C
  H65      1.0000 0.28980  0.96570  0.10460  Biso   1.000  H
  H66      1.0000 0.71020  0.46570  0.39540  Biso   1.000  H
  H67      1.0000 0.71020  0.03430  0.89540  Biso   1.000  H
  H68      1.0000 0.28980  0.53430  0.60460  Biso   1.000  H
  H69      1.0000 0.46050  0.94210  0.14510  Biso   1.000  H
  H70      1.0000 0.53950  0.44210  0.35490  Biso   1.000  H
  H71      1.0000 0.53950  0.05790  0.85490  Biso   1.000  H
  H72      1.0000 0.46050  0.55790  0.64510  Biso   1.000  H
  H73      1.0000 0.43600  0.98970  0.06020  Biso   1.000  H
  H74      1.0000 0.56400  0.48970  0.43980  Biso   1.000  H
  H75      1.0000 0.56400  0.01030  0.93980  Biso   1.000  H
  H76      1.0000 0.43600  0.51030  0.56020  Biso   1.000  H
  Cl1      1.0000 0.04430  0.36060  0.46290  Biso   1.000  Cl
  Cl2      1.0000 0.95570  0.86060  0.03710  Biso   1.000  Cl
  Cl3      1.0000 0.95570  0.63940  0.53710  Biso   1.000  Cl
  Cl4      1.0000 0.04430  0.13940  0.96290  Biso   1.000  Cl
  Cl5      1.0000 0.19490  0.41400  0.34640  Biso   1.000  Cl
  Cl6      1.0000 0.80510  0.91400  0.15360  Biso   1.000  Cl
  Cl7      1.0000 0.80510  0.58600  0.65360  Biso   1.000  Cl
  Cl8      1.0000 0.19490  0.08600  0.84640  Biso   1.000  Cl
  C77      1.0000 0.08700  0.45100  0.42290  Biso   1.000  C
  C78      1.0000 0.91300  0.95100  0.07710  Biso   1.000  C
  C79      1.0000 0.91300  0.54900  0.57710  Biso   1.000  C
  C80      1.0000 0.08700  0.04900  0.92290  Biso   1.000  C
  H77      1.0000 0.15060  0.48490  0.46360  Biso   1.000  H
  H78      1.0000 0.84940  0.98490  0.03640  Biso   1.000  H
  H79      1.0000 0.84940  0.51510  0.53640  Biso   1.000  H
  H80      1.0000 0.15060  0.01510  0.96360  Biso   1.000  H
  H81      1.0000 0.99340  0.48030  0.39930  Biso   1.000  H
  H82      1.0000 0.00660  0.98030  0.10070  Biso   1.000  H
  H83      1.0000 0.00660  0.51970  0.60070  Biso   1.000  H
  H84      1.0000 0.99340  0.01970  0.89930  Biso   1.000  H
