data_image0
_cell_length_a       20.212
_cell_length_b       8.517
_cell_length_c       18.456
_cell_angle_alpha    90
_cell_angle_beta     121.319
_cell_angle_gamma    90

_symmetry_space_group_name_H-M    "P 1"
_symmetry_int_tables_number       1

loop_
  _symmetry_equiv_pos_as_xyz
  'x, y, z'

loop_
  _atom_site_label
  _atom_site_occupancy
  _atom_site_fract_x
  _atom_site_fract_y
  _atom_site_fract_z
  _atom_site_thermal_displace_type
  _atom_site_B_iso_or_equiv
  _atom_site_type_symbol
  Cu1      1.0000 0.25000  0.25000  0.50000  Biso   1.000  Cu
  Cu2      1.0000 0.75000  0.75000  0.50000  Biso   1.000  Cu
  Cu3      1.0000 0.75000  0.25000  0.00000  Biso   1.000  Cu
  Cu4      1.0000 0.25000  0.75000  0.00000  Biso   1.000  Cu
  N1       1.0000 0.19270  0.45600  0.46351  Biso   1.000  N
  N2       1.0000 0.69270  0.95600  0.46351  Biso   1.000  N
  N3       1.0000 0.80730  0.45600  0.03649  Biso   1.000  N
  N4       1.0000 0.30730  0.95600  0.03649  Biso   1.000  N
  N5       1.0000 0.80730  0.54400  0.53649  Biso   1.000  N
  N6       1.0000 0.30730  0.04400  0.53649  Biso   1.000  N
  N7       1.0000 0.19270  0.54400  0.96351  Biso   1.000  N
  N8       1.0000 0.69270  0.04400  0.96351  Biso   1.000  N
  N9       1.0000 0.08570  0.89600  0.39763  Biso   1.000  N
  N10      1.0000 0.58570  0.39600  0.39763  Biso   1.000  N
  N11      1.0000 0.91430  0.89600  0.10237  Biso   1.000  N
  N12      1.0000 0.41430  0.39600  0.10237  Biso   1.000  N
  N13      1.0000 0.91430  0.10400  0.60237  Biso   1.000  N
  N14      1.0000 0.41430  0.60400  0.60237  Biso   1.000  N
  N15      1.0000 0.08570  0.10400  0.89763  Biso   1.000  N
  N16      1.0000 0.58570  0.60400  0.89763  Biso   1.000  N
  H1       1.0000 0.09490  0.94850  0.44170  Biso   1.000  H
  H2       1.0000 0.59490  0.44850  0.44170  Biso   1.000  H
  H3       1.0000 0.90510  0.94850  0.05830  Biso   1.000  H
  H4       1.0000 0.40510  0.44850  0.05830  Biso   1.000  H
  H5       1.0000 0.90510  0.05150  0.55830  Biso   1.000  H
  H6       1.0000 0.40510  0.55150  0.55830  Biso   1.000  H
  H7       1.0000 0.09490  0.05150  0.94170  Biso   1.000  H
  H8       1.0000 0.59490  0.55150  0.94170  Biso   1.000  H
  N17      1.0000 0.00000  0.89380  0.25000  Biso   1.000  N
  N18      1.0000 0.50000  0.39380  0.25000  Biso   1.000  N
  N19      1.0000 0.00000  0.10620  0.75000  Biso   1.000  N
  N20      1.0000 0.50000  0.60620  0.75000  Biso   1.000  N
  O1       1.0000 0.25038  0.24190  0.39406  Biso   1.000  O
  O2       1.0000 0.75038  0.74190  0.39406  Biso   1.000  O
  O3       1.0000 0.74962  0.24190  0.10594  Biso   1.000  O
  O4       1.0000 0.24962  0.74190  0.10594  Biso   1.000  O
  O5       1.0000 0.74962  0.75810  0.60594  Biso   1.000  O
  O6       1.0000 0.24962  0.25810  0.60594  Biso   1.000  O
  O7       1.0000 0.25038  0.75810  0.89406  Biso   1.000  O
  O8       1.0000 0.75038  0.25810  0.89406  Biso   1.000  O
  O9       1.0000 0.35386  0.38550  0.47047  Biso   1.000  O
  O10      1.0000 0.85386  0.88550  0.47047  Biso   1.000  O
  O11      1.0000 0.64614  0.38550  0.02953  Biso   1.000  O
  O12      1.0000 0.14614  0.88550  0.02953  Biso   1.000  O
  O13      1.0000 0.64614  0.61450  0.52953  Biso   1.000  O
  O14      1.0000 0.14614  0.11450  0.52953  Biso   1.000  O
  O15      1.0000 0.35386  0.61450  0.97047  Biso   1.000  O
  O16      1.0000 0.85386  0.11450  0.97047  Biso   1.000  O
  C1       1.0000 0.14858  0.49970  0.38145  Biso   1.000  C
  C2       1.0000 0.64858  0.99970  0.38145  Biso   1.000  C
  C3       1.0000 0.85142  0.49970  0.11855  Biso   1.000  C
  C4       1.0000 0.35142  0.99970  0.11855  Biso   1.000  C
  C5       1.0000 0.85142  0.50030  0.61855  Biso   1.000  C
  C6       1.0000 0.35142  0.00030  0.61855  Biso   1.000  C
  C7       1.0000 0.14858  0.50030  0.88145  Biso   1.000  C
  C8       1.0000 0.64858  0.00030  0.88145  Biso   1.000  C
  H9       1.0000 0.14380  0.42960  0.34030  Biso   1.000  H
  H10      1.0000 0.64380  0.92960  0.34030  Biso   1.000  H
  H11      1.0000 0.85620  0.42960  0.15970  Biso   1.000  H
  H12      1.0000 0.35620  0.92960  0.15970  Biso   1.000  H
  H13      1.0000 0.85620  0.57040  0.65970  Biso   1.000  H
  H14      1.0000 0.35620  0.07040  0.65970  Biso   1.000  H
  H15      1.0000 0.14380  0.57040  0.84030  Biso   1.000  H
  H16      1.0000 0.64380  0.07040  0.84030  Biso   1.000  H
  C9       1.0000 0.11043  0.64030  0.35478  Biso   1.000  C
  C10      1.0000 0.61043  0.14030  0.35478  Biso   1.000  C
  C11      1.0000 0.88957  0.64030  0.14522  Biso   1.000  C
  C12      1.0000 0.38957  0.14030  0.14522  Biso   1.000  C
  C13      1.0000 0.88957  0.35970  0.64522  Biso   1.000  C
  C14      1.0000 0.38957  0.85970  0.64522  Biso   1.000  C
  C15      1.0000 0.11043  0.35970  0.85478  Biso   1.000  C
  C16      1.0000 0.61043  0.85970  0.85478  Biso   1.000  C
  H17      1.0000 0.08020  0.66290  0.29720  Biso   1.000  H
  H18      1.0000 0.58020  0.16290  0.29720  Biso   1.000  H
  H19      1.0000 0.91980  0.66290  0.20280  Biso   1.000  H
  H20      1.0000 0.41980  0.16290  0.20280  Biso   1.000  H
  H21      1.0000 0.91980  0.33710  0.70280  Biso   1.000  H
  H22      1.0000 0.41980  0.83710  0.70280  Biso   1.000  H
  H23      1.0000 0.08020  0.33710  0.79720  Biso   1.000  H
  H24      1.0000 0.58020  0.83710  0.79720  Biso   1.000  H
  C17      1.0000 0.11735  0.74850  0.41434  Biso   1.000  C
  C18      1.0000 0.61735  0.24850  0.41434  Biso   1.000  C
  C19      1.0000 0.88265  0.74850  0.08566  Biso   1.000  C
  C20      1.0000 0.38265  0.24850  0.08566  Biso   1.000  C
  C21      1.0000 0.88265  0.25150  0.58566  Biso   1.000  C
  C22      1.0000 0.38265  0.75150  0.58566  Biso   1.000  C
  C23      1.0000 0.11735  0.25150  0.91434  Biso   1.000  C
  C24      1.0000 0.61735  0.75150  0.91434  Biso   1.000  C
  C25      1.0000 0.16270  0.70420  0.49890  Biso   1.000  C
  C26      1.0000 0.66270  0.20420  0.49890  Biso   1.000  C
  C27      1.0000 0.83730  0.70420  0.00110  Biso   1.000  C
  C28      1.0000 0.33730  0.20420  0.00110  Biso   1.000  C
  C29      1.0000 0.83730  0.29580  0.50110  Biso   1.000  C
  C30      1.0000 0.33730  0.79580  0.50110  Biso   1.000  C
  C31      1.0000 0.16270  0.29580  0.99890  Biso   1.000  C
  C32      1.0000 0.66270  0.79580  0.99890  Biso   1.000  C
  H25      1.0000 0.16960  0.77370  0.54110  Biso   1.000  H
  H26      1.0000 0.66960  0.27370  0.54110  Biso   1.000  H
  H27      1.0000 0.83040  0.77370  0.95890  Biso   1.000  H
  H28      1.0000 0.33040  0.27370  0.95890  Biso   1.000  H
  H29      1.0000 0.83040  0.22630  0.45890  Biso   1.000  H
  H30      1.0000 0.33040  0.72630  0.45890  Biso   1.000  H
  H31      1.0000 0.16960  0.22630  0.04110  Biso   1.000  H
  H32      1.0000 0.66960  0.72630  0.04110  Biso   1.000  H
  C33      1.0000 0.19721  0.56120  0.52064  Biso   1.000  C
  C34      1.0000 0.69721  0.06120  0.52064  Biso   1.000  C
  C35      1.0000 0.80279  0.56120  0.97936  Biso   1.000  C
  C36      1.0000 0.30279  0.06120  0.97936  Biso   1.000  C
  C37      1.0000 0.80279  0.43880  0.47936  Biso   1.000  C
  C38      1.0000 0.30279  0.93880  0.47936  Biso   1.000  C
  C39      1.0000 0.19721  0.43880  0.02064  Biso   1.000  C
  C40      1.0000 0.69721  0.93880  0.02064  Biso   1.000  C
  H33      1.0000 0.22540  0.53420  0.57780  Biso   1.000  H
  H34      1.0000 0.72540  0.03420  0.57780  Biso   1.000  H
  H35      1.0000 0.77460  0.53420  0.92220  Biso   1.000  H
  H36      1.0000 0.27460  0.03420  0.92220  Biso   1.000  H
  H37      1.0000 0.77460  0.46580  0.42220  Biso   1.000  H
  H38      1.0000 0.27460  0.96580  0.42220  Biso   1.000  H
  H39      1.0000 0.22540  0.46580  0.07780  Biso   1.000  H
  H40      1.0000 0.72540  0.96580  0.07780  Biso   1.000  H
  C41      1.0000 0.04118  0.97490  0.32108  Biso   1.000  C
  C42      1.0000 0.54118  0.47490  0.32108  Biso   1.000  C
  C43      1.0000 0.95882  0.97490  0.17892  Biso   1.000  C
  C44      1.0000 0.45882  0.47490  0.17892  Biso   1.000  C
  C45      1.0000 0.95882  0.02510  0.67892  Biso   1.000  C
  C46      1.0000 0.45882  0.52510  0.67892  Biso   1.000  C
  C47      1.0000 0.04118  0.02510  0.82108  Biso   1.000  C
  C48      1.0000 0.54118  0.52510  0.82108  Biso   1.000  C
  C49      1.0000 0.04280  0.13730  0.32450  Biso   1.000  C
  C50      1.0000 0.54280  0.63730  0.32450  Biso   1.000  C
  C51      1.0000 0.95720  0.13730  0.17550  Biso   1.000  C
  C52      1.0000 0.45720  0.63730  0.17550  Biso   1.000  C
  C53      1.0000 0.95720  0.86270  0.67550  Biso   1.000  C
  C54      1.0000 0.45720  0.36270  0.67550  Biso   1.000  C
  C55      1.0000 0.04280  0.86270  0.82450  Biso   1.000  C
  C56      1.0000 0.54280  0.36270  0.82450  Biso   1.000  C
  H41      1.0000 0.07210  0.18990  0.37580  Biso   1.000  H
  H42      1.0000 0.57210  0.68990  0.37580  Biso   1.000  H
  H43      1.0000 0.92790  0.18990  0.12420  Biso   1.000  H
  H44      1.0000 0.42790  0.68990  0.12420  Biso   1.000  H
  H45      1.0000 0.92790  0.81010  0.62420  Biso   1.000  H
  H46      1.0000 0.42790  0.31010  0.62420  Biso   1.000  H
  H47      1.0000 0.07210  0.81010  0.87580  Biso   1.000  H
  H48      1.0000 0.57210  0.31010  0.87580  Biso   1.000  H
  C57      1.0000 0.00000  0.21810  0.25000  Biso   1.000  C
  C58      1.0000 0.50000  0.71810  0.25000  Biso   1.000  C
  C59      1.0000 0.00000  0.78190  0.75000  Biso   1.000  C
  C60      1.0000 0.50000  0.28190  0.75000  Biso   1.000  C
  H49      1.0000 0.00000  0.32730  0.25000  Biso   1.000  H
  H50      1.0000 0.50000  0.82730  0.25000  Biso   1.000  H
  H51      1.0000 0.00000  0.67270  0.75000  Biso   1.000  H
  H52      1.0000 0.50000  0.17270  0.75000  Biso   1.000  H
  C61      1.0000 0.30650  0.32070  0.40200  Biso   1.000  C
  C62      1.0000 0.80650  0.82070  0.40200  Biso   1.000  C
  C63      1.0000 0.69350  0.32070  0.09800  Biso   1.000  C
  C64      1.0000 0.19350  0.82070  0.09800  Biso   1.000  C
  C65      1.0000 0.69350  0.67930  0.59800  Biso   1.000  C
  C66      1.0000 0.19350  0.17930  0.59800  Biso   1.000  C
  C67      1.0000 0.30650  0.67930  0.90200  Biso   1.000  C
  C68      1.0000 0.80650  0.17930  0.90200  Biso   1.000  C
  C69      1.0000 0.31550  0.33620  0.32760  Biso   1.000  C
  C70      1.0000 0.81550  0.83620  0.32760  Biso   1.000  C
  C71      1.0000 0.68450  0.33620  0.17240  Biso   1.000  C
  C72      1.0000 0.18450  0.83620  0.17240  Biso   1.000  C
  C73      1.0000 0.68450  0.66380  0.67240  Biso   1.000  C
  C74      1.0000 0.18450  0.16380  0.67240  Biso   1.000  C
  C75      1.0000 0.31550  0.66380  0.82760  Biso   1.000  C
  C76      1.0000 0.81550  0.16380  0.82760  Biso   1.000  C
  C77      1.0000 0.26140  0.26410  0.25280  Biso   1.000  C
  C78      1.0000 0.76140  0.76410  0.25280  Biso   1.000  C
  C79      1.0000 0.73860  0.26410  0.24720  Biso   1.000  C
  C80      1.0000 0.23860  0.76410  0.24720  Biso   1.000  C
  C81      1.0000 0.73860  0.73590  0.74720  Biso   1.000  C
  C82      1.0000 0.23860  0.23590  0.74720  Biso   1.000  C
  C83      1.0000 0.26140  0.73590  0.75280  Biso   1.000  C
  C84      1.0000 0.76140  0.23590  0.75280  Biso   1.000  C
  H53      1.0000 0.25260  0.15890  0.26450  Biso   1.000  H
  H54      1.0000 0.75260  0.65890  0.26450  Biso   1.000  H
  H55      1.0000 0.74740  0.15890  0.23550  Biso   1.000  H
  H56      1.0000 0.24740  0.65890  0.23550  Biso   1.000  H
  H57      1.0000 0.74740  0.84110  0.73550  Biso   1.000  H
  H58      1.0000 0.24740  0.34110  0.73550  Biso   1.000  H
  H59      1.0000 0.25260  0.84110  0.76450  Biso   1.000  H
  H60      1.0000 0.75260  0.34110  0.76450  Biso   1.000  H
  H61      1.0000 0.28030  0.26140  0.21470  Biso   1.000  H
  H62      1.0000 0.78030  0.76140  0.21470  Biso   1.000  H
  H63      1.0000 0.71970  0.26140  0.28530  Biso   1.000  H
  H64      1.0000 0.21970  0.76140  0.28530  Biso   1.000  H
  H65      1.0000 0.71970  0.73860  0.78530  Biso   1.000  H
  H66      1.0000 0.21970  0.23860  0.78530  Biso   1.000  H
  H67      1.0000 0.28030  0.73860  0.71470  Biso   1.000  H
  H68      1.0000 0.78030  0.23860  0.71470  Biso   1.000  H
  H69      1.0000 0.21370  0.32200  0.22730  Biso   1.000  H
  H70      1.0000 0.71370  0.82200  0.22730  Biso   1.000  H
  H71      1.0000 0.78630  0.32200  0.27270  Biso   1.000  H
  H72      1.0000 0.28630  0.82200  0.27270  Biso   1.000  H
  H73      1.0000 0.78630  0.67800  0.77270  Biso   1.000  H
  H74      1.0000 0.28630  0.17800  0.77270  Biso   1.000  H
  H75      1.0000 0.21370  0.67800  0.72730  Biso   1.000  H
  H76      1.0000 0.71370  0.17800  0.72730  Biso   1.000  H
  C85      1.0000 0.37660  0.42180  0.33430  Biso   1.000  C
  C86      1.0000 0.87660  0.92180  0.33430  Biso   1.000  C
  C87      1.0000 0.62340  0.42180  0.16570  Biso   1.000  C
  C88      1.0000 0.12340  0.92180  0.16570  Biso   1.000  C
  C89      1.0000 0.62340  0.57820  0.66570  Biso   1.000  C
  C90      1.0000 0.12340  0.07820  0.66570  Biso   1.000  C
  C91      1.0000 0.37660  0.57820  0.83430  Biso   1.000  C
  C92      1.0000 0.87660  0.07820  0.83430  Biso   1.000  C
  H77      1.0000 0.38220  0.43220  0.28760  Biso   1.000  H
  H78      1.0000 0.88220  0.93220  0.28760  Biso   1.000  H
  H79      1.0000 0.61780  0.43220  0.21240  Biso   1.000  H
  H80      1.0000 0.11780  0.93220  0.21240  Biso   1.000  H
  H81      1.0000 0.61780  0.56780  0.71240  Biso   1.000  H
  H82      1.0000 0.11780  0.06780  0.71240  Biso   1.000  H
  H83      1.0000 0.38220  0.56780  0.78760  Biso   1.000  H
  H84      1.0000 0.88220  0.06780  0.78760  Biso   1.000  H
  H85      1.0000 0.41210  0.46900  0.38550  Biso   1.000  H
  H86      1.0000 0.91210  0.96900  0.38550  Biso   1.000  H
  H87      1.0000 0.58790  0.46900  0.11450  Biso   1.000  H
  H88      1.0000 0.08790  0.96900  0.11450  Biso   1.000  H
  H89      1.0000 0.58790  0.53100  0.61450  Biso   1.000  H
  H90      1.0000 0.08790  0.03100  0.61450  Biso   1.000  H
  H91      1.0000 0.41210  0.53100  0.88550  Biso   1.000  H
  H92      1.0000 0.91210  0.03100  0.88550  Biso   1.000  H
  O17      1.0000 0.95290  0.47600  0.40450  Biso   1.000  O
  O18      1.0000 0.45290  0.97600  0.40450  Biso   1.000  O
  O19      1.0000 0.04710  0.47600  0.09550  Biso   1.000  O
  O20      1.0000 0.54710  0.97600  0.09550  Biso   1.000  O
  O21      1.0000 0.04710  0.52400  0.59550  Biso   1.000  O
  O22      1.0000 0.54710  0.02400  0.59550  Biso   1.000  O
  O23      1.0000 0.95290  0.52400  0.90450  Biso   1.000  O
  O24      1.0000 0.45290  0.02400  0.90450  Biso   1.000  O
  H93      1.0000 0.91840  0.41360  0.37460  Biso   1.000  H
  H94      1.0000 0.41840  0.91360  0.37460  Biso   1.000  H
  H95      1.0000 0.08160  0.41360  0.12540  Biso   1.000  H
  H96      1.0000 0.58160  0.91360  0.12540  Biso   1.000  H
  H97      1.0000 0.08160  0.58640  0.62540  Biso   1.000  H
  H98      1.0000 0.58160  0.08640  0.62540  Biso   1.000  H
  H99      1.0000 0.91840  0.58640  0.87460  Biso   1.000  H
  H100     1.0000 0.41840  0.08640  0.87460  Biso   1.000  H
  C93      1.0000 0.00450  0.40610  0.47720  Biso   1.000  C
  C94      1.0000 0.50450  0.90610  0.47720  Biso   1.000  C
  C95      1.0000 0.99550  0.40610  0.02280  Biso   1.000  C
  C96      1.0000 0.49550  0.90610  0.02280  Biso   1.000  C
  C97      1.0000 0.99550  0.59390  0.52280  Biso   1.000  C
  C98      1.0000 0.49550  0.09390  0.52280  Biso   1.000  C
  C99      1.0000 0.00450  0.59390  0.97720  Biso   1.000  C
  C100     1.0000 0.50450  0.09390  0.97720  Biso   1.000  C
  H101     1.0000 0.99370  0.43310  0.52060  Biso   1.000  H
  H102     1.0000 0.49370  0.93310  0.52060  Biso   1.000  H
  H103     1.0000 0.00630  0.43310  0.97940  Biso   1.000  H
  H104     1.0000 0.50630  0.93310  0.97940  Biso   1.000  H
  H105     1.0000 0.00630  0.56690  0.47940  Biso   1.000  H
  H106     1.0000 0.50630  0.06690  0.47940  Biso   1.000  H
  H107     1.0000 0.99370  0.56690  0.02060  Biso   1.000  H
  H108     1.0000 0.49370  0.06690  0.02060  Biso   1.000  H
  H109     1.0000 0.05570  0.44080  0.49390  Biso   1.000  H
  H110     1.0000 0.55570  0.94080  0.49390  Biso   1.000  H
  H111     1.0000 0.94430  0.44080  0.00610  Biso   1.000  H
  H112     1.0000 0.44430  0.94080  0.00610  Biso   1.000  H
  H113     1.0000 0.94430  0.55920  0.50610  Biso   1.000  H
  H114     1.0000 0.44430  0.05920  0.50610  Biso   1.000  H
  H115     1.0000 0.05570  0.55920  0.99390  Biso   1.000  H
  H116     1.0000 0.55570  0.05920  0.99390  Biso   1.000  H
  H117     1.0000 0.00110  0.29440  0.46940  Biso   1.000  H
  H118     1.0000 0.50110  0.79440  0.46940  Biso   1.000  H
  H119     1.0000 0.99890  0.29440  0.03060  Biso   1.000  H
  H120     1.0000 0.49890  0.79440  0.03060  Biso   1.000  H
  H121     1.0000 0.99890  0.70560  0.53060  Biso   1.000  H
  H122     1.0000 0.49890  0.20560  0.53060  Biso   1.000  H
  H123     1.0000 0.00110  0.70560  0.96940  Biso   1.000  H
  H124     1.0000 0.50110  0.20560  0.96940  Biso   1.000  H
