data_image0
_cell_length_a       13.337
_cell_length_b       8.622
_cell_length_c       23.425
_cell_angle_alpha    90
_cell_angle_beta     106.032
_cell_angle_gamma    90

_symmetry_space_group_name_H-M    "P 1"
_symmetry_int_tables_number       1

loop_
  _symmetry_equiv_pos_as_xyz
  'x, y, z'

loop_
  _atom_site_label
  _atom_site_occupancy
  _atom_site_fract_x
  _atom_site_fract_y
  _atom_site_fract_z
  _atom_site_thermal_displace_type
  _atom_site_B_iso_or_equiv
  _atom_site_type_symbol
  Cu1      1.0000 0.83784  0.87227  0.97886  Biso   1.000  Cu
  Cu2      1.0000 0.16216  0.37227  0.02114  Biso   1.000  Cu
  Cu3      1.0000 0.64103  0.76678  0.00539  Biso   1.000  Cu
  Cu4      1.0000 0.35897  0.26678  0.99461  Biso   1.000  Cu
  Cu5      1.0000 0.64085  0.22099  0.48076  Biso   1.000  Cu
  Cu6      1.0000 0.35915  0.72099  0.51924  Biso   1.000  Cu
  Cu7      1.0000 0.86657  0.30160  0.50573  Biso   1.000  Cu
  Cu8      1.0000 0.13343  0.80160  0.49427  Biso   1.000  Cu
  C1       1.0000 0.80680  0.90730  0.10020  Biso   1.000  C
  C2       1.0000 0.19320  0.40730  0.89980  Biso   1.000  C
  C3       1.0000 0.56500  0.64950  0.09650  Biso   1.000  C
  C4       1.0000 0.43500  0.14950  0.90350  Biso   1.000  C
  H1       1.0000 0.63340  0.61900  0.12220  Biso   1.000  H
  H2       1.0000 0.36660  0.11900  0.87780  Biso   1.000  H
  C5       1.0000 0.62540  0.92690  0.11300  Biso   1.000  C
  C6       1.0000 0.37460  0.42690  0.88700  Biso   1.000  C
  H3       1.0000 0.59490  0.92340  0.14610  Biso   1.000  H
  H4       1.0000 0.40510  0.42340  0.85390  Biso   1.000  H
  H5       1.0000 0.60840  0.02700  0.09380  Biso   1.000  H
  H6       1.0000 0.39160  0.52700  0.90620  Biso   1.000  H
  C7       1.0000 0.48790  0.64770  0.13480  Biso   1.000  C
  C8       1.0000 0.51210  0.14770  0.86520  Biso   1.000  C
  H7       1.0000 0.51580  0.71030  0.17000  Biso   1.000  H
  H8       1.0000 0.48420  0.21030  0.83000  Biso   1.000  H
  H9       1.0000 0.48070  0.54220  0.14750  Biso   1.000  H
  H10      1.0000 0.51930  0.04220  0.85250  Biso   1.000  H
  C9       1.0000 0.78620  0.92360  0.19840  Biso   1.000  C
  C10      1.0000 0.21380  0.42360  0.80160  Biso   1.000  C
  H11      1.0000 0.74360  0.92540  0.22390  Biso   1.000  H
  H12      1.0000 0.25640  0.42540  0.77610  Biso   1.000  H
  C11      1.0000 0.91530  0.91660  0.12470  Biso   1.000  C
  C12      1.0000 0.08470  0.41660  0.87530  Biso   1.000  C
  H13      1.0000 0.95940  0.91590  0.10010  Biso   1.000  H
  H14      1.0000 0.04060  0.41590  0.89990  Biso   1.000  H
  C13      1.0000 0.95620  0.92690  0.18550  Biso   1.000  C
  C14      1.0000 0.04380  0.42690  0.81450  Biso   1.000  C
  H15      1.0000 0.02810  0.93210  0.20160  Biso   1.000  H
  H16      1.0000 0.97190  0.43210  0.79840  Biso   1.000  H
  C15      1.0000 0.38030  0.70980  0.10110  Biso   1.000  C
  C16      1.0000 0.61970  0.20980  0.89890  Biso   1.000  C
  H17      1.0000 0.35460  0.65350  0.06410  Biso   1.000  H
  H18      1.0000 0.64540  0.15350  0.93590  Biso   1.000  H
  H19      1.0000 0.38590  0.81840  0.09170  Biso   1.000  H
  H20      1.0000 0.61410  0.31840  0.90830  Biso   1.000  H
  C17      1.0000 0.74100  0.91500  0.13670  Biso   1.000  C
  C18      1.0000 0.25900  0.41500  0.86330  Biso   1.000  C
  C19      1.0000 0.89400  0.92960  0.22170  Biso   1.000  C
  C20      1.0000 0.10600  0.42960  0.77830  Biso   1.000  C
  H21      1.0000 0.92310  0.93550  0.26260  Biso   1.000  H
  H22      1.0000 0.07690  0.43550  0.73740  Biso   1.000  H
  N1       1.0000 0.57770  0.80580  0.07070  Biso   1.000  N
  N2       1.0000 0.42230  0.30580  0.92930  Biso   1.000  N
  H23      1.0000 0.51180  0.83940  0.05300  Biso   1.000  H
  H24      1.0000 0.48820  0.33940  0.94700  Biso   1.000  H
  O1       1.0000 0.76460  0.89650  0.04024  Biso   1.000  O
  O2       1.0000 0.23540  0.39650  0.95976  Biso   1.000  O
  O3       1.0000 0.71340  0.74800  0.94450  Biso   1.000  O
  O4       1.0000 0.28660  0.24800  0.05550  Biso   1.000  O
  C21      1.0000 0.67870  0.70330  0.88720  Biso   1.000  C
  C22      1.0000 0.32130  0.20330  0.11280  Biso   1.000  C
  C23      1.0000 0.74730  0.68820  0.85140  Biso   1.000  C
  C24      1.0000 0.25270  0.18820  0.14860  Biso   1.000  C
  C25      1.0000 0.86240  0.71840  0.87550  Biso   1.000  C
  C26      1.0000 0.13760  0.21840  0.12450  Biso   1.000  C
  H25      1.0000 0.89370  0.63890  0.90420  Biso   1.000  H
  H26      1.0000 0.10630  0.13890  0.09580  Biso   1.000  H
  H27      1.0000 0.89530  0.71450  0.84340  Biso   1.000  H
  H28      1.0000 0.10470  0.21450  0.15660  Biso   1.000  H
  C27      1.0000 0.57240  0.67460  0.86190  Biso   1.000  C
  C28      1.0000 0.42760  0.17460  0.13810  Biso   1.000  C
  H29      1.0000 0.52590  0.68920  0.88450  Biso   1.000  H
  H30      1.0000 0.47410  0.18920  0.11550  Biso   1.000  H
  C29      1.0000 0.60310  0.60550  0.76960  Biso   1.000  C
  C30      1.0000 0.39690  0.10550  0.23040  Biso   1.000  C
  H31      1.0000 0.57790  0.57230  0.73050  Biso   1.000  H
  H32      1.0000 0.42210  0.07230  0.26950  Biso   1.000  H
  C31      1.0000 0.53550  0.62470  0.80370  Biso   1.000  C
  C32      1.0000 0.46450  0.12470  0.19630  Biso   1.000  C
  H33      1.0000 0.46480  0.60420  0.78770  Biso   1.000  H
  H34      1.0000 0.53520  0.10420  0.21230  Biso   1.000  H
  C33      1.0000 0.70830  0.63500  0.79290  Biso   1.000  C
  C34      1.0000 0.29170  0.13500  0.20710  Biso   1.000  C
  H35      1.0000 0.75370  0.61950  0.76950  Biso   1.000  H
  H36      1.0000 0.24630  0.11950  0.23050  Biso   1.000  H
  N3       1.0000 0.87970  0.87270  0.90430  Biso   1.000  N
  N4       1.0000 0.12030  0.37270  0.09570  Biso   1.000  N
  H37      1.0000 0.83850  0.94210  0.87910  Biso   1.000  H
  H38      1.0000 0.16150  0.44210  0.12090  Biso   1.000  H
  C35      1.0000 0.53590  0.53360  0.04550  Biso   1.000  C
  C36      1.0000 0.46410  0.03360  0.95450  Biso   1.000  C
  O5       1.0000 0.56560  0.56600  0.99960  Biso   1.000  O
  O6       1.0000 0.43440  0.06600  0.00040  Biso   1.000  O
  O7       1.0000 0.07290  0.14500  0.97670  Biso   1.000  O
  O8       1.0000 0.92710  0.64500  0.02330  Biso   1.000  O
  S1       1.0000 0.28999  0.68880  0.14499  Biso   1.000  S
  S2       1.0000 0.71001  0.18880  0.85501  Biso   1.000  S
  C37      1.0000 0.18760  0.80930  0.10320  Biso   1.000  C
  C38      1.0000 0.81240  0.30930  0.89680  Biso   1.000  C
  H39      1.0000 0.13160  0.81040  0.12160  Biso   1.000  H
  H40      1.0000 0.86840  0.31040  0.87840  Biso   1.000  H
  H41      1.0000 0.16270  0.76970  0.06350  Biso   1.000  H
  H42      1.0000 0.83730  0.26970  0.93650  Biso   1.000  H
  H43      1.0000 0.21330  0.91290  0.10200  Biso   1.000  H
  H44      1.0000 0.78670  0.41290  0.89800  Biso   1.000  H
  C39      1.0000 0.00470  0.04710  0.97040  Biso   1.000  C
  C40      1.0000 0.99530  0.54710  0.02960  Biso   1.000  C
  C41      1.0000 0.98970  0.93150  0.91930  Biso   1.000  C
  C42      1.0000 0.01030  0.43150  0.08070  Biso   1.000  C
  H45      1.0000 0.03670  0.84360  0.93330  Biso   1.000  H
  H46      1.0000 0.96330  0.34360  0.06670  Biso   1.000  H
  O9       1.0000 0.94430  0.03030  0.00390  Biso   1.000  O
  O10      1.0000 0.05570  0.53030  0.99610  Biso   1.000  O
  C43      1.0000 0.71620  0.36920  0.38780  Biso   1.000  C
  C44      1.0000 0.28380  0.86920  0.61220  Biso   1.000  C
  C45      1.0000 0.79720  0.38310  0.36070  Biso   1.000  C
  C46      1.0000 0.20280  0.88310  0.63930  Biso   1.000  C
  H47      1.0000 0.86570  0.37020  0.38370  Biso   1.000  H
  H48      1.0000 0.13430  0.87020  0.61630  Biso   1.000  H
  C47      1.0000 0.61280  0.38880  0.35120  Biso   1.000  C
  C48      1.0000 0.38720  0.88880  0.64880  Biso   1.000  C
  C49      1.0000 0.59710  0.41910  0.29220  Biso   1.000  C
  C50      1.0000 0.40290  0.91910  0.70780  Biso   1.000  C
  H49      1.0000 0.52920  0.43050  0.26820  Biso   1.000  H
  H50      1.0000 0.47080  0.93050  0.73180  Biso   1.000  H
  C51      1.0000 0.77900  0.41430  0.30310  Biso   1.000  C
  C52      1.0000 0.22100  0.91430  0.69690  Biso   1.000  C
  H51      1.0000 0.83490  0.42340  0.28680  Biso   1.000  H
  H52      1.0000 0.16510  0.92340  0.71320  Biso   1.000  H
  C53      1.0000 0.70320  0.19800  0.62560  Biso   1.000  C
  C54      1.0000 0.29680  0.69800  0.37440  Biso   1.000  C
  H53      1.0000 0.63580  0.20670  0.60070  Biso   1.000  H
  H54      1.0000 0.36420  0.70670  0.39930  Biso   1.000  H
  C55      1.0000 0.81930  0.18100  0.72310  Biso   1.000  C
  C56      1.0000 0.18070  0.68100  0.27690  Biso   1.000  C
  H55      1.0000 0.83030  0.17710  0.76410  Biso   1.000  H
  H56      1.0000 0.16970  0.67710  0.23590  Biso   1.000  H
  C57      1.0000 0.78710  0.18400  0.60200  Biso   1.000  C
  C58      1.0000 0.21290  0.68400  0.39800  Biso   1.000  C
  C59      1.0000 0.88720  0.16760  0.63870  Biso   1.000  C
  C60      1.0000 0.11280  0.66760  0.36130  Biso   1.000  C
  C61      1.0000 0.97720  0.13390  0.61360  Biso   1.000  C
  C62      1.0000 0.02280  0.63390  0.38640  Biso   1.000  C
  H57      1.0000 0.04060  0.13030  0.64610  Biso   1.000  H
  H58      1.0000 0.95940  0.63030  0.35390  Biso   1.000  H
  H59      1.0000 0.96710  0.03170  0.59560  Biso   1.000  H
  H60      1.0000 0.03290  0.53170  0.40440  Biso   1.000  H
  C63      1.0000 0.90150  0.16890  0.69910  Biso   1.000  C
  C64      1.0000 0.09850  0.66890  0.30090  Biso   1.000  C
  H61      1.0000 0.96880  0.16140  0.72430  Biso   1.000  H
  H62      1.0000 0.03120  0.66140  0.27570  Biso   1.000  H
  O11      1.0000 0.73470  0.33770  0.44560  Biso   1.000  O
  O12      1.0000 0.26530  0.83770  0.55440  Biso   1.000  O
  O13      1.0000 0.77130  0.18760  0.54210  Biso   1.000  O
  O14      1.0000 0.22870  0.68760  0.45790  Biso   1.000  O
  N5       1.0000 0.99300  0.24620  0.56860  Biso   1.000  N
  N6       1.0000 0.00700  0.74620  0.43140  Biso   1.000  N
  H63      1.0000 0.03630  0.19870  0.55010  Biso   1.000  H
  H64      1.0000 0.96370  0.69870  0.44990  Biso   1.000  H
  C65      1.0000 0.52140  0.37950  0.37690  Biso   1.000  C
  C66      1.0000 0.47860  0.87950  0.62310  Biso   1.000  C
  H65      1.0000 0.52460  0.46400  0.40470  Biso   1.000  H
  H66      1.0000 0.47540  0.96400  0.59530  Biso   1.000  H
  H67      1.0000 0.45690  0.38900  0.34540  Biso   1.000  H
  H68      1.0000 0.54310  0.88900  0.65460  Biso   1.000  H
  N7       1.0000 0.52320  0.22660  0.40830  Biso   1.000  N
  N8       1.0000 0.47680  0.72660  0.59170  Biso   1.000  N
  H69      1.0000 0.53260  0.14980  0.38360  Biso   1.000  H
  H70      1.0000 0.46740  0.64980  0.61640  Biso   1.000  H
  O15      1.0000 0.55630  0.06740  0.50730  Biso   1.000  O
  O16      1.0000 0.44370  0.56740  0.49270  Biso   1.000  O
  O17      1.0000 0.94430  0.49380  0.50060  Biso   1.000  O
  O18      1.0000 0.05570  0.99380  0.49940  Biso   1.000  O
  C67      1.0000 0.02300  0.51530  0.54560  Biso   1.000  C
  C68      1.0000 0.97700  0.01530  0.45440  Biso   1.000  C
  C69      1.0000 0.04680  0.39180  0.59460  Biso   1.000  C
  C70      1.0000 0.95320  0.89180  0.40540  Biso   1.000  C
  H71      1.0000 0.01340  0.42630  0.62480  Biso   1.000  H
  H72      1.0000 0.98660  0.92630  0.37520  Biso   1.000  H
  C71      1.0000 0.46270  0.05950  0.47360  Biso   1.000  C
  C72      1.0000 0.53730  0.55950  0.52640  Biso   1.000  C
  C73      1.0000 0.42930  0.18940  0.42770  Biso   1.000  C
  C74      1.0000 0.57070  0.68940  0.57230  Biso   1.000  C
  H73      1.0000 0.41120  0.28070  0.44770  Biso   1.000  H
  H74      1.0000 0.58880  0.78070  0.55230  Biso   1.000  H
  O19      1.0000 0.48920  0.41570  0.05290  Biso   1.000  O
  O20      1.0000 0.51080  0.91570  0.94710  Biso   1.000  O
  C75      1.0000 0.13100  0.01820  0.86830  Biso   1.000  C
  C76      1.0000 0.86900  0.51820  0.13170  Biso   1.000  C
  H75      1.0000 0.16390  0.07290  0.90480  Biso   1.000  H
  H76      1.0000 0.83610  0.57290  0.09520  Biso   1.000  H
  H77      1.0000 0.13790  0.08250  0.83560  Biso   1.000  H
  H78      1.0000 0.86210  0.58250  0.16440  Biso   1.000  H
  C77      1.0000 0.01450  0.00000  0.86350  Biso   1.000  C
  C78      1.0000 0.98550  0.50000  0.13650  Biso   1.000  C
  H79      1.0000 0.98340  0.93360  0.82990  Biso   1.000  H
  H80      1.0000 0.01660  0.43360  0.17010  Biso   1.000  H
  H81      1.0000 0.98160  0.10090  0.85530  Biso   1.000  H
  H82      1.0000 0.01840  0.60090  0.14470  Biso   1.000  H
  S3       1.0000 0.20110  0.84020  0.86735  Biso   1.000  S
  S4       1.0000 0.79890  0.34020  0.13265  Biso   1.000  S
  C79      1.0000 0.67870  0.43330  0.26700  Biso   1.000  C
  C80      1.0000 0.32130  0.93330  0.73300  Biso   1.000  C
  H83      1.0000 0.66650  0.45510  0.22680  Biso   1.000  H
  H84      1.0000 0.33350  0.95510  0.77320  Biso   1.000  H
  C81      1.0000 0.72080  0.19870  0.68640  Biso   1.000  C
  C82      1.0000 0.27920  0.69870  0.31360  Biso   1.000  C
  H85      1.0000 0.66500  0.21140  0.70260  Biso   1.000  H
  H86      1.0000 0.33500  0.71140  0.29740  Biso   1.000  H
  O21      1.0000 0.07830  0.63520  0.55250  Biso   1.000  O
  O22      1.0000 0.92170  0.13520  0.44750  Biso   1.000  O
  C83      1.0000 0.33490  0.14620  0.37670  Biso   1.000  C
  C84      1.0000 0.66510  0.64620  0.62330  Biso   1.000  C
  H87      1.0000 0.33190  0.21560  0.34360  Biso   1.000  H
  H88      1.0000 0.66810  0.71560  0.65640  Biso   1.000  H
  H89      1.0000 0.34480  0.04190  0.36370  Biso   1.000  H
  H90      1.0000 0.65520  0.54190  0.63630  Biso   1.000  H
  C85      1.0000 0.23210  0.15300  0.39110  Biso   1.000  C
  C86      1.0000 0.76790  0.65300  0.60890  Biso   1.000  C
  H91      1.0000 0.21990  0.25750  0.40300  Biso   1.000  H
  H92      1.0000 0.78010  0.75750  0.59700  Biso   1.000  H
  H93      1.0000 0.23370  0.08390  0.42410  Biso   1.000  H
  H94      1.0000 0.76630  0.58390  0.57590  Biso   1.000  H
  O23      1.0000 0.39970  0.95760  0.47850  Biso   1.000  O
  O24      1.0000 0.60030  0.45760  0.52150  Biso   1.000  O
  S5       1.0000 0.12680  0.09600  0.32700  Biso   1.000  S
  S6       1.0000 0.87320  0.59600  0.67300  Biso   1.000  S
  C87      1.0000 0.07300  0.27100  0.30270  Biso   1.000  C
  C88      1.0000 0.92700  0.77100  0.69730  Biso   1.000  C
  C89      1.0000 0.16080  0.38100  0.62450  Biso   1.000  C
  C90      1.0000 0.83920  0.88100  0.37550  Biso   1.000  C
  H95      1.0000 0.17870  0.47590  0.64740  Biso   1.000  H
  H96      1.0000 0.82130  0.97590  0.35260  Biso   1.000  H
  H97      1.0000 0.16860  0.29770  0.65310  Biso   1.000  H
  H98      1.0000 0.83140  0.79770  0.34690  Biso   1.000  H
  C91      1.0000 0.23030  0.36200  0.60000  Biso   1.000  C
  C92      1.0000 0.76970  0.86200  0.40000  Biso   1.000  C
  H99      1.0000 0.21660  0.42980  0.56570  Biso   1.000  H
  H100     1.0000 0.78340  0.92980  0.43430  Biso   1.000  H
  H101     1.0000 0.22570  0.25600  0.58530  Biso   1.000  H
  H102     1.0000 0.77430  0.75600  0.41470  Biso   1.000  H
  S7       1.0000 0.36550  0.39600  0.64540  Biso   1.000  S
  S8       1.0000 0.63450  0.89600  0.35460  Biso   1.000  S
  C93      1.0000 0.39050  0.31700  0.59810  Biso   1.000  C
  C94      1.0000 0.60950  0.81700  0.40190  Biso   1.000  C
  H103     1.0000 0.46490  0.31000  0.60600  Biso   1.000  H
  H104     1.0000 0.53510  0.81000  0.39400  Biso   1.000  H
  H105     1.0000 0.36240  0.37320  0.56180  Biso   1.000  H
  H106     1.0000 0.63760  0.87320  0.43820  Biso   1.000  H
  H107     1.0000 0.36110  0.21480  0.59440  Biso   1.000  H
  H108     1.0000 0.63890  0.71480  0.40560  Biso   1.000  H
  S9       1.0000 0.10970  0.16700  0.36510  Biso   1.000  S
  S10      1.0000 0.89030  0.66700  0.63490  Biso   1.000  S
  C95      1.0000 0.24670  0.79650  0.94520  Biso   1.000  C
  C96      1.0000 0.75330  0.29650  0.05480  Biso   1.000  C
  H109     1.0000 0.22600  0.87000  0.95200  Biso   1.000  H
  H110     1.0000 0.77400  0.37000  0.04800  Biso   1.000  H
