data_image0
_cell_length_a       17.814
_cell_length_b       8.72
_cell_length_c       18.811
_cell_angle_alpha    90
_cell_angle_beta     100.237
_cell_angle_gamma    90

_symmetry_space_group_name_H-M    "P 1"
_symmetry_int_tables_number       1

loop_
  _symmetry_equiv_pos_as_xyz
  'x, y, z'

loop_
  _atom_site_label
  _atom_site_occupancy
  _atom_site_fract_x
  _atom_site_fract_y
  _atom_site_fract_z
  _atom_site_thermal_displace_type
  _atom_site_B_iso_or_equiv
  _atom_site_type_symbol
  C1       1.0000 0.23270  0.38480  0.30360  Biso   1.000  C
  C2       1.0000 0.73270  0.88480  0.30360  Biso   1.000  C
  C3       1.0000 0.76730  0.38480  0.19640  Biso   1.000  C
  C4       1.0000 0.26730  0.88480  0.19640  Biso   1.000  C
  C5       1.0000 0.76730  0.61520  0.69640  Biso   1.000  C
  C6       1.0000 0.26730  0.11520  0.69640  Biso   1.000  C
  C7       1.0000 0.23270  0.61520  0.80360  Biso   1.000  C
  C8       1.0000 0.73270  0.11520  0.80360  Biso   1.000  C
  H1       1.0000 0.21800  0.47410  0.27270  Biso   1.000  H
  H2       1.0000 0.71800  0.97410  0.27270  Biso   1.000  H
  H3       1.0000 0.78200  0.47410  0.22730  Biso   1.000  H
  H4       1.0000 0.28200  0.97410  0.22730  Biso   1.000  H
  H5       1.0000 0.78200  0.52590  0.72730  Biso   1.000  H
  H6       1.0000 0.28200  0.02590  0.72730  Biso   1.000  H
  H7       1.0000 0.21800  0.52590  0.77270  Biso   1.000  H
  H8       1.0000 0.71800  0.02590  0.77270  Biso   1.000  H
  Cl1      1.0000 0.23240  0.42770  0.39230  Biso   1.000  Cl
  Cl2      1.0000 0.73240  0.92770  0.39230  Biso   1.000  Cl
  Cl3      1.0000 0.76760  0.42770  0.10770  Biso   1.000  Cl
  Cl4      1.0000 0.26760  0.92770  0.10770  Biso   1.000  Cl
  Cl5      1.0000 0.76760  0.57230  0.60770  Biso   1.000  Cl
  Cl6      1.0000 0.26760  0.07230  0.60770  Biso   1.000  Cl
  Cl7      1.0000 0.23240  0.57230  0.89230  Biso   1.000  Cl
  Cl8      1.0000 0.73240  0.07230  0.89230  Biso   1.000  Cl
  Cl9      1.0000 0.17080  0.23600  0.28010  Biso   1.000  Cl
  Cl10     1.0000 0.67080  0.73600  0.28010  Biso   1.000  Cl
  Cl11     1.0000 0.82920  0.23600  0.21990  Biso   1.000  Cl
  Cl12     1.0000 0.32920  0.73600  0.21990  Biso   1.000  Cl
  Cl13     1.0000 0.82920  0.76400  0.71990  Biso   1.000  Cl
  Cl14     1.0000 0.32920  0.26400  0.71990  Biso   1.000  Cl
  Cl15     1.0000 0.17080  0.76400  0.78010  Biso   1.000  Cl
  Cl16     1.0000 0.67080  0.26400  0.78010  Biso   1.000  Cl
  Cl17     1.0000 0.32410  0.32290  0.29650  Biso   1.000  Cl
  Cl18     1.0000 0.82410  0.82290  0.29650  Biso   1.000  Cl
  Cl19     1.0000 0.67590  0.32290  0.20350  Biso   1.000  Cl
  Cl20     1.0000 0.17590  0.82290  0.20350  Biso   1.000  Cl
  Cl21     1.0000 0.67590  0.67710  0.70350  Biso   1.000  Cl
  Cl22     1.0000 0.17590  0.17710  0.70350  Biso   1.000  Cl
  Cl23     1.0000 0.32410  0.67710  0.79650  Biso   1.000  Cl
  Cl24     1.0000 0.82410  0.17710  0.79650  Biso   1.000  Cl
  C9       1.0000 0.26500  0.28100  0.34900  Biso   1.000  C
  C10      1.0000 0.76500  0.78100  0.34900  Biso   1.000  C
  C11      1.0000 0.73500  0.28100  0.15100  Biso   1.000  C
  C12      1.0000 0.23500  0.78100  0.15100  Biso   1.000  C
  C13      1.0000 0.73500  0.71900  0.65100  Biso   1.000  C
  C14      1.0000 0.23500  0.21900  0.65100  Biso   1.000  C
  C15      1.0000 0.26500  0.71900  0.84900  Biso   1.000  C
  C16      1.0000 0.76500  0.21900  0.84900  Biso   1.000  C
  H9       1.0000 0.28460  0.22870  0.39490  Biso   1.000  H
  H10      1.0000 0.78460  0.72870  0.39490  Biso   1.000  H
  H11      1.0000 0.71540  0.22870  0.10510  Biso   1.000  H
  H12      1.0000 0.21540  0.72870  0.10510  Biso   1.000  H
  H13      1.0000 0.71540  0.77130  0.60510  Biso   1.000  H
  H14      1.0000 0.21540  0.27130  0.60510  Biso   1.000  H
  H15      1.0000 0.28460  0.77130  0.89490  Biso   1.000  H
  H16      1.0000 0.78460  0.27130  0.89490  Biso   1.000  H
  Cl25     1.0000 0.30700  0.46800  0.35000  Biso   1.000  Cl
  Cl26     1.0000 0.80700  0.96800  0.35000  Biso   1.000  Cl
  Cl27     1.0000 0.69300  0.46800  0.15000  Biso   1.000  Cl
  Cl28     1.0000 0.19300  0.96800  0.15000  Biso   1.000  Cl
  Cl29     1.0000 0.69300  0.53200  0.65000  Biso   1.000  Cl
  Cl30     1.0000 0.19300  0.03200  0.65000  Biso   1.000  Cl
  Cl31     1.0000 0.30700  0.53200  0.85000  Biso   1.000  Cl
  Cl32     1.0000 0.80700  0.03200  0.85000  Biso   1.000  Cl
  Cl33     1.0000 0.16400  0.30100  0.33800  Biso   1.000  Cl
  Cl34     1.0000 0.66400  0.80100  0.33800  Biso   1.000  Cl
  Cl35     1.0000 0.83600  0.30100  0.16200  Biso   1.000  Cl
  Cl36     1.0000 0.33600  0.80100  0.16200  Biso   1.000  Cl
  Cl37     1.0000 0.83600  0.69900  0.66200  Biso   1.000  Cl
  Cl38     1.0000 0.33600  0.19900  0.66200  Biso   1.000  Cl
  Cl39     1.0000 0.16400  0.69900  0.83800  Biso   1.000  Cl
  Cl40     1.0000 0.66400  0.19900  0.83800  Biso   1.000  Cl
  Cl41     1.0000 0.28800  0.17500  0.27600  Biso   1.000  Cl
  Cl42     1.0000 0.78800  0.67500  0.27600  Biso   1.000  Cl
  Cl43     1.0000 0.71200  0.17500  0.22400  Biso   1.000  Cl
  Cl44     1.0000 0.21200  0.67500  0.22400  Biso   1.000  Cl
  Cl45     1.0000 0.71200  0.82500  0.72400  Biso   1.000  Cl
  Cl46     1.0000 0.21200  0.32500  0.72400  Biso   1.000  Cl
  Cl47     1.0000 0.28800  0.82500  0.77600  Biso   1.000  Cl
  Cl48     1.0000 0.78800  0.32500  0.77600  Biso   1.000  Cl
  Cu1      1.0000 0.00000  0.50000  0.00000  Biso   1.000  Cu
  Cu2      1.0000 0.50000  0.00000  0.00000  Biso   1.000  Cu
  Cu3      1.0000 0.00000  0.50000  0.50000  Biso   1.000  Cu
  Cu4      1.0000 0.50000  0.00000  0.50000  Biso   1.000  Cu
  O1       1.0000 0.10120  0.50540  0.06120  Biso   1.000  O
  O2       1.0000 0.60120  0.00540  0.06120  Biso   1.000  O
  O3       1.0000 0.89880  0.50540  0.43880  Biso   1.000  O
  O4       1.0000 0.39880  0.00540  0.43880  Biso   1.000  O
  O5       1.0000 0.89880  0.49460  0.93880  Biso   1.000  O
  O6       1.0000 0.39880  0.99460  0.93880  Biso   1.000  O
  O7       1.0000 0.10120  0.49460  0.56120  Biso   1.000  O
  O8       1.0000 0.60120  0.99460  0.56120  Biso   1.000  O
  O9       1.0000 0.12930  0.34490  0.97980  Biso   1.000  O
  O10      1.0000 0.62930  0.84490  0.97980  Biso   1.000  O
  O11      1.0000 0.87070  0.34490  0.52020  Biso   1.000  O
  O12      1.0000 0.37070  0.84490  0.52020  Biso   1.000  O
  O13      1.0000 0.87070  0.65510  0.02020  Biso   1.000  O
  O14      1.0000 0.37070  0.15510  0.02020  Biso   1.000  O
  O15      1.0000 0.12930  0.65510  0.47980  Biso   1.000  O
  O16      1.0000 0.62930  0.15510  0.47980  Biso   1.000  O
  N1       1.0000 0.97730  0.30100  0.04650  Biso   1.000  N
  N2       1.0000 0.47730  0.80100  0.04650  Biso   1.000  N
  N3       1.0000 0.02270  0.30100  0.45350  Biso   1.000  N
  N4       1.0000 0.52270  0.80100  0.45350  Biso   1.000  N
  N5       1.0000 0.02270  0.69900  0.95350  Biso   1.000  N
  N6       1.0000 0.52270  0.19900  0.95350  Biso   1.000  N
  N7       1.0000 0.97730  0.69900  0.54650  Biso   1.000  N
  N8       1.0000 0.47730  0.19900  0.54650  Biso   1.000  N
  N9       1.0000 0.94200  0.86490  0.12670  Biso   1.000  N
  N10      1.0000 0.44200  0.36490  0.12670  Biso   1.000  N
  N11      1.0000 0.05800  0.86490  0.37330  Biso   1.000  N
  N12      1.0000 0.55800  0.36490  0.37330  Biso   1.000  N
  N13      1.0000 0.05800  0.13510  0.87330  Biso   1.000  N
  N14      1.0000 0.55800  0.63510  0.87330  Biso   1.000  N
  N15      1.0000 0.94200  0.13510  0.62670  Biso   1.000  N
  N16      1.0000 0.44200  0.63510  0.62670  Biso   1.000  N
  H17      1.0000 0.91040  0.81190  0.09650  Biso   1.000  H
  H18      1.0000 0.41040  0.31190  0.09650  Biso   1.000  H
  H19      1.0000 0.08960  0.81190  0.40350  Biso   1.000  H
  H20      1.0000 0.58960  0.31190  0.40350  Biso   1.000  H
  H21      1.0000 0.08960  0.18810  0.90350  Biso   1.000  H
  H22      1.0000 0.58960  0.68810  0.90350  Biso   1.000  H
  H23      1.0000 0.91040  0.18810  0.59650  Biso   1.000  H
  H24      1.0000 0.41040  0.68810  0.59650  Biso   1.000  H
  N17      1.0000 0.00000  0.86730  0.25000  Biso   1.000  N
  N18      1.0000 0.50000  0.36730  0.25000  Biso   1.000  N
  N19      1.0000 0.00000  0.13270  0.75000  Biso   1.000  N
  N20      1.0000 0.50000  0.63270  0.75000  Biso   1.000  N
  C17      1.0000 0.93120  0.19520  0.00890  Biso   1.000  C
  C18      1.0000 0.43120  0.69520  0.00890  Biso   1.000  C
  C19      1.0000 0.06880  0.19520  0.49110  Biso   1.000  C
  C20      1.0000 0.56880  0.69520  0.49110  Biso   1.000  C
  C21      1.0000 0.06880  0.80480  0.99110  Biso   1.000  C
  C22      1.0000 0.56880  0.30480  0.99110  Biso   1.000  C
  C23      1.0000 0.93120  0.80480  0.50890  Biso   1.000  C
  C24      1.0000 0.43120  0.30480  0.50890  Biso   1.000  C
  H25      1.0000 0.90640  0.22060  0.96260  Biso   1.000  H
  H26      1.0000 0.40640  0.72060  0.96260  Biso   1.000  H
  H27      1.0000 0.09360  0.22060  0.53740  Biso   1.000  H
  H28      1.0000 0.59360  0.72060  0.53740  Biso   1.000  H
  H29      1.0000 0.09360  0.77940  0.03740  Biso   1.000  H
  H30      1.0000 0.59360  0.27940  0.03740  Biso   1.000  H
  H31      1.0000 0.90640  0.77940  0.46260  Biso   1.000  H
  H32      1.0000 0.40640  0.27940  0.46260  Biso   1.000  H
  C25      1.0000 0.91870  0.05270  0.03490  Biso   1.000  C
  C26      1.0000 0.41870  0.55270  0.03490  Biso   1.000  C
  C27      1.0000 0.08130  0.05270  0.46510  Biso   1.000  C
  C28      1.0000 0.58130  0.55270  0.46510  Biso   1.000  C
  C29      1.0000 0.08130  0.94730  0.96510  Biso   1.000  C
  C30      1.0000 0.58130  0.44730  0.96510  Biso   1.000  C
  C31      1.0000 0.91870  0.94730  0.53490  Biso   1.000  C
  C32      1.0000 0.41870  0.44730  0.53490  Biso   1.000  C
  H33      1.0000 0.88670  0.98410  0.00630  Biso   1.000  H
  H34      1.0000 0.38670  0.48410  0.00630  Biso   1.000  H
  H35      1.0000 0.11330  0.98410  0.49370  Biso   1.000  H
  H36      1.0000 0.61330  0.48410  0.49370  Biso   1.000  H
  H37      1.0000 0.11330  0.01590  0.99370  Biso   1.000  H
  H38      1.0000 0.61330  0.51590  0.99370  Biso   1.000  H
  H39      1.0000 0.88670  0.01590  0.50630  Biso   1.000  H
  H40      1.0000 0.38670  0.51590  0.50630  Biso   1.000  H
  C33      1.0000 0.95400  0.01010  0.10450  Biso   1.000  C
  C34      1.0000 0.45400  0.51010  0.10450  Biso   1.000  C
  C35      1.0000 0.04600  0.01010  0.39550  Biso   1.000  C
  C36      1.0000 0.54600  0.51010  0.39550  Biso   1.000  C
  C37      1.0000 0.04600  0.98990  0.89550  Biso   1.000  C
  C38      1.0000 0.54600  0.48990  0.89550  Biso   1.000  C
  C39      1.0000 0.95400  0.98990  0.60450  Biso   1.000  C
  C40      1.0000 0.45400  0.48990  0.60450  Biso   1.000  C
  C41      1.0000 0.00250  0.11890  0.14420  Biso   1.000  C
  C42      1.0000 0.50250  0.61890  0.14420  Biso   1.000  C
  C43      1.0000 0.99750  0.11890  0.35580  Biso   1.000  C
  C44      1.0000 0.49750  0.61890  0.35580  Biso   1.000  C
  C45      1.0000 0.99750  0.88110  0.85580  Biso   1.000  C
  C46      1.0000 0.49750  0.38110  0.85580  Biso   1.000  C
  C47      1.0000 0.00250  0.88110  0.64420  Biso   1.000  C
  C48      1.0000 0.50250  0.38110  0.64420  Biso   1.000  C
  H41      1.0000 0.02750  0.09730  0.19090  Biso   1.000  H
  H42      1.0000 0.52750  0.59730  0.19090  Biso   1.000  H
  H43      1.0000 0.97250  0.09730  0.30910  Biso   1.000  H
  H44      1.0000 0.47250  0.59730  0.30910  Biso   1.000  H
  H45      1.0000 0.97250  0.90270  0.80910  Biso   1.000  H
  H46      1.0000 0.47250  0.40270  0.80910  Biso   1.000  H
  H47      1.0000 0.02750  0.90270  0.69090  Biso   1.000  H
  H48      1.0000 0.52750  0.40270  0.69090  Biso   1.000  H
  C49      1.0000 0.01220  0.25780  0.11260  Biso   1.000  C
  C50      1.0000 0.51220  0.75780  0.11260  Biso   1.000  C
  C51      1.0000 0.98780  0.25780  0.38740  Biso   1.000  C
  C52      1.0000 0.48780  0.75780  0.38740  Biso   1.000  C
  C53      1.0000 0.98780  0.74220  0.88740  Biso   1.000  C
  C54      1.0000 0.48780  0.24220  0.88740  Biso   1.000  C
  C55      1.0000 0.01220  0.74220  0.61260  Biso   1.000  C
  C56      1.0000 0.51220  0.24220  0.61260  Biso   1.000  C
  H49      1.0000 0.04560  0.32740  0.13900  Biso   1.000  H
  H50      1.0000 0.54560  0.82740  0.13900  Biso   1.000  H
  H51      1.0000 0.95440  0.32740  0.36100  Biso   1.000  H
  H52      1.0000 0.45440  0.82740  0.36100  Biso   1.000  H
  H53      1.0000 0.95440  0.67260  0.86100  Biso   1.000  H
  H54      1.0000 0.45440  0.17260  0.86100  Biso   1.000  H
  H55      1.0000 0.04560  0.67260  0.63900  Biso   1.000  H
  H56      1.0000 0.54560  0.17260  0.63900  Biso   1.000  H
  C57      1.0000 0.97270  0.78720  0.19070  Biso   1.000  C
  C58      1.0000 0.47270  0.28720  0.19070  Biso   1.000  C
  C59      1.0000 0.02730  0.78720  0.30930  Biso   1.000  C
  C60      1.0000 0.52730  0.28720  0.30930  Biso   1.000  C
  C61      1.0000 0.02730  0.21280  0.80930  Biso   1.000  C
  C62      1.0000 0.52730  0.71280  0.80930  Biso   1.000  C
  C63      1.0000 0.97270  0.21280  0.69070  Biso   1.000  C
  C64      1.0000 0.47270  0.71280  0.69070  Biso   1.000  C
  C65      1.0000 0.97040  0.62840  0.18780  Biso   1.000  C
  C66      1.0000 0.47040  0.12840  0.18780  Biso   1.000  C
  C67      1.0000 0.02960  0.62840  0.31220  Biso   1.000  C
  C68      1.0000 0.52960  0.12840  0.31220  Biso   1.000  C
  C69      1.0000 0.02960  0.37160  0.81220  Biso   1.000  C
  C70      1.0000 0.52960  0.87160  0.81220  Biso   1.000  C
  C71      1.0000 0.97040  0.37160  0.68780  Biso   1.000  C
  C72      1.0000 0.47040  0.87160  0.68780  Biso   1.000  C
  H57      1.0000 0.94970  0.57660  0.14560  Biso   1.000  H
  H58      1.0000 0.44970  0.07660  0.14560  Biso   1.000  H
  H59      1.0000 0.05030  0.57660  0.35440  Biso   1.000  H
  H60      1.0000 0.55030  0.07660  0.35440  Biso   1.000  H
  H61      1.0000 0.05030  0.42340  0.85440  Biso   1.000  H
  H62      1.0000 0.55030  0.92340  0.85440  Biso   1.000  H
  H63      1.0000 0.94970  0.42340  0.64560  Biso   1.000  H
  H64      1.0000 0.44970  0.92340  0.64560  Biso   1.000  H
  C73      1.0000 0.00000  0.55120  0.25000  Biso   1.000  C
  C74      1.0000 0.50000  0.05120  0.25000  Biso   1.000  C
  C75      1.0000 0.00000  0.44880  0.75000  Biso   1.000  C
  C76      1.0000 0.50000  0.94880  0.75000  Biso   1.000  C
  H65      1.0000 0.00000  0.44460  0.25000  Biso   1.000  H
  H66      1.0000 0.50000  0.94460  0.25000  Biso   1.000  H
  H67      1.0000 0.00000  0.55540  0.75000  Biso   1.000  H
  H68      1.0000 0.50000  0.05540  0.75000  Biso   1.000  H
  C77      1.0000 0.22600  0.40660  0.07780  Biso   1.000  C
  C78      1.0000 0.72600  0.90660  0.07780  Biso   1.000  C
  C79      1.0000 0.77400  0.40660  0.42220  Biso   1.000  C
  C80      1.0000 0.27400  0.90660  0.42220  Biso   1.000  C
  C81      1.0000 0.77400  0.59340  0.92220  Biso   1.000  C
  C82      1.0000 0.27400  0.09340  0.92220  Biso   1.000  C
  C83      1.0000 0.22600  0.59340  0.57780  Biso   1.000  C
  C84      1.0000 0.72600  0.09340  0.57780  Biso   1.000  C
  H69      1.0000 0.25540  0.33710  0.05430  Biso   1.000  H
  H70      1.0000 0.75540  0.83710  0.05430  Biso   1.000  H
  H71      1.0000 0.74460  0.33710  0.44570  Biso   1.000  H
  H72      1.0000 0.24460  0.83710  0.44570  Biso   1.000  H
  H73      1.0000 0.74460  0.66290  0.94570  Biso   1.000  H
  H74      1.0000 0.24460  0.16290  0.94570  Biso   1.000  H
  H75      1.0000 0.25540  0.66290  0.55430  Biso   1.000  H
  H76      1.0000 0.75540  0.16290  0.55430  Biso   1.000  H
  H77      1.0000 0.22410  0.36970  0.12560  Biso   1.000  H
  H78      1.0000 0.72410  0.86970  0.12560  Biso   1.000  H
  H79      1.0000 0.77590  0.36970  0.37440  Biso   1.000  H
  H80      1.0000 0.27590  0.86970  0.37440  Biso   1.000  H
  H81      1.0000 0.77590  0.63030  0.87440  Biso   1.000  H
  H82      1.0000 0.27590  0.13030  0.87440  Biso   1.000  H
  H83      1.0000 0.22410  0.63030  0.62560  Biso   1.000  H
  H84      1.0000 0.72410  0.13030  0.62560  Biso   1.000  H
  H85      1.0000 0.24940  0.50620  0.08100  Biso   1.000  H
  H86      1.0000 0.74940  0.00620  0.08100  Biso   1.000  H
  H87      1.0000 0.75060  0.50620  0.41900  Biso   1.000  H
  H88      1.0000 0.25060  0.00620  0.41900  Biso   1.000  H
  H89      1.0000 0.75060  0.49380  0.91900  Biso   1.000  H
  H90      1.0000 0.25060  0.99380  0.91900  Biso   1.000  H
  H91      1.0000 0.24940  0.49380  0.58100  Biso   1.000  H
  H92      1.0000 0.74940  0.99380  0.58100  Biso   1.000  H
  C85      1.0000 0.14800  0.41730  0.03600  Biso   1.000  C
  C86      1.0000 0.64800  0.91730  0.03600  Biso   1.000  C
  C87      1.0000 0.85200  0.41730  0.46400  Biso   1.000  C
  C88      1.0000 0.35200  0.91730  0.46400  Biso   1.000  C
  C89      1.0000 0.85200  0.58270  0.96400  Biso   1.000  C
  C90      1.0000 0.35200  0.08270  0.96400  Biso   1.000  C
  C91      1.0000 0.14800  0.58270  0.53600  Biso   1.000  C
  C92      1.0000 0.64800  0.08270  0.53600  Biso   1.000  C
