data_image0
_cell_length_a       10.9824
_cell_length_b       11.2924
_cell_length_c       15.1189
_cell_angle_alpha    90
_cell_angle_beta     110.331
_cell_angle_gamma    90

_symmetry_space_group_name_H-M    "P 1"
_symmetry_int_tables_number       1

loop_
  _symmetry_equiv_pos_as_xyz
  'x, y, z'

loop_
  _atom_site_label
  _atom_site_occupancy
  _atom_site_fract_x
  _atom_site_fract_y
  _atom_site_fract_z
  _atom_site_thermal_displace_type
  _atom_site_B_iso_or_equiv
  _atom_site_type_symbol
  Cu1      1.0000 0.74250  0.30566  0.18344  Biso   1.000  Cu
  Cu2      1.0000 0.25750  0.80566  0.31656  Biso   1.000  Cu
  Cu3      1.0000 0.25750  0.69434  0.81656  Biso   1.000  Cu
  Cu4      1.0000 0.74250  0.19434  0.68344  Biso   1.000  Cu
  P1       1.0000 0.87417  0.29056  0.03360  Biso   1.000  P
  P2       1.0000 0.12583  0.79056  0.46640  Biso   1.000  P
  P3       1.0000 0.12583  0.70944  0.96640  Biso   1.000  P
  P4       1.0000 0.87417  0.20944  0.53360  Biso   1.000  P
  S1       1.0000 0.33196  0.04087  0.19138  Biso   1.000  S
  S2       1.0000 0.66804  0.54087  0.30862  Biso   1.000  S
  S3       1.0000 0.66804  0.95913  0.80862  Biso   1.000  S
  S4       1.0000 0.33196  0.45913  0.69138  Biso   1.000  S
  N1       1.0000 0.92220  0.28330  0.27460  Biso   1.000  N
  N2       1.0000 0.07780  0.78330  0.22540  Biso   1.000  N
  N3       1.0000 0.07780  0.71670  0.72540  Biso   1.000  N
  N4       1.0000 0.92220  0.21670  0.77460  Biso   1.000  N
  N5       1.0000 0.56600  0.20330  0.58510  Biso   1.000  N
  N6       1.0000 0.43400  0.70330  0.91490  Biso   1.000  N
  N7       1.0000 0.43400  0.79670  0.41490  Biso   1.000  N
  N8       1.0000 0.56600  0.29670  0.08510  Biso   1.000  N
  C1       1.0000 0.04810  0.28550  0.09590  Biso   1.000  C
  C2       1.0000 0.95190  0.78550  0.40410  Biso   1.000  C
  C3       1.0000 0.95190  0.71450  0.90410  Biso   1.000  C
  C4       1.0000 0.04810  0.21450  0.59590  Biso   1.000  C
  C5       1.0000 0.11690  0.18010  0.11250  Biso   1.000  C
  C6       1.0000 0.88310  0.68010  0.38750  Biso   1.000  C
  C7       1.0000 0.88310  0.81990  0.88750  Biso   1.000  C
  C8       1.0000 0.11690  0.31990  0.61250  Biso   1.000  C
  H1       1.0000 0.07470  0.10980  0.08770  Biso   1.000  H
  H2       1.0000 0.92530  0.60980  0.41230  Biso   1.000  H
  H3       1.0000 0.92530  0.89020  0.91230  Biso   1.000  H
  H4       1.0000 0.07470  0.39020  0.58770  Biso   1.000  H
  C9       1.0000 0.24870  0.17890  0.16610  Biso   1.000  C
  C10      1.0000 0.75130  0.67890  0.33390  Biso   1.000  C
  C11      1.0000 0.75130  0.82110  0.83390  Biso   1.000  C
  C12      1.0000 0.24870  0.32110  0.66610  Biso   1.000  C
  C13      1.0000 0.31230  0.28220  0.20270  Biso   1.000  C
  C14      1.0000 0.68770  0.78220  0.29730  Biso   1.000  C
  C15      1.0000 0.68770  0.71780  0.79730  Biso   1.000  C
  C16      1.0000 0.31230  0.21780  0.70270  Biso   1.000  C
  H5       1.0000 0.39970  0.28070  0.24000  Biso   1.000  H
  H6       1.0000 0.60030  0.78070  0.26000  Biso   1.000  H
  H7       1.0000 0.60030  0.71930  0.76000  Biso   1.000  H
  H8       1.0000 0.39970  0.21930  0.74000  Biso   1.000  H
  C17      1.0000 0.24580  0.38790  0.18370  Biso   1.000  C
  C18      1.0000 0.75420  0.88790  0.31630  Biso   1.000  C
  C19      1.0000 0.75420  0.61210  0.81630  Biso   1.000  C
  C20      1.0000 0.24580  0.11210  0.68370  Biso   1.000  C
  H9       1.0000 0.28930  0.45820  0.20700  Biso   1.000  H
  H10      1.0000 0.71070  0.95820  0.29300  Biso   1.000  H
  H11      1.0000 0.71070  0.54180  0.79300  Biso   1.000  H
  H12      1.0000 0.28930  0.04180  0.70700  Biso   1.000  H
  C21      1.0000 0.11440  0.39050  0.13010  Biso   1.000  C
  C22      1.0000 0.88560  0.89050  0.36990  Biso   1.000  C
  C23      1.0000 0.88560  0.60950  0.86990  Biso   1.000  C
  C24      1.0000 0.11440  0.10950  0.63010  Biso   1.000  C
  H13      1.0000 0.07050  0.46240  0.11700  Biso   1.000  H
  H14      1.0000 0.92950  0.96240  0.38300  Biso   1.000  H
  H15      1.0000 0.92950  0.53760  0.88300  Biso   1.000  H
  H16      1.0000 0.07050  0.03760  0.61700  Biso   1.000  H
  C25      1.0000 0.99480  0.37330  0.32240  Biso   1.000  C
  C26      1.0000 0.00520  0.87330  0.17760  Biso   1.000  C
  C27      1.0000 0.00520  0.62670  0.67760  Biso   1.000  C
  C28      1.0000 0.99480  0.12670  0.82240  Biso   1.000  C
  H17      1.0000 0.95810  0.44840  0.31620  Biso   1.000  H
  H18      1.0000 0.04190  0.94840  0.18380  Biso   1.000  H
  H19      1.0000 0.04190  0.55160  0.68380  Biso   1.000  H
  H20      1.0000 0.95810  0.05160  0.81620  Biso   1.000  H
  C29      1.0000 0.12170  0.35870  0.38040  Biso   1.000  C
  C30      1.0000 0.87830  0.85870  0.11960  Biso   1.000  C
  C31      1.0000 0.87830  0.64130  0.61960  Biso   1.000  C
  C32      1.0000 0.12170  0.14130  0.88040  Biso   1.000  C
  H21      1.0000 0.16930  0.42370  0.41180  Biso   1.000  H
  H22      1.0000 0.83070  0.92370  0.08820  Biso   1.000  H
  H23      1.0000 0.83070  0.57630  0.58820  Biso   1.000  H
  H24      1.0000 0.16930  0.07630  0.91180  Biso   1.000  H
  C33      1.0000 0.40580  0.32010  0.47180  Biso   1.000  C
  C34      1.0000 0.59420  0.82010  0.02820  Biso   1.000  C
  C35      1.0000 0.59420  0.67990  0.52820  Biso   1.000  C
  C36      1.0000 0.40580  0.17990  0.97180  Biso   1.000  C
  H25      1.0000 0.38410  0.39170  0.43980  Biso   1.000  H
  H26      1.0000 0.61590  0.89170  0.06020  Biso   1.000  H
  H27      1.0000 0.61590  0.60830  0.56020  Biso   1.000  H
  H28      1.0000 0.38410  0.10830  0.93980  Biso   1.000  H
  C37      1.0000 0.52860  0.30210  0.53640  Biso   1.000  C
  C38      1.0000 0.47140  0.80210  0.96360  Biso   1.000  C
  C39      1.0000 0.47140  0.69790  0.46360  Biso   1.000  C
  C40      1.0000 0.52860  0.19790  0.03640  Biso   1.000  C
  H29      1.0000 0.58870  0.36310  0.54630  Biso   1.000  H
  H30      1.0000 0.41130  0.86310  0.95370  Biso   1.000  H
  H31      1.0000 0.41130  0.63690  0.45370  Biso   1.000  H
  H32      1.0000 0.58870  0.13690  0.04630  Biso   1.000  H
  C41      1.0000 0.48040  0.11470  0.56760  Biso   1.000  C
  C42      1.0000 0.51960  0.61470  0.93240  Biso   1.000  C
  C43      1.0000 0.51960  0.88530  0.43240  Biso   1.000  C
  C44      1.0000 0.48040  0.38530  0.06760  Biso   1.000  C
  H33      1.0000 0.50550  0.04370  0.60000  Biso   1.000  H
  H34      1.0000 0.49450  0.54370  0.90000  Biso   1.000  H
  H35      1.0000 0.49450  0.95630  0.40000  Biso   1.000  H
  H36      1.0000 0.50550  0.45630  0.10000  Biso   1.000  H
  C45      1.0000 0.35560  0.12460  0.50270  Biso   1.000  C
  C46      1.0000 0.64440  0.62460  0.99730  Biso   1.000  C
  C47      1.0000 0.64440  0.87540  0.49730  Biso   1.000  C
  C48      1.0000 0.35560  0.37540  0.00270  Biso   1.000  C
  H37      1.0000 0.29940  0.06030  0.49130  Biso   1.000  H
  H38      1.0000 0.70060  0.56030  0.00870  Biso   1.000  H
  H39      1.0000 0.70060  0.93970  0.50870  Biso   1.000  H
  H40      1.0000 0.29940  0.43970  0.99130  Biso   1.000  H
  C49      1.0000 0.31460  0.22930  0.45520  Biso   1.000  C
  C50      1.0000 0.68540  0.72930  0.04480  Biso   1.000  C
  C51      1.0000 0.68540  0.77070  0.54480  Biso   1.000  C
  C52      1.0000 0.31460  0.27070  0.95520  Biso   1.000  C
  C53      1.0000 0.17920  0.24780  0.39220  Biso   1.000  C
  C54      1.0000 0.82080  0.74780  0.10780  Biso   1.000  C
  C55      1.0000 0.82080  0.75220  0.60780  Biso   1.000  C
  C56      1.0000 0.17920  0.25220  0.89220  Biso   1.000  C
  C57      1.0000 0.10280  0.15460  0.34360  Biso   1.000  C
  C58      1.0000 0.89720  0.65460  0.15640  Biso   1.000  C
  C59      1.0000 0.89720  0.84540  0.65640  Biso   1.000  C
  C60      1.0000 0.10280  0.34540  0.84360  Biso   1.000  C
  H41      1.0000 0.13620  0.07810  0.34960  Biso   1.000  H
  H42      1.0000 0.86380  0.57810  0.15040  Biso   1.000  H
  H43      1.0000 0.86380  0.92190  0.65040  Biso   1.000  H
  H44      1.0000 0.13620  0.42190  0.84960  Biso   1.000  H
  C61      1.0000 0.97720  0.17680  0.28640  Biso   1.000  C
  C62      1.0000 0.02280  0.67680  0.21360  Biso   1.000  C
  C63      1.0000 0.02280  0.82320  0.71360  Biso   1.000  C
  C64      1.0000 0.97720  0.32320  0.78640  Biso   1.000  C
  H45      1.0000 0.92750  0.11350  0.25390  Biso   1.000  H
  H46      1.0000 0.07250  0.61350  0.24610  Biso   1.000  H
  H47      1.0000 0.07250  0.88650  0.74610  Biso   1.000  H
  H48      1.0000 0.92750  0.38650  0.75390  Biso   1.000  H
  O1       1.0000 0.81700  0.36640  0.09164  Biso   1.000  O
  O2       1.0000 0.18300  0.86640  0.40836  Biso   1.000  O
  O3       1.0000 0.18300  0.63360  0.90836  Biso   1.000  O
  O4       1.0000 0.81700  0.13360  0.59164  Biso   1.000  O
  O5       1.0000 0.83100  0.15990  0.04050  Biso   1.000  O
  O6       1.0000 0.16900  0.65990  0.45950  Biso   1.000  O
  O7       1.0000 0.16900  0.84010  0.95950  Biso   1.000  O
  O8       1.0000 0.83100  0.34010  0.54050  Biso   1.000  O
  H49      1.0000 0.79260  0.13420  0.98740  Biso   1.000  H
  H50      1.0000 0.20740  0.63420  0.51260  Biso   1.000  H
  H51      1.0000 0.20740  0.86580  0.01260  Biso   1.000  H
  H52      1.0000 0.79260  0.36580  0.48740  Biso   1.000  H
  O9       1.0000 0.84430  0.33100  0.93520  Biso   1.000  O
  O10      1.0000 0.15570  0.83100  0.56480  Biso   1.000  O
  O11      1.0000 0.15570  0.66900  0.06480  Biso   1.000  O
  O12      1.0000 0.84430  0.16900  0.43520  Biso   1.000  O
  O13      1.0000 0.28410  0.98180  0.25860  Biso   1.000  O
  O14      1.0000 0.71590  0.48180  0.24140  Biso   1.000  O
  O15      1.0000 0.71590  0.01820  0.74140  Biso   1.000  O
  O16      1.0000 0.28410  0.51820  0.75860  Biso   1.000  O
  O17      1.0000 0.46930  0.06630  0.23140  Biso   1.000  O
  O18      1.0000 0.53070  0.56630  0.26860  Biso   1.000  O
  O19      1.0000 0.53070  0.93370  0.76860  Biso   1.000  O
  O20      1.0000 0.46930  0.43370  0.73140  Biso   1.000  O
  O21      1.0000 0.29600  0.97880  0.10140  Biso   1.000  O
  O22      1.0000 0.70400  0.47880  0.39860  Biso   1.000  O
  O23      1.0000 0.70400  0.02120  0.89860  Biso   1.000  O
  O24      1.0000 0.29600  0.52120  0.60140  Biso   1.000  O
  O25      1.0000 0.68320  0.20210  0.26490  Biso   1.000  O
  O26      1.0000 0.31680  0.70210  0.23510  Biso   1.000  O
  O27      1.0000 0.31680  0.79790  0.73510  Biso   1.000  O
  O28      1.0000 0.68320  0.29790  0.76490  Biso   1.000  O
  H53      1.0000 0.72700  0.18500  0.32400  Biso   1.000  H
  H54      1.0000 0.27300  0.68500  0.17600  Biso   1.000  H
  H55      1.0000 0.27300  0.81500  0.67600  Biso   1.000  H
  H56      1.0000 0.72700  0.31500  0.82400  Biso   1.000  H
  H57      1.0000 0.60300  0.17000  0.25100  Biso   1.000  H
  H58      1.0000 0.39700  0.67000  0.24900  Biso   1.000  H
  H59      1.0000 0.39700  0.83000  0.74900  Biso   1.000  H
  H60      1.0000 0.60300  0.33000  0.75100  Biso   1.000  H
