data_image0
_cell_length_a       10.1536
_cell_length_b       18.4953
_cell_length_c       10.371
_cell_angle_alpha    90
_cell_angle_beta     105.27
_cell_angle_gamma    90

_symmetry_space_group_name_H-M    "P 1"
_symmetry_int_tables_number       1

loop_
  _symmetry_equiv_pos_as_xyz
  'x, y, z'

loop_
  _atom_site_label
  _atom_site_occupancy
  _atom_site_fract_x
  _atom_site_fract_y
  _atom_site_fract_z
  _atom_site_thermal_displace_type
  _atom_site_B_iso_or_equiv
  _atom_site_type_symbol
  Cu1      1.0000 0.40927  0.14118  0.57751  Biso   1.000  Cu
  Cu2      1.0000 0.09073  0.64118  0.92249  Biso   1.000  Cu
  Cu3      1.0000 0.59073  0.85882  0.42249  Biso   1.000  Cu
  Cu4      1.0000 0.90927  0.35882  0.07751  Biso   1.000  Cu
  Cu5      1.0000 0.42440  0.01832  0.34389  Biso   1.000  Cu
  Cu6      1.0000 0.07560  0.51832  0.15611  Biso   1.000  Cu
  Cu7      1.0000 0.57560  0.98168  0.65611  Biso   1.000  Cu
  Cu8      1.0000 0.92440  0.48168  0.84389  Biso   1.000  Cu
  S1       1.0000 0.74308  0.89932  0.16799  Biso   1.000  S
  S2       1.0000 0.75692  0.39932  0.33201  Biso   1.000  S
  S3       1.0000 0.25692  0.10068  0.83201  Biso   1.000  S
  S4       1.0000 0.24308  0.60068  0.66799  Biso   1.000  S
  O1       1.0000 0.61310  0.15470  0.64650  Biso   1.000  O
  O2       1.0000 0.88690  0.65470  0.85350  Biso   1.000  O
  O3       1.0000 0.38690  0.84530  0.35350  Biso   1.000  O
  O4       1.0000 0.11310  0.34530  0.14650  Biso   1.000  O
  O5       1.0000 0.27240  0.95040  0.32060  Biso   1.000  O
  O6       1.0000 0.22760  0.45040  0.17940  Biso   1.000  O
  O7       1.0000 0.72760  0.04960  0.67940  Biso   1.000  O
  O8       1.0000 0.77240  0.54960  0.82060  Biso   1.000  O
  O9       1.0000 0.10580  0.62269  0.17760  Biso   1.000  O
  O10      1.0000 0.39420  0.12269  0.32240  Biso   1.000  O
  O11      1.0000 0.89420  0.37731  0.82240  Biso   1.000  O
  O12      1.0000 0.60580  0.87731  0.67760  Biso   1.000  O
  O13      1.0000 0.89230  0.62287  0.19160  Biso   1.000  O
  O14      1.0000 0.60770  0.12287  0.30840  Biso   1.000  O
  O15      1.0000 0.10770  0.37713  0.80840  Biso   1.000  O
  O16      1.0000 0.39230  0.87713  0.69160  Biso   1.000  O
  O17      1.0000 0.64320  0.85510  0.21050  Biso   1.000  O
  O18      1.0000 0.85680  0.35510  0.28950  Biso   1.000  O
  O19      1.0000 0.35680  0.14490  0.78950  Biso   1.000  O
  O20      1.0000 0.14320  0.64490  0.71050  Biso   1.000  O
  O21      1.0000 0.76670  0.96841  0.23730  Biso   1.000  O
  O22      1.0000 0.73330  0.46841  0.26270  Biso   1.000  O
  O23      1.0000 0.23330  0.03159  0.76270  Biso   1.000  O
  O24      1.0000 0.26670  0.53159  0.73730  Biso   1.000  O
  O25      1.0000 0.71240  0.90567  0.02380  Biso   1.000  O
  O26      1.0000 0.78760  0.40567  0.47620  Biso   1.000  O
  O27      1.0000 0.28760  0.09433  0.97620  Biso   1.000  O
  O28      1.0000 0.21240  0.59433  0.52380  Biso   1.000  O
  O29      1.0000 0.41400  0.03705  0.56660  Biso   1.000  O
  O30      1.0000 0.08600  0.53705  0.93340  Biso   1.000  O
  O31      1.0000 0.58600  0.96295  0.43340  Biso   1.000  O
  O32      1.0000 0.91400  0.46295  0.06660  Biso   1.000  O
  H1       1.0000 0.34700  0.02600  0.59100  Biso   1.000  H
  H2       1.0000 0.15300  0.52600  0.90900  Biso   1.000  H
  H3       1.0000 0.65300  0.97400  0.40900  Biso   1.000  H
  H4       1.0000 0.84700  0.47400  0.09100  Biso   1.000  H
  O33      1.0000 0.45070  0.00228  0.14740  Biso   1.000  O
  O34      1.0000 0.04930  0.50228  0.35260  Biso   1.000  O
  O35      1.0000 0.54930  0.99772  0.85260  Biso   1.000  O
  O36      1.0000 0.95070  0.49772  0.64740  Biso   1.000  O
  H5       1.0000 0.53400  0.01000  0.16200  Biso   1.000  H
  H6       1.0000 0.96600  0.51000  0.33800  Biso   1.000  H
  H7       1.0000 0.46600  0.99000  0.83800  Biso   1.000  H
  H8       1.0000 0.03400  0.49000  0.66200  Biso   1.000  H
  N1       1.0000 0.79480  0.85701  0.50660  Biso   1.000  N
  N2       1.0000 0.70520  0.35701  0.99340  Biso   1.000  N
  N3       1.0000 0.20520  0.14299  0.49340  Biso   1.000  N
  N4       1.0000 0.29480  0.64299  0.00660  Biso   1.000  N
  N5       1.0000 0.61870  0.75183  0.43670  Biso   1.000  N
  N6       1.0000 0.88130  0.25183  0.06330  Biso   1.000  N
  N7       1.0000 0.38130  0.24817  0.56330  Biso   1.000  N
  N8       1.0000 0.11870  0.74817  0.93670  Biso   1.000  N
  C1       1.0000 0.14410  0.84392  0.27940  Biso   1.000  C
  C2       1.0000 0.35590  0.34392  0.22060  Biso   1.000  C
  C3       1.0000 0.85590  0.15608  0.72060  Biso   1.000  C
  C4       1.0000 0.64410  0.65608  0.77940  Biso   1.000  C
  C5       1.0000 0.13730  0.76911  0.26110  Biso   1.000  C
  C6       1.0000 0.36270  0.26911  0.23890  Biso   1.000  C
  C7       1.0000 0.86270  0.23089  0.73890  Biso   1.000  C
  C8       1.0000 0.63730  0.73089  0.76110  Biso   1.000  C
  H9       1.0000 0.21730  0.74220  0.27620  Biso   1.000  H
  H10      1.0000 0.28270  0.24220  0.22380  Biso   1.000  H
  H11      1.0000 0.78270  0.25780  0.72380  Biso   1.000  H
  H12      1.0000 0.71730  0.75780  0.77620  Biso   1.000  H
  C9       1.0000 0.01090  0.73456  0.22030  Biso   1.000  C
  C10      1.0000 0.48910  0.23456  0.27970  Biso   1.000  C
  C11      1.0000 0.98910  0.26544  0.77970  Biso   1.000  C
  C12      1.0000 0.51090  0.76544  0.72030  Biso   1.000  C
  C13      1.0000 0.89250  0.77530  0.19760  Biso   1.000  C
  C14      1.0000 0.60750  0.27530  0.30240  Biso   1.000  C
  C15      1.0000 0.10750  0.22470  0.80240  Biso   1.000  C
  C16      1.0000 0.39250  0.72470  0.69760  Biso   1.000  C
  H13      1.0000 0.80800  0.75250  0.17190  Biso   1.000  H
  H14      1.0000 0.69200  0.25250  0.32810  Biso   1.000  H
  H15      1.0000 0.19200  0.24750  0.82810  Biso   1.000  H
  H16      1.0000 0.30800  0.74750  0.67190  Biso   1.000  H
  C17      1.0000 0.89890  0.84976  0.21290  Biso   1.000  C
  C18      1.0000 0.60110  0.34976  0.28710  Biso   1.000  C
  C19      1.0000 0.10110  0.15024  0.78710  Biso   1.000  C
  C20      1.0000 0.39890  0.65024  0.71290  Biso   1.000  C
  C21      1.0000 0.02440  0.88457  0.25350  Biso   1.000  C
  C22      1.0000 0.47560  0.38457  0.24650  Biso   1.000  C
  C23      1.0000 0.97560  0.11543  0.74650  Biso   1.000  C
  C24      1.0000 0.52440  0.61543  0.75350  Biso   1.000  C
  H17      1.0000 0.02840  0.93460  0.26330  Biso   1.000  H
  H18      1.0000 0.47160  0.43460  0.23670  Biso   1.000  H
  H19      1.0000 0.97160  0.06540  0.73670  Biso   1.000  H
  H20      1.0000 0.52840  0.56540  0.76330  Biso   1.000  H
  C25      1.0000 0.27990  0.88260  0.32190  Biso   1.000  C
  C26      1.0000 0.22010  0.38260  0.17810  Biso   1.000  C
  C27      1.0000 0.72010  0.11740  0.67810  Biso   1.000  C
  C28      1.0000 0.77990  0.61740  0.82190  Biso   1.000  C
  C29      1.0000 0.99930  0.65401  0.19610  Biso   1.000  C
  C30      1.0000 0.50070  0.15401  0.30390  Biso   1.000  C
  C31      1.0000 0.00070  0.34599  0.80390  Biso   1.000  C
  C32      1.0000 0.49930  0.84599  0.69610  Biso   1.000  C
  C33      1.0000 0.12400  0.08630  0.45280  Biso   1.000  C
  C34      1.0000 0.37600  0.58630  0.04720  Biso   1.000  C
  C35      1.0000 0.87600  0.91370  0.54720  Biso   1.000  C
  C36      1.0000 0.62400  0.41370  0.95280  Biso   1.000  C
  H21      1.0000 0.16360  0.04080  0.45500  Biso   1.000  H
  H22      1.0000 0.33640  0.54080  0.04500  Biso   1.000  H
  H23      1.0000 0.83640  0.95920  0.54500  Biso   1.000  H
  H24      1.0000 0.66360  0.45920  0.95500  Biso   1.000  H
  C37      1.0000 0.98340  0.09190  0.40740  Biso   1.000  C
  C38      1.0000 0.51660  0.59190  0.09260  Biso   1.000  C
  C39      1.0000 0.01660  0.90810  0.59260  Biso   1.000  C
  C40      1.0000 0.48340  0.40810  0.90740  Biso   1.000  C
  H25      1.0000 0.92940  0.05130  0.37890  Biso   1.000  H
  H26      1.0000 0.57060  0.55130  0.12110  Biso   1.000  H
  H27      1.0000 0.07060  0.94870  0.62110  Biso   1.000  H
  H28      1.0000 0.42940  0.44870  0.87890  Biso   1.000  H
  C41      1.0000 0.92640  0.15910  0.40600  Biso   1.000  C
  C42      1.0000 0.57360  0.65910  0.09400  Biso   1.000  C
  C43      1.0000 0.07360  0.84090  0.59400  Biso   1.000  C
  C44      1.0000 0.42640  0.34090  0.90600  Biso   1.000  C
  H29      1.0000 0.83200  0.16460  0.37910  Biso   1.000  H
  H30      1.0000 0.66800  0.66460  0.12090  Biso   1.000  H
  H31      1.0000 0.16800  0.83540  0.62090  Biso   1.000  H
  H32      1.0000 0.33200  0.33540  0.87910  Biso   1.000  H
  C45      1.0000 0.00950  0.21900  0.44450  Biso   1.000  C
  C46      1.0000 0.49050  0.71900  0.05550  Biso   1.000  C
  C47      1.0000 0.99050  0.78100  0.55550  Biso   1.000  C
  C48      1.0000 0.50950  0.28100  0.94450  Biso   1.000  C
  H33      1.0000 0.97170  0.26490  0.44200  Biso   1.000  H
  H34      1.0000 0.52830  0.76490  0.05800  Biso   1.000  H
  H35      1.0000 0.02830  0.73510  0.55800  Biso   1.000  H
  H36      1.0000 0.47170  0.23510  0.94200  Biso   1.000  H
  C49      1.0000 0.14980  0.20963  0.48690  Biso   1.000  C
  C50      1.0000 0.35020  0.70963  0.01310  Biso   1.000  C
  C51      1.0000 0.85020  0.79037  0.51310  Biso   1.000  C
  C52      1.0000 0.64980  0.29037  0.98690  Biso   1.000  C
  C53      1.0000 0.24930  0.26943  0.52290  Biso   1.000  C
  C54      1.0000 0.25070  0.76943  0.97710  Biso   1.000  C
  C55      1.0000 0.75070  0.73057  0.47710  Biso   1.000  C
  C56      1.0000 0.74930  0.23057  0.02290  Biso   1.000  C
  C57      1.0000 0.21290  0.34170  0.51090  Biso   1.000  C
  C58      1.0000 0.28710  0.84170  0.98910  Biso   1.000  C
  C59      1.0000 0.78710  0.65830  0.48910  Biso   1.000  C
  C60      1.0000 0.71290  0.15830  0.01090  Biso   1.000  C
  H37      1.0000 0.12150  0.35520  0.48480  Biso   1.000  H
  H38      1.0000 0.37850  0.85520  0.01520  Biso   1.000  H
  H39      1.0000 0.87850  0.64480  0.51520  Biso   1.000  H
  H40      1.0000 0.62150  0.14480  0.98480  Biso   1.000  H
  C61      1.0000 0.31490  0.39350  0.53830  Biso   1.000  C
  C62      1.0000 0.18510  0.89350  0.96170  Biso   1.000  C
  C63      1.0000 0.68510  0.60650  0.46170  Biso   1.000  C
  C64      1.0000 0.81490  0.10650  0.03830  Biso   1.000  C
  H41      1.0000 0.29270  0.44240  0.53170  Biso   1.000  H
  H42      1.0000 0.20730  0.94240  0.96830  Biso   1.000  H
  H43      1.0000 0.70730  0.55760  0.46830  Biso   1.000  H
  H44      1.0000 0.79270  0.05760  0.03170  Biso   1.000  H
  C65      1.0000 0.44970  0.37190  0.57560  Biso   1.000  C
  C66      1.0000 0.05030  0.87190  0.92440  Biso   1.000  C
  C67      1.0000 0.55030  0.62810  0.42440  Biso   1.000  C
  C68      1.0000 0.94970  0.12810  0.07560  Biso   1.000  C
  H45      1.0000 0.51960  0.40590  0.59210  Biso   1.000  H
  H46      1.0000 0.98040  0.90590  0.90790  Biso   1.000  H
  H47      1.0000 0.48040  0.59410  0.40790  Biso   1.000  H
  H48      1.0000 0.01960  0.09410  0.09210  Biso   1.000  H
  C69      1.0000 0.47900  0.29880  0.58800  Biso   1.000  C
  C70      1.0000 0.02100  0.79880  0.91200  Biso   1.000  C
  C71      1.0000 0.52100  0.70120  0.41200  Biso   1.000  C
  C72      1.0000 0.97900  0.20120  0.08800  Biso   1.000  C
  H49      1.0000 0.56980  0.28430  0.61460  Biso   1.000  H
  H50      1.0000 0.93020  0.78430  0.88540  Biso   1.000  H
  H51      1.0000 0.43020  0.71570  0.38540  Biso   1.000  H
  H52      1.0000 0.06980  0.21570  0.11460  Biso   1.000  H
  H53      1.0000 0.40100  0.03100  0.09500  Biso   1.000  H
  H54      1.0000 0.09900  0.53100  0.40500  Biso   1.000  H
  H55      1.0000 0.59900  0.96900  0.90500  Biso   1.000  H
  H56      1.0000 0.90100  0.46900  0.59500  Biso   1.000  H
