data_image0
_cell_length_a       8.4903
_cell_length_b       16.417
_cell_length_c       16.134
_cell_angle_alpha    90
_cell_angle_beta     97.919
_cell_angle_gamma    90

_symmetry_space_group_name_H-M    "P 1"
_symmetry_int_tables_number       1

loop_
  _symmetry_equiv_pos_as_xyz
  'x, y, z'

loop_
  _atom_site_label
  _atom_site_occupancy
  _atom_site_fract_x
  _atom_site_fract_y
  _atom_site_fract_z
  _atom_site_thermal_displace_type
  _atom_site_B_iso_or_equiv
  _atom_site_type_symbol
  Cu1      1.0000 0.02157  0.34231  0.79741  Biso   1.000  Cu
  Cu2      1.0000 0.97843  0.84231  0.70259  Biso   1.000  Cu
  Cu3      1.0000 0.97843  0.65769  0.20259  Biso   1.000  Cu
  Cu4      1.0000 0.02157  0.15769  0.29741  Biso   1.000  Cu
  N1       1.0000 0.82670  0.38170  0.84330  Biso   1.000  N
  N2       1.0000 0.17330  0.88170  0.65670  Biso   1.000  N
  N3       1.0000 0.17330  0.61830  0.15670  Biso   1.000  N
  N4       1.0000 0.82670  0.11830  0.34330  Biso   1.000  N
  N5       1.0000 0.39530  0.46255  0.91240  Biso   1.000  N
  N6       1.0000 0.60470  0.96255  0.58760  Biso   1.000  N
  N7       1.0000 0.60470  0.53745  0.08760  Biso   1.000  N
  N8       1.0000 0.39530  0.03745  0.41240  Biso   1.000  N
  H1       1.0000 0.34610  0.42450  0.93510  Biso   1.000  H
  H2       1.0000 0.65390  0.92450  0.56490  Biso   1.000  H
  H3       1.0000 0.65390  0.57550  0.06490  Biso   1.000  H
  H4       1.0000 0.34610  0.07550  0.43510  Biso   1.000  H
  N9       1.0000 0.37980  0.60172  0.87400  Biso   1.000  N
  N10      1.0000 0.62020  0.10172  0.62600  Biso   1.000  N
  N11      1.0000 0.62020  0.39828  0.12600  Biso   1.000  N
  N12      1.0000 0.37980  0.89828  0.37400  Biso   1.000  N
  N13      1.0000 0.36070  0.74270  0.84140  Biso   1.000  N
  N14      1.0000 0.63930  0.24270  0.65860  Biso   1.000  N
  N15      1.0000 0.63930  0.25730  0.15860  Biso   1.000  N
  N16      1.0000 0.36070  0.75730  0.34140  Biso   1.000  N
  H5       1.0000 0.30230  0.78500  0.84490  Biso   1.000  H
  H6       1.0000 0.69770  0.28500  0.65510  Biso   1.000  H
  H7       1.0000 0.69770  0.21500  0.15510  Biso   1.000  H
  H8       1.0000 0.30230  0.71500  0.34490  Biso   1.000  H
  N17      1.0000 0.78320  0.80510  0.75120  Biso   1.000  N
  N18      1.0000 0.21680  0.30510  0.74880  Biso   1.000  N
  N19      1.0000 0.21680  0.19490  0.24880  Biso   1.000  N
  N20      1.0000 0.78320  0.69490  0.25120  Biso   1.000  N
  O1       1.0000 0.03540  0.24713  0.87135  Biso   1.000  O
  O2       1.0000 0.96460  0.74713  0.62865  Biso   1.000  O
  O3       1.0000 0.96460  0.75287  0.12865  Biso   1.000  O
  O4       1.0000 0.03540  0.25287  0.37135  Biso   1.000  O
  O5       1.0000 0.18900  0.33474  0.94790  Biso   1.000  O
  O6       1.0000 0.81100  0.83474  0.55210  Biso   1.000  O
  O7       1.0000 0.81100  0.66526  0.05210  Biso   1.000  O
  O8       1.0000 0.18900  0.16526  0.44790  Biso   1.000  O
  O9       1.0000 0.01230  0.43820  0.72600  Biso   1.000  O
  O10      1.0000 0.98770  0.93820  0.77400  Biso   1.000  O
  O11      1.0000 0.98770  0.56180  0.27400  Biso   1.000  O
  O12      1.0000 0.01230  0.06180  0.22600  Biso   1.000  O
  O13      1.0000 0.83040  0.38080  0.63230  Biso   1.000  O
  O14      1.0000 0.16960  0.88080  0.86770  Biso   1.000  O
  O15      1.0000 0.16960  0.61920  0.36770  Biso   1.000  O
  O16      1.0000 0.83040  0.11920  0.13230  Biso   1.000  O
  C1       1.0000 0.72320  0.33100  0.87480  Biso   1.000  C
  C2       1.0000 0.27680  0.83100  0.62520  Biso   1.000  C
  C3       1.0000 0.27680  0.66900  0.12520  Biso   1.000  C
  C4       1.0000 0.72320  0.16900  0.37480  Biso   1.000  C
  H9       1.0000 0.74840  0.27590  0.87990  Biso   1.000  H
  H10      1.0000 0.25160  0.77590  0.62010  Biso   1.000  H
  H11      1.0000 0.25160  0.72410  0.12010  Biso   1.000  H
  H12      1.0000 0.74840  0.22410  0.37990  Biso   1.000  H
  C5       1.0000 0.58330  0.35700  0.89940  Biso   1.000  C
  C6       1.0000 0.41670  0.85700  0.60060  Biso   1.000  C
  C7       1.0000 0.41670  0.64300  0.10060  Biso   1.000  C
  C8       1.0000 0.58330  0.14300  0.39940  Biso   1.000  C
  H13      1.0000 0.51690  0.31980  0.92100  Biso   1.000  H
  H14      1.0000 0.48310  0.81980  0.57900  Biso   1.000  H
  H15      1.0000 0.48310  0.68020  0.07900  Biso   1.000  H
  H16      1.0000 0.51690  0.18020  0.42100  Biso   1.000  H
  C9       1.0000 0.53980  0.43990  0.89230  Biso   1.000  C
  C10      1.0000 0.46020  0.93990  0.60770  Biso   1.000  C
  C11      1.0000 0.46020  0.56010  0.10770  Biso   1.000  C
  C12      1.0000 0.53980  0.06010  0.39230  Biso   1.000  C
  C13      1.0000 0.65260  0.49310  0.86610  Biso   1.000  C
  C14      1.0000 0.34740  0.99310  0.63390  Biso   1.000  C
  C15      1.0000 0.34740  0.50690  0.13390  Biso   1.000  C
  C16      1.0000 0.65260  0.00690  0.36610  Biso   1.000  C
  H17      1.0000 0.63560  0.54900  0.86560  Biso   1.000  H
  H18      1.0000 0.36440  0.04900  0.63440  Biso   1.000  H
  H19      1.0000 0.36440  0.45100  0.13440  Biso   1.000  H
  H20      1.0000 0.63560  0.95100  0.36560  Biso   1.000  H
  C17      1.0000 0.78800  0.46150  0.84130  Biso   1.000  C
  C18      1.0000 0.21200  0.96150  0.65870  Biso   1.000  C
  C19      1.0000 0.21200  0.53850  0.15870  Biso   1.000  C
  C20      1.0000 0.78800  0.03850  0.34130  Biso   1.000  C
  H21      1.0000 0.85850  0.49780  0.82170  Biso   1.000  H
  H22      1.0000 0.14150  0.99780  0.67830  Biso   1.000  H
  H23      1.0000 0.14150  0.50220  0.17830  Biso   1.000  H
  H24      1.0000 0.85850  0.00220  0.32170  Biso   1.000  H
  C21      1.0000 0.31230  0.53640  0.90300  Biso   1.000  C
  C22      1.0000 0.68770  0.03640  0.59700  Biso   1.000  C
  C23      1.0000 0.68770  0.46360  0.09700  Biso   1.000  C
  C24      1.0000 0.31230  0.96360  0.40300  Biso   1.000  C
  C25      1.0000 0.16090  0.53650  0.92650  Biso   1.000  C
  C26      1.0000 0.83910  0.03650  0.57350  Biso   1.000  C
  C27      1.0000 0.83910  0.46350  0.07350  Biso   1.000  C
  C28      1.0000 0.16090  0.96350  0.42650  Biso   1.000  C
  H25      1.0000 0.11860  0.48970  0.94730  Biso   1.000  H
  H26      1.0000 0.88140  0.98970  0.55270  Biso   1.000  H
  H27      1.0000 0.88140  0.51030  0.05270  Biso   1.000  H
  H28      1.0000 0.11860  0.01030  0.44730  Biso   1.000  H
  C29      1.0000 0.07530  0.60800  0.91820  Biso   1.000  C
  C30      1.0000 0.92470  0.10800  0.58180  Biso   1.000  C
  C31      1.0000 0.92470  0.39200  0.08180  Biso   1.000  C
  C32      1.0000 0.07530  0.89200  0.41820  Biso   1.000  C
  H29      1.0000 0.97330  0.61000  0.93300  Biso   1.000  H
  H30      1.0000 0.02670  0.11000  0.56700  Biso   1.000  H
  H31      1.0000 0.02670  0.39000  0.06700  Biso   1.000  H
  H32      1.0000 0.97330  0.89000  0.43300  Biso   1.000  H
  C33      1.0000 0.14140  0.67620  0.88810  Biso   1.000  C
  C34      1.0000 0.85860  0.17620  0.61190  Biso   1.000  C
  C35      1.0000 0.85860  0.32380  0.11190  Biso   1.000  C
  C36      1.0000 0.14140  0.82380  0.38810  Biso   1.000  C
  H33      1.0000 0.08550  0.72500  0.88160  Biso   1.000  H
  H34      1.0000 0.91450  0.22500  0.61840  Biso   1.000  H
  H35      1.0000 0.91450  0.27500  0.11840  Biso   1.000  H
  H36      1.0000 0.08550  0.77500  0.38160  Biso   1.000  H
  C37      1.0000 0.29510  0.67010  0.86730  Biso   1.000  C
  C38      1.0000 0.70490  0.17010  0.63270  Biso   1.000  C
  C39      1.0000 0.70490  0.32990  0.13270  Biso   1.000  C
  C40      1.0000 0.29510  0.82990  0.36730  Biso   1.000  C
  C41      1.0000 0.50060  0.75820  0.81150  Biso   1.000  C
  C42      1.0000 0.49940  0.25820  0.68850  Biso   1.000  C
  C43      1.0000 0.49940  0.24180  0.18850  Biso   1.000  C
  C44      1.0000 0.50060  0.74180  0.31150  Biso   1.000  C
  C45      1.0000 0.54990  0.84050  0.81040  Biso   1.000  C
  C46      1.0000 0.45010  0.34050  0.68960  Biso   1.000  C
  C47      1.0000 0.45010  0.15950  0.18960  Biso   1.000  C
  C48      1.0000 0.54990  0.65950  0.31040  Biso   1.000  C
  H37      1.0000 0.48860  0.88110  0.83040  Biso   1.000  H
  H38      1.0000 0.51140  0.38110  0.66960  Biso   1.000  H
  H39      1.0000 0.51140  0.11890  0.16960  Biso   1.000  H
  H40      1.0000 0.48860  0.61890  0.33040  Biso   1.000  H
  C49      1.0000 0.68570  0.86030  0.78050  Biso   1.000  C
  C50      1.0000 0.31430  0.36030  0.71950  Biso   1.000  C
  C51      1.0000 0.31430  0.13970  0.21950  Biso   1.000  C
  C52      1.0000 0.68570  0.63970  0.28050  Biso   1.000  C
  H41      1.0000 0.71400  0.91500  0.77980  Biso   1.000  H
  H42      1.0000 0.28600  0.41500  0.72020  Biso   1.000  H
  H43      1.0000 0.28600  0.08500  0.22020  Biso   1.000  H
  H44      1.0000 0.71400  0.58500  0.27980  Biso   1.000  H
  C53      1.0000 0.73720  0.72720  0.75150  Biso   1.000  C
  C54      1.0000 0.26280  0.22720  0.74850  Biso   1.000  C
  C55      1.0000 0.26280  0.27280  0.24850  Biso   1.000  C
  C56      1.0000 0.73720  0.77280  0.25150  Biso   1.000  C
  H45      1.0000 0.80140  0.68820  0.73100  Biso   1.000  H
  H46      1.0000 0.19860  0.18820  0.76900  Biso   1.000  H
  H47      1.0000 0.19860  0.31180  0.26900  Biso   1.000  H
  H48      1.0000 0.80140  0.81180  0.23100  Biso   1.000  H
  C57      1.0000 0.59910  0.70090  0.78070  Biso   1.000  C
  C58      1.0000 0.40090  0.20090  0.71930  Biso   1.000  C
  C59      1.0000 0.40090  0.29910  0.21930  Biso   1.000  C
  C60      1.0000 0.59910  0.79910  0.28070  Biso   1.000  C
  H49      1.0000 0.57280  0.64590  0.77960  Biso   1.000  H
  H50      1.0000 0.42720  0.14590  0.72040  Biso   1.000  H
  H51      1.0000 0.42720  0.35410  0.22040  Biso   1.000  H
  H52      1.0000 0.57280  0.85410  0.27960  Biso   1.000  H
  C61      1.0000 0.12600  0.26680  0.93780  Biso   1.000  C
  C62      1.0000 0.87400  0.76680  0.56220  Biso   1.000  C
  C63      1.0000 0.87400  0.73320  0.06220  Biso   1.000  C
  C64      1.0000 0.12600  0.23320  0.43780  Biso   1.000  C
  C65      1.0000 0.15400  0.20340  0.00600  Biso   1.000  C
  C66      1.0000 0.84600  0.70340  0.49400  Biso   1.000  C
  C67      1.0000 0.84600  0.79660  0.99400  Biso   1.000  C
  C68      1.0000 0.15400  0.29660  0.50600  Biso   1.000  C
  H53      1.0000 0.24300  0.17000  0.99710  Biso   1.000  H
  H54      1.0000 0.75700  0.67000  0.50290  Biso   1.000  H
  H55      1.0000 0.75700  0.83000  0.00290  Biso   1.000  H
  H56      1.0000 0.24300  0.33000  0.49710  Biso   1.000  H
  H57      1.0000 0.06100  0.17000  0.00490  Biso   1.000  H
  H58      1.0000 0.93900  0.67000  0.49510  Biso   1.000  H
  H59      1.0000 0.93900  0.83000  0.99510  Biso   1.000  H
  H60      1.0000 0.06100  0.33000  0.50490  Biso   1.000  H
  H61      1.0000 0.17600  0.22990  0.05940  Biso   1.000  H
  H62      1.0000 0.82400  0.72990  0.44060  Biso   1.000  H
  H63      1.0000 0.82400  0.77010  0.94060  Biso   1.000  H
  H64      1.0000 0.17600  0.27010  0.55940  Biso   1.000  H
  C69      1.0000 0.91510  0.43810  0.65900  Biso   1.000  C
  C70      1.0000 0.08490  0.93810  0.84100  Biso   1.000  C
  C71      1.0000 0.08490  0.56190  0.34100  Biso   1.000  C
  C72      1.0000 0.91510  0.06190  0.15900  Biso   1.000  C
  C73      1.0000 0.90490  0.51680  0.61140  Biso   1.000  C
  C74      1.0000 0.09510  0.01680  0.88860  Biso   1.000  C
  C75      1.0000 0.09510  0.48320  0.38860  Biso   1.000  C
  C76      1.0000 0.90490  0.98320  0.11140  Biso   1.000  C
  H65      1.0000 0.96740  0.51300  0.56630  Biso   1.000  H
  H66      1.0000 0.03260  0.01300  0.93370  Biso   1.000  H
  H67      1.0000 0.03260  0.48700  0.43370  Biso   1.000  H
  H68      1.0000 0.96740  0.98700  0.06630  Biso   1.000  H
  H69      1.0000 0.94450  0.56030  0.64820  Biso   1.000  H
  H70      1.0000 0.05550  0.06030  0.85180  Biso   1.000  H
  H71      1.0000 0.05550  0.43970  0.35180  Biso   1.000  H
  H72      1.0000 0.94450  0.93970  0.14820  Biso   1.000  H
  H73      1.0000 0.79600  0.52740  0.58910  Biso   1.000  H
  H74      1.0000 0.20400  0.02740  0.91090  Biso   1.000  H
  H75      1.0000 0.20400  0.47260  0.41090  Biso   1.000  H
  H76      1.0000 0.79600  0.97260  0.08910  Biso   1.000  H
  O17      1.0000 0.40300  0.56920  0.59610  Biso   1.000  O
  O18      1.0000 0.59700  0.06920  0.90390  Biso   1.000  O
  O19      1.0000 0.59700  0.43080  0.40390  Biso   1.000  O
  O20      1.0000 0.40300  0.93080  0.09610  Biso   1.000  O
  H77      1.0000 0.39510  0.52020  0.58670  Biso   1.000  H
  H78      1.0000 0.60490  0.02020  0.91330  Biso   1.000  H
  H79      1.0000 0.60490  0.47980  0.41330  Biso   1.000  H
  H80      1.0000 0.39510  0.97980  0.08670  Biso   1.000  H
  C77      1.0000 0.41200  0.60990  0.52300  Biso   1.000  C
  C78      1.0000 0.58800  0.10990  0.97700  Biso   1.000  C
  C79      1.0000 0.58800  0.39010  0.47700  Biso   1.000  C
  C80      1.0000 0.41200  0.89010  0.02300  Biso   1.000  C
  H81      1.0000 0.32280  0.64580  0.51130  Biso   1.000  H
  H82      1.0000 0.67720  0.14580  0.98870  Biso   1.000  H
  H83      1.0000 0.67720  0.35420  0.48870  Biso   1.000  H
  H84      1.0000 0.32280  0.85420  0.01130  Biso   1.000  H
  H85      1.0000 0.41180  0.57140  0.47820  Biso   1.000  H
  H86      1.0000 0.58820  0.07140  0.02180  Biso   1.000  H
  H87      1.0000 0.58820  0.42860  0.52180  Biso   1.000  H
  H88      1.0000 0.41180  0.92860  0.97820  Biso   1.000  H
  H89      1.0000 0.50890  0.64110  0.52830  Biso   1.000  H
  H90      1.0000 0.49110  0.14110  0.97170  Biso   1.000  H
  H91      1.0000 0.49110  0.35890  0.47170  Biso   1.000  H
  H92      1.0000 0.50890  0.85890  0.02830  Biso   1.000  H
