data_image0
_cell_length_a       9.6461
_cell_length_b       17.2736
_cell_length_c       13.0344
_cell_angle_alpha    90
_cell_angle_beta     110.808
_cell_angle_gamma    90

_symmetry_space_group_name_H-M    "P 1"
_symmetry_int_tables_number       1

loop_
  _symmetry_equiv_pos_as_xyz
  'x, y, z'

loop_
  _atom_site_label
  _atom_site_occupancy
  _atom_site_fract_x
  _atom_site_fract_y
  _atom_site_fract_z
  _atom_site_thermal_displace_type
  _atom_site_B_iso_or_equiv
  _atom_site_type_symbol
  Cu1      1.0000 0.75000  0.18122  0.00000  Biso   1.000  Cu
  Cu2      1.0000 0.25000  0.68122  0.50000  Biso   1.000  Cu
  Cu3      1.0000 0.25000  0.81878  0.00000  Biso   1.000  Cu
  Cu4      1.0000 0.75000  0.31878  0.50000  Biso   1.000  Cu
  Cu5      1.0000 0.77859  0.00682  0.11919  Biso   1.000  Cu
  Cu6      1.0000 0.27859  0.50682  0.61919  Biso   1.000  Cu
  Cu7      1.0000 0.72141  0.00682  0.88081  Biso   1.000  Cu
  Cu8      1.0000 0.22141  0.50682  0.38081  Biso   1.000  Cu
  Cu9      1.0000 0.22141  0.99318  0.88081  Biso   1.000  Cu
  Cu10     1.0000 0.72141  0.49318  0.38081  Biso   1.000  Cu
  Cu11     1.0000 0.27859  0.99318  0.11919  Biso   1.000  Cu
  Cu12     1.0000 0.77859  0.49318  0.61919  Biso   1.000  Cu
  P1       1.0000 0.47036  0.10138  0.03421  Biso   1.000  P
  P2       1.0000 0.97036  0.60138  0.53421  Biso   1.000  P
  P3       1.0000 0.02964  0.10138  0.96579  Biso   1.000  P
  P4       1.0000 0.52964  0.60138  0.46579  Biso   1.000  P
  P5       1.0000 0.52964  0.89862  0.96579  Biso   1.000  P
  P6       1.0000 0.02964  0.39862  0.46579  Biso   1.000  P
  P7       1.0000 0.97036  0.89862  0.03421  Biso   1.000  P
  P8       1.0000 0.47036  0.39862  0.53421  Biso   1.000  P
  O1       1.0000 0.63281  0.08739  0.04207  Biso   1.000  O
  O2       1.0000 0.13281  0.58739  0.54207  Biso   1.000  O
  O3       1.0000 0.86719  0.08739  0.95793  Biso   1.000  O
  O4       1.0000 0.36719  0.58739  0.45793  Biso   1.000  O
  O5       1.0000 0.36719  0.91261  0.95793  Biso   1.000  O
  O6       1.0000 0.86719  0.41261  0.45793  Biso   1.000  O
  O7       1.0000 0.13281  0.91261  0.04207  Biso   1.000  O
  O8       1.0000 0.63281  0.41261  0.54207  Biso   1.000  O
  O9       1.0000 0.44321  0.06248  0.12995  Biso   1.000  O
  O10      1.0000 0.94321  0.56248  0.62995  Biso   1.000  O
  O11      1.0000 0.05679  0.06248  0.87005  Biso   1.000  O
  O12      1.0000 0.55679  0.56248  0.37005  Biso   1.000  O
  O13      1.0000 0.55679  0.93752  0.87005  Biso   1.000  O
  O14      1.0000 0.05679  0.43752  0.37005  Biso   1.000  O
  O15      1.0000 0.94321  0.93752  0.12995  Biso   1.000  O
  O16      1.0000 0.44321  0.43752  0.62995  Biso   1.000  O
  O17      1.0000 0.35962  0.07719  0.92271  Biso   1.000  O
  O18      1.0000 0.85962  0.57719  0.42271  Biso   1.000  O
  O19      1.0000 0.14038  0.07719  0.07729  Biso   1.000  O
  O20      1.0000 0.64038  0.57719  0.57729  Biso   1.000  O
  O21      1.0000 0.64038  0.92281  0.07729  Biso   1.000  O
  O22      1.0000 0.14038  0.42281  0.57729  Biso   1.000  O
  O23      1.0000 0.85962  0.92281  0.92271  Biso   1.000  O
  O24      1.0000 0.35962  0.42281  0.42271  Biso   1.000  O
  O25      1.0000 0.28170  0.34242  0.77182  Biso   1.000  O
  O26      1.0000 0.78170  0.84242  0.27182  Biso   1.000  O
  O27      1.0000 0.21830  0.34242  0.22818  Biso   1.000  O
  O28      1.0000 0.71830  0.84242  0.72818  Biso   1.000  O
  O29      1.0000 0.71830  0.65758  0.22818  Biso   1.000  O
  O30      1.0000 0.21830  0.15758  0.72818  Biso   1.000  O
  O31      1.0000 0.78170  0.65758  0.77182  Biso   1.000  O
  O32      1.0000 0.28170  0.15758  0.27182  Biso   1.000  O
  H1       1.0000 0.24800  0.36800  0.72600  Biso   1.000  H
  H2       1.0000 0.74800  0.86800  0.22600  Biso   1.000  H
  H3       1.0000 0.25200  0.36800  0.27400  Biso   1.000  H
  H4       1.0000 0.75200  0.86800  0.77400  Biso   1.000  H
  H5       1.0000 0.75200  0.63200  0.27400  Biso   1.000  H
  H6       1.0000 0.25200  0.13200  0.77400  Biso   1.000  H
  H7       1.0000 0.74800  0.63200  0.72600  Biso   1.000  H
  H8       1.0000 0.24800  0.13200  0.22600  Biso   1.000  H
  O33      1.0000 0.32120  0.45220  0.86741  Biso   1.000  O
  O34      1.0000 0.82120  0.95220  0.36741  Biso   1.000  O
  O35      1.0000 0.17880  0.45220  0.13259  Biso   1.000  O
  O36      1.0000 0.67880  0.95220  0.63259  Biso   1.000  O
  O37      1.0000 0.67880  0.54780  0.13259  Biso   1.000  O
  O38      1.0000 0.17880  0.04780  0.63259  Biso   1.000  O
  O39      1.0000 0.82120  0.54780  0.86741  Biso   1.000  O
  O40      1.0000 0.32120  0.04780  0.36741  Biso   1.000  O
  O41      1.0000 0.59260  0.42704  0.27421  Biso   1.000  O
  O42      1.0000 0.09260  0.92704  0.77421  Biso   1.000  O
  O43      1.0000 0.90740  0.42704  0.72579  Biso   1.000  O
  O44      1.0000 0.40740  0.92704  0.22579  Biso   1.000  O
  O45      1.0000 0.40740  0.57296  0.72579  Biso   1.000  O
  O46      1.0000 0.90740  0.07296  0.22579  Biso   1.000  O
  O47      1.0000 0.09260  0.57296  0.27421  Biso   1.000  O
  O48      1.0000 0.59260  0.07296  0.77421  Biso   1.000  O
  O49      1.0000 0.63020  0.30795  0.34850  Biso   1.000  O
  O50      1.0000 0.13020  0.80795  0.84850  Biso   1.000  O
  O51      1.0000 0.86980  0.30795  0.65150  Biso   1.000  O
  O52      1.0000 0.36980  0.80795  0.15150  Biso   1.000  O
  O53      1.0000 0.36980  0.69205  0.65150  Biso   1.000  O
  O54      1.0000 0.86980  0.19205  0.15150  Biso   1.000  O
  O55      1.0000 0.13020  0.69205  0.34850  Biso   1.000  O
  O56      1.0000 0.63020  0.19205  0.84850  Biso   1.000  O
  O57      1.0000 0.75000  0.29461  0.00000  Biso   1.000  O
  O58      1.0000 0.25000  0.79461  0.50000  Biso   1.000  O
  O59      1.0000 0.25000  0.70539  0.00000  Biso   1.000  O
  O60      1.0000 0.75000  0.20539  0.50000  Biso   1.000  O
  H9       1.0000 0.79100  0.32000  0.05200  Biso   1.000  H
  H10      1.0000 0.29100  0.82000  0.55200  Biso   1.000  H
  H11      1.0000 0.70900  0.32000  0.94800  Biso   1.000  H
  H12      1.0000 0.20900  0.82000  0.44800  Biso   1.000  H
  H13      1.0000 0.20900  0.68000  0.94800  Biso   1.000  H
  H14      1.0000 0.70900  0.18000  0.44800  Biso   1.000  H
  H15      1.0000 0.29100  0.68000  0.05200  Biso   1.000  H
  H16      1.0000 0.79100  0.18000  0.55200  Biso   1.000  H
  O61      1.0000 0.84660  0.40740  0.15439  Biso   1.000  O
  O62      1.0000 0.34660  0.90740  0.65439  Biso   1.000  O
  O63      1.0000 0.65340  0.40740  0.84561  Biso   1.000  O
  O64      1.0000 0.15340  0.90740  0.34561  Biso   1.000  O
  O65      1.0000 0.15340  0.59260  0.84561  Biso   1.000  O
  O66      1.0000 0.65340  0.09260  0.34561  Biso   1.000  O
  O67      1.0000 0.34660  0.59260  0.15439  Biso   1.000  O
  O68      1.0000 0.84660  0.09260  0.65439  Biso   1.000  O
  H17      1.0000 0.91500  0.41800  0.20700  Biso   1.000  H
  H18      1.0000 0.41500  0.91800  0.70700  Biso   1.000  H
  H19      1.0000 0.58500  0.41800  0.79300  Biso   1.000  H
  H20      1.0000 0.08500  0.91800  0.29300  Biso   1.000  H
  H21      1.0000 0.08500  0.58200  0.79300  Biso   1.000  H
  H22      1.0000 0.58500  0.08200  0.29300  Biso   1.000  H
  H23      1.0000 0.41500  0.58200  0.20700  Biso   1.000  H
  H24      1.0000 0.91500  0.08200  0.70700  Biso   1.000  H
  H25      1.0000 0.79300  0.44400  0.13900  Biso   1.000  H
  H26      1.0000 0.29300  0.94400  0.63900  Biso   1.000  H
  H27      1.0000 0.70700  0.44400  0.86100  Biso   1.000  H
  H28      1.0000 0.20700  0.94400  0.36100  Biso   1.000  H
  H29      1.0000 0.20700  0.55600  0.86100  Biso   1.000  H
  H30      1.0000 0.70700  0.05600  0.36100  Biso   1.000  H
  H31      1.0000 0.29300  0.55600  0.13900  Biso   1.000  H
  H32      1.0000 0.79300  0.05600  0.63900  Biso   1.000  H
  C1       1.0000 0.45680  0.20513  0.04426  Biso   1.000  C
  C2       1.0000 0.95680  0.70513  0.54426  Biso   1.000  C
  C3       1.0000 0.04320  0.20513  0.95574  Biso   1.000  C
  C4       1.0000 0.54320  0.70513  0.45574  Biso   1.000  C
  C5       1.0000 0.54320  0.79487  0.95574  Biso   1.000  C
  C6       1.0000 0.04320  0.29487  0.45574  Biso   1.000  C
  C7       1.0000 0.95680  0.79487  0.04426  Biso   1.000  C
  C8       1.0000 0.45680  0.29487  0.54426  Biso   1.000  C
  C9       1.0000 0.39690  0.25190  0.95180  Biso   1.000  C
  C10      1.0000 0.89690  0.75190  0.45180  Biso   1.000  C
  C11      1.0000 0.10310  0.25190  0.04820  Biso   1.000  C
  C12      1.0000 0.60310  0.75190  0.54820  Biso   1.000  C
  C13      1.0000 0.60310  0.74810  0.04820  Biso   1.000  C
  C14      1.0000 0.10310  0.24810  0.54820  Biso   1.000  C
  C15      1.0000 0.89690  0.74810  0.95180  Biso   1.000  C
  C16      1.0000 0.39690  0.24810  0.45180  Biso   1.000  C
  H33      1.0000 0.35500  0.23120  0.88500  Biso   1.000  H
  H34      1.0000 0.85500  0.73120  0.38500  Biso   1.000  H
  H35      1.0000 0.14500  0.23120  0.11500  Biso   1.000  H
  H36      1.0000 0.64500  0.73120  0.61500  Biso   1.000  H
  H37      1.0000 0.64500  0.76880  0.11500  Biso   1.000  H
  H38      1.0000 0.14500  0.26880  0.61500  Biso   1.000  H
  H39      1.0000 0.85500  0.76880  0.88500  Biso   1.000  H
  H40      1.0000 0.35500  0.26880  0.38500  Biso   1.000  H
  C17      1.0000 0.39770  0.33237  0.96273  Biso   1.000  C
  C18      1.0000 0.89770  0.83237  0.46273  Biso   1.000  C
  C19      1.0000 0.10230  0.33237  0.03727  Biso   1.000  C
  C20      1.0000 0.60230  0.83237  0.53727  Biso   1.000  C
  C21      1.0000 0.60230  0.66763  0.03727  Biso   1.000  C
  C22      1.0000 0.10230  0.16763  0.53727  Biso   1.000  C
  C23      1.0000 0.89770  0.66763  0.96273  Biso   1.000  C
  C24      1.0000 0.39770  0.16763  0.46273  Biso   1.000  C
  C25      1.0000 0.51740  0.31953  0.15758  Biso   1.000  C
  C26      1.0000 0.01740  0.81953  0.65758  Biso   1.000  C
  C27      1.0000 0.98260  0.31953  0.84242  Biso   1.000  C
  C28      1.0000 0.48260  0.81953  0.34242  Biso   1.000  C
  C29      1.0000 0.48260  0.68047  0.84242  Biso   1.000  C
  C30      1.0000 0.98260  0.18047  0.34242  Biso   1.000  C
  C31      1.0000 0.01740  0.68047  0.15758  Biso   1.000  C
  C32      1.0000 0.51740  0.18047  0.65758  Biso   1.000  C
  C33      1.0000 0.45990  0.36665  0.06556  Biso   1.000  C
  C34      1.0000 0.95990  0.86665  0.56556  Biso   1.000  C
  C35      1.0000 0.04010  0.36665  0.93444  Biso   1.000  C
  C36      1.0000 0.54010  0.86665  0.43444  Biso   1.000  C
  C37      1.0000 0.54010  0.63335  0.93444  Biso   1.000  C
  C38      1.0000 0.04010  0.13335  0.43444  Biso   1.000  C
  C39      1.0000 0.95990  0.63335  0.06556  Biso   1.000  C
  C40      1.0000 0.45990  0.13335  0.56556  Biso   1.000  C
  H41      1.0000 0.46100  0.41810  0.07200  Biso   1.000  H
  H42      1.0000 0.96100  0.91810  0.57200  Biso   1.000  H
  H43      1.0000 0.03900  0.41810  0.92800  Biso   1.000  H
  H44      1.0000 0.53900  0.91810  0.42800  Biso   1.000  H
  H45      1.0000 0.53900  0.58190  0.92800  Biso   1.000  H
  H46      1.0000 0.03900  0.08190  0.42800  Biso   1.000  H
  H47      1.0000 0.96100  0.58190  0.07200  Biso   1.000  H
  H48      1.0000 0.46100  0.08190  0.57200  Biso   1.000  H
  C41      1.0000 0.51590  0.23938  0.14738  Biso   1.000  C
  C42      1.0000 0.01590  0.73938  0.64738  Biso   1.000  C
  C43      1.0000 0.98410  0.23938  0.85262  Biso   1.000  C
  C44      1.0000 0.48410  0.73938  0.35262  Biso   1.000  C
  C45      1.0000 0.48410  0.76062  0.85262  Biso   1.000  C
  C46      1.0000 0.98410  0.26062  0.35262  Biso   1.000  C
  C47      1.0000 0.01590  0.76062  0.14738  Biso   1.000  C
  C48      1.0000 0.51590  0.26062  0.64738  Biso   1.000  C
  H49      1.0000 0.55100  0.21220  0.20500  Biso   1.000  H
  H50      1.0000 0.05100  0.71220  0.70500  Biso   1.000  H
  H51      1.0000 0.94900  0.21220  0.79500  Biso   1.000  H
  H52      1.0000 0.44900  0.71220  0.29500  Biso   1.000  H
  H53      1.0000 0.44900  0.78780  0.79500  Biso   1.000  H
  H54      1.0000 0.94900  0.28780  0.29500  Biso   1.000  H
  H55      1.0000 0.05100  0.78780  0.20500  Biso   1.000  H
  H56      1.0000 0.55100  0.28780  0.70500  Biso   1.000  H
  C49      1.0000 0.33130  0.38274  0.86447  Biso   1.000  C
  C50      1.0000 0.83130  0.88274  0.36447  Biso   1.000  C
  C51      1.0000 0.16870  0.38274  0.13553  Biso   1.000  C
  C52      1.0000 0.66870  0.88274  0.63553  Biso   1.000  C
  C53      1.0000 0.66870  0.61726  0.13553  Biso   1.000  C
  C54      1.0000 0.16870  0.11726  0.63553  Biso   1.000  C
  C55      1.0000 0.83130  0.61726  0.86447  Biso   1.000  C
  C56      1.0000 0.33130  0.11726  0.36447  Biso   1.000  C
  C57      1.0000 0.58600  0.35438  0.26905  Biso   1.000  C
  C58      1.0000 0.08600  0.85438  0.76905  Biso   1.000  C
  C59      1.0000 0.91400  0.35438  0.73095  Biso   1.000  C
  C60      1.0000 0.41400  0.85438  0.23095  Biso   1.000  C
  C61      1.0000 0.41400  0.64562  0.73095  Biso   1.000  C
  C62      1.0000 0.91400  0.14562  0.23095  Biso   1.000  C
  C63      1.0000 0.08600  0.64562  0.26905  Biso   1.000  C
  C64      1.0000 0.58600  0.14562  0.76905  Biso   1.000  C
