data_image0
_cell_length_a       20.5011
_cell_length_b       12.5304
_cell_length_c       16.3835
_cell_angle_alpha    90
_cell_angle_beta     95.403
_cell_angle_gamma    90

_symmetry_space_group_name_H-M    "P 1"
_symmetry_int_tables_number       1

loop_
  _symmetry_equiv_pos_as_xyz
  'x, y, z'

loop_
  _atom_site_label
  _atom_site_occupancy
  _atom_site_fract_x
  _atom_site_fract_y
  _atom_site_fract_z
  _atom_site_thermal_displace_type
  _atom_site_B_iso_or_equiv
  _atom_site_type_symbol
  Mo1      1.0000 0.07901  0.40487  0.20600  Biso   1.000  Mo
  Mo2      1.0000 0.57901  0.90487  0.20600  Biso   1.000  Mo
  Mo3      1.0000 0.92099  0.40487  0.29400  Biso   1.000  Mo
  Mo4      1.0000 0.42099  0.90487  0.29400  Biso   1.000  Mo
  Mo5      1.0000 0.92099  0.59513  0.79400  Biso   1.000  Mo
  Mo6      1.0000 0.42099  0.09513  0.79400  Biso   1.000  Mo
  Mo7      1.0000 0.07901  0.59513  0.70600  Biso   1.000  Mo
  Mo8      1.0000 0.57901  0.09513  0.70600  Biso   1.000  Mo
  Mo9      1.0000 0.10147  0.65639  0.14891  Biso   1.000  Mo
  Mo10     1.0000 0.60147  0.15639  0.14891  Biso   1.000  Mo
  Mo11     1.0000 0.89853  0.65639  0.35109  Biso   1.000  Mo
  Mo12     1.0000 0.39853  0.15639  0.35109  Biso   1.000  Mo
  Mo13     1.0000 0.89853  0.34361  0.85109  Biso   1.000  Mo
  Mo14     1.0000 0.39853  0.84361  0.85109  Biso   1.000  Mo
  Mo15     1.0000 0.10147  0.34361  0.64891  Biso   1.000  Mo
  Mo16     1.0000 0.60147  0.84361  0.64891  Biso   1.000  Mo
  Mo17     1.0000 0.00000  0.81546  0.25000  Biso   1.000  Mo
  Mo18     1.0000 0.50000  0.31546  0.25000  Biso   1.000  Mo
  Mo19     1.0000 0.00000  0.18454  0.75000  Biso   1.000  Mo
  Mo20     1.0000 0.50000  0.68454  0.75000  Biso   1.000  Mo
  P1       1.0000 0.05907  0.58446  0.34628  Biso   1.000  P
  P2       1.0000 0.55907  0.08446  0.34628  Biso   1.000  P
  P3       1.0000 0.94093  0.58446  0.15372  Biso   1.000  P
  P4       1.0000 0.44093  0.08446  0.15372  Biso   1.000  P
  P5       1.0000 0.94093  0.41554  0.65372  Biso   1.000  P
  P6       1.0000 0.44093  0.91554  0.65372  Biso   1.000  P
  P7       1.0000 0.05907  0.41554  0.84628  Biso   1.000  P
  P8       1.0000 0.55907  0.91554  0.84628  Biso   1.000  P
  O1       1.0000 0.05724  0.36310  0.10592  Biso   1.000  O
  O2       1.0000 0.55724  0.86310  0.10592  Biso   1.000  O
  O3       1.0000 0.94276  0.36310  0.39408  Biso   1.000  O
  O4       1.0000 0.44276  0.86310  0.39408  Biso   1.000  O
  O5       1.0000 0.94276  0.63690  0.89408  Biso   1.000  O
  O6       1.0000 0.44276  0.13690  0.89408  Biso   1.000  O
  O7       1.0000 0.05724  0.63690  0.60592  Biso   1.000  O
  O8       1.0000 0.55724  0.13690  0.60592  Biso   1.000  O
  O9       1.0000 0.00000  0.35990  0.25000  Biso   1.000  O
  O10      1.0000 0.50000  0.85990  0.25000  Biso   1.000  O
  O11      1.0000 0.00000  0.64010  0.75000  Biso   1.000  O
  O12      1.0000 0.50000  0.14010  0.75000  Biso   1.000  O
  O13      1.0000 0.13370  0.31080  0.24320  Biso   1.000  O
  O14      1.0000 0.63370  0.81080  0.24320  Biso   1.000  O
  O15      1.0000 0.86630  0.31080  0.25680  Biso   1.000  O
  O16      1.0000 0.36630  0.81080  0.25680  Biso   1.000  O
  O17      1.0000 0.86630  0.68920  0.75680  Biso   1.000  O
  O18      1.0000 0.36630  0.18920  0.75680  Biso   1.000  O
  O19      1.0000 0.13370  0.68920  0.74320  Biso   1.000  O
  O20      1.0000 0.63370  0.18920  0.74320  Biso   1.000  O
  O21      1.0000 0.09499  0.48290  0.32647  Biso   1.000  O
  O22      1.0000 0.59499  0.98290  0.32647  Biso   1.000  O
  O23      1.0000 0.90501  0.48290  0.17353  Biso   1.000  O
  O24      1.0000 0.40501  0.98290  0.17353  Biso   1.000  O
  O25      1.0000 0.90501  0.51710  0.67353  Biso   1.000  O
  O26      1.0000 0.40501  0.01710  0.67353  Biso   1.000  O
  O27      1.0000 0.09499  0.51710  0.82647  Biso   1.000  O
  O28      1.0000 0.59499  0.01710  0.82647  Biso   1.000  O
  O29      1.0000 0.07258  0.67450  0.28538  Biso   1.000  O
  O30      1.0000 0.57258  0.17450  0.28538  Biso   1.000  O
  O31      1.0000 0.92742  0.67450  0.21462  Biso   1.000  O
  O32      1.0000 0.42742  0.17450  0.21462  Biso   1.000  O
  O33      1.0000 0.92742  0.32550  0.71462  Biso   1.000  O
  O34      1.0000 0.42742  0.82550  0.71462  Biso   1.000  O
  O35      1.0000 0.07258  0.32550  0.78538  Biso   1.000  O
  O36      1.0000 0.57258  0.82550  0.78538  Biso   1.000  O
  O37      1.0000 0.03731  0.77110  0.15170  Biso   1.000  O
  O38      1.0000 0.53731  0.27110  0.15170  Biso   1.000  O
  O39      1.0000 0.96269  0.77110  0.34830  Biso   1.000  O
  O40      1.0000 0.46269  0.27110  0.34830  Biso   1.000  O
  O41      1.0000 0.96269  0.22890  0.84830  Biso   1.000  O
  O42      1.0000 0.46269  0.72890  0.84830  Biso   1.000  O
  O43      1.0000 0.03731  0.22890  0.65170  Biso   1.000  O
  O44      1.0000 0.53731  0.72890  0.65170  Biso   1.000  O
  O45      1.0000 0.94190  0.89960  0.20570  Biso   1.000  O
  O46      1.0000 0.44190  0.39960  0.20570  Biso   1.000  O
  O47      1.0000 0.05810  0.89960  0.29430  Biso   1.000  O
  O48      1.0000 0.55810  0.39960  0.29430  Biso   1.000  O
  O49      1.0000 0.05810  0.10040  0.79430  Biso   1.000  O
  O50      1.0000 0.55810  0.60040  0.79430  Biso   1.000  O
  O51      1.0000 0.94190  0.10040  0.70570  Biso   1.000  O
  O52      1.0000 0.44190  0.60040  0.70570  Biso   1.000  O
  O53      1.0000 0.09480  0.64060  0.04390  Biso   1.000  O
  O54      1.0000 0.59480  0.14060  0.04390  Biso   1.000  O
  O55      1.0000 0.90520  0.64060  0.45610  Biso   1.000  O
  O56      1.0000 0.40520  0.14060  0.45610  Biso   1.000  O
  O57      1.0000 0.90520  0.35940  0.95610  Biso   1.000  O
  O58      1.0000 0.40520  0.85940  0.95610  Biso   1.000  O
  O59      1.0000 0.09480  0.35940  0.54390  Biso   1.000  O
  O60      1.0000 0.59480  0.85940  0.54390  Biso   1.000  O
  O61      1.0000 0.17098  0.72990  0.17230  Biso   1.000  O
  O62      1.0000 0.67098  0.22990  0.17230  Biso   1.000  O
  O63      1.0000 0.82902  0.72990  0.32770  Biso   1.000  O
  O64      1.0000 0.32902  0.22990  0.32770  Biso   1.000  O
  O65      1.0000 0.82902  0.27010  0.82770  Biso   1.000  O
  O66      1.0000 0.32902  0.77010  0.82770  Biso   1.000  O
  O67      1.0000 0.17098  0.27010  0.67230  Biso   1.000  O
  O68      1.0000 0.67098  0.77010  0.67230  Biso   1.000  O
  O69      1.0000 0.13579  0.52040  0.18235  Biso   1.000  O
  O70      1.0000 0.63579  0.02040  0.18235  Biso   1.000  O
  O71      1.0000 0.86421  0.52040  0.31765  Biso   1.000  O
  O72      1.0000 0.36421  0.02040  0.31765  Biso   1.000  O
  O73      1.0000 0.86421  0.47960  0.81765  Biso   1.000  O
  O74      1.0000 0.36421  0.97960  0.81765  Biso   1.000  O
  O75      1.0000 0.13579  0.47960  0.68235  Biso   1.000  O
  O76      1.0000 0.63579  0.97960  0.68235  Biso   1.000  O
  O77      1.0000 0.07748  0.61740  0.43470  Biso   1.000  O
  O78      1.0000 0.57748  0.11740  0.43470  Biso   1.000  O
  O79      1.0000 0.92252  0.61740  0.06530  Biso   1.000  O
  O80      1.0000 0.42252  0.11740  0.06530  Biso   1.000  O
  O81      1.0000 0.92252  0.38260  0.56530  Biso   1.000  O
  O82      1.0000 0.42252  0.88260  0.56530  Biso   1.000  O
  O83      1.0000 0.07748  0.38260  0.93470  Biso   1.000  O
  O84      1.0000 0.57748  0.88260  0.93470  Biso   1.000  O
  O85      1.0000 0.98494  0.55560  0.33887  Biso   1.000  O
  O86      1.0000 0.48494  0.05560  0.33887  Biso   1.000  O
  O87      1.0000 0.01506  0.55560  0.16113  Biso   1.000  O
  O88      1.0000 0.51506  0.05560  0.16113  Biso   1.000  O
  O89      1.0000 0.01506  0.44440  0.66113  Biso   1.000  O
  O90      1.0000 0.51506  0.94440  0.66113  Biso   1.000  O
  O91      1.0000 0.98494  0.44440  0.83887  Biso   1.000  O
  O92      1.0000 0.48494  0.94440  0.83887  Biso   1.000  O
  Cu1      1.0000 0.10767  0.72803  0.51170  Biso   1.000  Cu
  Cu2      1.0000 0.60767  0.22803  0.51170  Biso   1.000  Cu
  Cu3      1.0000 0.89233  0.72803  0.98830  Biso   1.000  Cu
  Cu4      1.0000 0.39233  0.22803  0.98830  Biso   1.000  Cu
  Cu5      1.0000 0.89233  0.27197  0.48830  Biso   1.000  Cu
  Cu6      1.0000 0.39233  0.77197  0.48830  Biso   1.000  Cu
  Cu7      1.0000 0.10767  0.27197  0.01170  Biso   1.000  Cu
  Cu8      1.0000 0.60767  0.77197  0.01170  Biso   1.000  Cu
  N1       1.0000 0.15120  0.84120  0.58310  Biso   1.000  N
  N2       1.0000 0.65120  0.34120  0.58310  Biso   1.000  N
  N3       1.0000 0.84880  0.84120  0.91690  Biso   1.000  N
  N4       1.0000 0.34880  0.34120  0.91690  Biso   1.000  N
  N5       1.0000 0.84880  0.15880  0.41690  Biso   1.000  N
  N6       1.0000 0.34880  0.65880  0.41690  Biso   1.000  N
  N7       1.0000 0.15120  0.15880  0.08310  Biso   1.000  N
  N8       1.0000 0.65120  0.65880  0.08310  Biso   1.000  N
  N9       1.0000 0.19230  0.65380  0.54400  Biso   1.000  N
  N10      1.0000 0.69230  0.15380  0.54400  Biso   1.000  N
  N11      1.0000 0.80770  0.65380  0.95600  Biso   1.000  N
  N12      1.0000 0.30770  0.15380  0.95600  Biso   1.000  N
  N13      1.0000 0.80770  0.34620  0.45600  Biso   1.000  N
  N14      1.0000 0.30770  0.84620  0.45600  Biso   1.000  N
  N15      1.0000 0.19230  0.34620  0.04400  Biso   1.000  N
  N16      1.0000 0.69230  0.84620  0.04400  Biso   1.000  N
  C1       1.0000 0.23320  0.70790  0.59780  Biso   1.000  C
  C2       1.0000 0.73320  0.20790  0.59780  Biso   1.000  C
  C3       1.0000 0.76680  0.70790  0.90220  Biso   1.000  C
  C4       1.0000 0.26680  0.20790  0.90220  Biso   1.000  C
  C5       1.0000 0.76680  0.29210  0.40220  Biso   1.000  C
  C6       1.0000 0.26680  0.79210  0.40220  Biso   1.000  C
  C7       1.0000 0.23320  0.29210  0.09780  Biso   1.000  C
  C8       1.0000 0.73320  0.79210  0.09780  Biso   1.000  C
  C9       1.0000 0.21160  0.81520  0.61830  Biso   1.000  C
  C10      1.0000 0.71160  0.31520  0.61830  Biso   1.000  C
  C11      1.0000 0.78840  0.81520  0.88170  Biso   1.000  C
  C12      1.0000 0.28840  0.31520  0.88170  Biso   1.000  C
  C13      1.0000 0.78840  0.18480  0.38170  Biso   1.000  C
  C14      1.0000 0.28840  0.68480  0.38170  Biso   1.000  C
  C15      1.0000 0.21160  0.18480  0.11830  Biso   1.000  C
  C16      1.0000 0.71160  0.68480  0.11830  Biso   1.000  C
  C17      1.0000 0.20680  0.55520  0.52200  Biso   1.000  C
  C18      1.0000 0.70680  0.05520  0.52200  Biso   1.000  C
  C19      1.0000 0.79320  0.55520  0.97800  Biso   1.000  C
  C20      1.0000 0.29320  0.05520  0.97800  Biso   1.000  C
  C21      1.0000 0.79320  0.44480  0.47800  Biso   1.000  C
  C22      1.0000 0.29320  0.94480  0.47800  Biso   1.000  C
  C23      1.0000 0.20680  0.44480  0.02200  Biso   1.000  C
  C24      1.0000 0.70680  0.94480  0.02200  Biso   1.000  C
  H1       1.0000 0.17760  0.51890  0.48490  Biso   1.000  H
  H2       1.0000 0.67760  0.01890  0.48490  Biso   1.000  H
  H3       1.0000 0.82240  0.51890  0.01510  Biso   1.000  H
  H4       1.0000 0.32240  0.01890  0.01510  Biso   1.000  H
  H5       1.0000 0.82240  0.48110  0.51510  Biso   1.000  H
  H6       1.0000 0.32240  0.98110  0.51510  Biso   1.000  H
  H7       1.0000 0.17760  0.48110  0.98490  Biso   1.000  H
  H8       1.0000 0.67760  0.98110  0.98490  Biso   1.000  H
  C25      1.0000 0.12650  0.93810  0.59910  Biso   1.000  C
  C26      1.0000 0.62650  0.43810  0.59910  Biso   1.000  C
  C27      1.0000 0.87350  0.93810  0.90090  Biso   1.000  C
  C28      1.0000 0.37350  0.43810  0.90090  Biso   1.000  C
  C29      1.0000 0.87350  0.06190  0.40090  Biso   1.000  C
  C30      1.0000 0.37350  0.56190  0.40090  Biso   1.000  C
  C31      1.0000 0.12650  0.06190  0.09910  Biso   1.000  C
  C32      1.0000 0.62650  0.56190  0.09910  Biso   1.000  C
  H9       1.0000 0.08500  0.95660  0.57550  Biso   1.000  H
  H10      1.0000 0.58500  0.45660  0.57550  Biso   1.000  H
  H11      1.0000 0.91500  0.95660  0.92450  Biso   1.000  H
  H12      1.0000 0.41500  0.45660  0.92450  Biso   1.000  H
  H13      1.0000 0.91500  0.04340  0.42450  Biso   1.000  H
  H14      1.0000 0.41500  0.54340  0.42450  Biso   1.000  H
  H15      1.0000 0.08500  0.04340  0.07550  Biso   1.000  H
  H16      1.0000 0.58500  0.54340  0.07550  Biso   1.000  H
  O93      1.0000 0.03070  0.81890  0.48580  Biso   1.000  O
  O94      1.0000 0.53070  0.31890  0.48580  Biso   1.000  O
  O95      1.0000 0.96930  0.81890  0.01420  Biso   1.000  O
  O96      1.0000 0.46930  0.31890  0.01420  Biso   1.000  O
  O97      1.0000 0.96930  0.18110  0.51420  Biso   1.000  O
  O98      1.0000 0.46930  0.68110  0.51420  Biso   1.000  O
  O99      1.0000 0.03070  0.18110  0.98580  Biso   1.000  O
  O100     1.0000 0.53070  0.68110  0.98580  Biso   1.000  O
  H17      1.0000 0.01200  0.80110  0.44150  Biso   1.000  H
  H18      1.0000 0.51200  0.30110  0.44150  Biso   1.000  H
  H19      1.0000 0.98800  0.80110  0.05850  Biso   1.000  H
  H20      1.0000 0.48800  0.30110  0.05850  Biso   1.000  H
  H21      1.0000 0.98800  0.19890  0.55850  Biso   1.000  H
  H22      1.0000 0.48800  0.69890  0.55850  Biso   1.000  H
  H23      1.0000 0.01200  0.19890  0.94150  Biso   1.000  H
  H24      1.0000 0.51200  0.69890  0.94150  Biso   1.000  H
  H25      1.0000 0.99630  0.81290  0.52380  Biso   1.000  H
  H26      1.0000 0.49630  0.31290  0.52380  Biso   1.000  H
  H27      1.0000 0.00370  0.81290  0.97620  Biso   1.000  H
  H28      1.0000 0.50370  0.31290  0.97620  Biso   1.000  H
  H29      1.0000 0.00370  0.18710  0.47620  Biso   1.000  H
  H30      1.0000 0.50370  0.68710  0.47620  Biso   1.000  H
  H31      1.0000 0.99630  0.18710  0.02380  Biso   1.000  H
  H32      1.0000 0.49630  0.68710  0.02380  Biso   1.000  H
  C33      1.0000 0.24830  0.88600  0.66930  Biso   1.000  C
  C34      1.0000 0.74830  0.38600  0.66930  Biso   1.000  C
  C35      1.0000 0.75170  0.88600  0.83070  Biso   1.000  C
  C36      1.0000 0.25170  0.38600  0.83070  Biso   1.000  C
  C37      1.0000 0.75170  0.11400  0.33070  Biso   1.000  C
  C38      1.0000 0.25170  0.61400  0.33070  Biso   1.000  C
  C39      1.0000 0.24830  0.11400  0.16930  Biso   1.000  C
  C40      1.0000 0.74830  0.61400  0.16930  Biso   1.000  C
  H33      1.0000 0.28960  0.86680  0.69280  Biso   1.000  H
  H34      1.0000 0.78960  0.36680  0.69280  Biso   1.000  H
  H35      1.0000 0.71040  0.86680  0.80720  Biso   1.000  H
  H36      1.0000 0.21040  0.36680  0.80720  Biso   1.000  H
  H37      1.0000 0.71040  0.13320  0.30720  Biso   1.000  H
  H38      1.0000 0.21040  0.63320  0.30720  Biso   1.000  H
  H39      1.0000 0.28960  0.13320  0.19280  Biso   1.000  H
  H40      1.0000 0.78960  0.63320  0.19280  Biso   1.000  H
  C41      1.0000 0.29250  0.66230  0.62960  Biso   1.000  C
  C42      1.0000 0.79250  0.16230  0.62960  Biso   1.000  C
  C43      1.0000 0.70750  0.66230  0.87040  Biso   1.000  C
  C44      1.0000 0.20750  0.16230  0.87040  Biso   1.000  C
  C45      1.0000 0.70750  0.33770  0.37040  Biso   1.000  C
  C46      1.0000 0.20750  0.83770  0.37040  Biso   1.000  C
  C47      1.0000 0.29250  0.33770  0.12960  Biso   1.000  C
  C48      1.0000 0.79250  0.83770  0.12960  Biso   1.000  C
  H41      1.0000 0.32140  0.70010  0.66600  Biso   1.000  H
  H42      1.0000 0.82140  0.20010  0.66600  Biso   1.000  H
  H43      1.0000 0.67860  0.70010  0.83400  Biso   1.000  H
  H44      1.0000 0.17860  0.20010  0.83400  Biso   1.000  H
  H45      1.0000 0.67860  0.29990  0.33400  Biso   1.000  H
  H46      1.0000 0.17860  0.79990  0.33400  Biso   1.000  H
  H47      1.0000 0.32140  0.29990  0.16600  Biso   1.000  H
  H48      1.0000 0.82140  0.79990  0.16600  Biso   1.000  H
  C49      1.0000 0.30710  0.56010  0.60600  Biso   1.000  C
  C50      1.0000 0.80710  0.06010  0.60600  Biso   1.000  C
  C51      1.0000 0.69290  0.56010  0.89400  Biso   1.000  C
  C52      1.0000 0.19290  0.06010  0.89400  Biso   1.000  C
  C53      1.0000 0.69290  0.43990  0.39400  Biso   1.000  C
  C54      1.0000 0.19290  0.93990  0.39400  Biso   1.000  C
  C55      1.0000 0.30710  0.43990  0.10600  Biso   1.000  C
  C56      1.0000 0.80710  0.93990  0.10600  Biso   1.000  C
  H49      1.0000 0.34640  0.52840  0.62620  Biso   1.000  H
  H50      1.0000 0.84640  0.02840  0.62620  Biso   1.000  H
  H51      1.0000 0.65360  0.52840  0.87380  Biso   1.000  H
  H52      1.0000 0.15360  0.02840  0.87380  Biso   1.000  H
  H53      1.0000 0.65360  0.47160  0.37380  Biso   1.000  H
  H54      1.0000 0.15360  0.97160  0.37380  Biso   1.000  H
  H55      1.0000 0.34640  0.47160  0.12620  Biso   1.000  H
  H56      1.0000 0.84640  0.97160  0.12620  Biso   1.000  H
  C57      1.0000 0.22290  0.98470  0.68450  Biso   1.000  C
  C58      1.0000 0.72290  0.48470  0.68450  Biso   1.000  C
  C59      1.0000 0.77710  0.98470  0.81550  Biso   1.000  C
  C60      1.0000 0.27710  0.48470  0.81550  Biso   1.000  C
  C61      1.0000 0.77710  0.01530  0.31550  Biso   1.000  C
  C62      1.0000 0.27710  0.51530  0.31550  Biso   1.000  C
  C63      1.0000 0.22290  0.01530  0.18450  Biso   1.000  C
  C64      1.0000 0.72290  0.51530  0.18450  Biso   1.000  C
  H57      1.0000 0.24700  0.03330  0.71790  Biso   1.000  H
  H58      1.0000 0.74700  0.53330  0.71790  Biso   1.000  H
  H59      1.0000 0.75300  0.03330  0.78210  Biso   1.000  H
  H60      1.0000 0.25300  0.53330  0.78210  Biso   1.000  H
  H61      1.0000 0.75300  0.96670  0.28210  Biso   1.000  H
  H62      1.0000 0.25300  0.46670  0.28210  Biso   1.000  H
  H63      1.0000 0.24700  0.96670  0.21790  Biso   1.000  H
  H64      1.0000 0.74700  0.46670  0.21790  Biso   1.000  H
  C65      1.0000 0.16150  0.01050  0.64990  Biso   1.000  C
  C66      1.0000 0.66150  0.51050  0.64990  Biso   1.000  C
  C67      1.0000 0.83850  0.01050  0.85010  Biso   1.000  C
  C68      1.0000 0.33850  0.51050  0.85010  Biso   1.000  C
  C69      1.0000 0.83850  0.98950  0.35010  Biso   1.000  C
  C70      1.0000 0.33850  0.48950  0.35010  Biso   1.000  C
  C71      1.0000 0.16150  0.98950  0.14990  Biso   1.000  C
  C72      1.0000 0.66150  0.48950  0.14990  Biso   1.000  C
  H65      1.0000 0.14330  0.07660  0.66040  Biso   1.000  H
  H66      1.0000 0.64330  0.57660  0.66040  Biso   1.000  H
  H67      1.0000 0.85670  0.07660  0.83960  Biso   1.000  H
  H68      1.0000 0.35670  0.57660  0.83960  Biso   1.000  H
  H69      1.0000 0.85670  0.92340  0.33960  Biso   1.000  H
  H70      1.0000 0.35670  0.42340  0.33960  Biso   1.000  H
  H71      1.0000 0.14330  0.92340  0.16040  Biso   1.000  H
  H72      1.0000 0.64330  0.42340  0.16040  Biso   1.000  H
  C73      1.0000 0.26370  0.50540  0.55260  Biso   1.000  C
  C74      1.0000 0.76370  0.00540  0.55260  Biso   1.000  C
  C75      1.0000 0.73630  0.50540  0.94740  Biso   1.000  C
  C76      1.0000 0.23630  0.00540  0.94740  Biso   1.000  C
  C77      1.0000 0.73630  0.49460  0.44740  Biso   1.000  C
  C78      1.0000 0.23630  0.99460  0.44740  Biso   1.000  C
  C79      1.0000 0.26370  0.49460  0.05260  Biso   1.000  C
  C80      1.0000 0.76370  0.99460  0.05260  Biso   1.000  C
  H73      1.0000 0.27250  0.43580  0.53730  Biso   1.000  H
  H74      1.0000 0.77250  0.93580  0.53730  Biso   1.000  H
  H75      1.0000 0.72750  0.43580  0.96270  Biso   1.000  H
  H76      1.0000 0.22750  0.93580  0.96270  Biso   1.000  H
  H77      1.0000 0.72750  0.56420  0.46270  Biso   1.000  H
  H78      1.0000 0.22750  0.06420  0.46270  Biso   1.000  H
  H79      1.0000 0.27250  0.56420  0.03730  Biso   1.000  H
  H80      1.0000 0.77250  0.06420  0.03730  Biso   1.000  H
  Na1      1.0000 0.00000  0.50000  0.50000  Biso   1.000  Na
  Na2      1.0000 0.50000  0.00000  0.50000  Biso   1.000  Na
  Na3      1.0000 0.00000  0.50000  0.00000  Biso   1.000  Na
  Na4      1.0000 0.50000  0.00000  0.00000  Biso   1.000  Na
  O101     1.0000 0.04770  0.18630  0.37620  Biso   1.000  O
  O102     1.0000 0.54770  0.68630  0.37620  Biso   1.000  O
  O103     1.0000 0.95230  0.18630  0.12380  Biso   1.000  O
  O104     1.0000 0.45230  0.68630  0.12380  Biso   1.000  O
  O105     1.0000 0.95230  0.81370  0.62380  Biso   1.000  O
  O106     1.0000 0.45230  0.31370  0.62380  Biso   1.000  O
  O107     1.0000 0.04770  0.81370  0.87620  Biso   1.000  O
  O108     1.0000 0.54770  0.31370  0.87620  Biso   1.000  O
  O109     1.0000 0.12680  0.32480  0.40260  Biso   1.000  O
  O110     1.0000 0.62680  0.82480  0.40260  Biso   1.000  O
  O111     1.0000 0.87320  0.32480  0.09740  Biso   1.000  O
  O112     1.0000 0.37320  0.82480  0.09740  Biso   1.000  O
  O113     1.0000 0.87320  0.67520  0.59740  Biso   1.000  O
  O114     1.0000 0.37320  0.17520  0.59740  Biso   1.000  O
  O115     1.0000 0.12680  0.67520  0.90260  Biso   1.000  O
  O116     1.0000 0.62680  0.17520  0.90260  Biso   1.000  O
  O117     1.0000 0.22450  0.27930  0.42630  Biso   1.000  O
  O118     1.0000 0.72450  0.77930  0.42630  Biso   1.000  O
  O119     1.0000 0.77550  0.27930  0.07370  Biso   1.000  O
  O120     1.0000 0.27550  0.77930  0.07370  Biso   1.000  O
  O121     1.0000 0.77550  0.72070  0.57370  Biso   1.000  O
  O122     1.0000 0.27550  0.22070  0.57370  Biso   1.000  O
  O123     1.0000 0.22450  0.72070  0.92630  Biso   1.000  O
  O124     1.0000 0.72450  0.22070  0.92630  Biso   1.000  O
