data_image0
_cell_length_a       7.4872
_cell_length_b       23.624
_cell_length_c       7.7646
_cell_angle_alpha    90
_cell_angle_beta     105.152
_cell_angle_gamma    90

_symmetry_space_group_name_H-M    "P 1"
_symmetry_int_tables_number       1

loop_
  _symmetry_equiv_pos_as_xyz
  'x, y, z'

loop_
  _atom_site_label
  _atom_site_occupancy
  _atom_site_fract_x
  _atom_site_fract_y
  _atom_site_fract_z
  _atom_site_thermal_displace_type
  _atom_site_B_iso_or_equiv
  _atom_site_type_symbol
  Cu1      1.0000 0.80429  0.82112  0.32994  Biso   1.000  Cu
  Cu2      1.0000 0.19571  0.32112  0.67006  Biso   1.000  Cu
  Cu3      1.0000 0.19571  0.17888  0.67006  Biso   1.000  Cu
  Cu4      1.0000 0.80429  0.67888  0.32994  Biso   1.000  Cu
  O1       1.0000 0.84300  0.75000  0.23300  Biso   1.000  O
  O2       1.0000 0.15700  0.25000  0.76700  Biso   1.000  O
  N1       1.0000 0.77090  0.88380  0.48870  Biso   1.000  N
  N2       1.0000 0.22910  0.38380  0.51130  Biso   1.000  N
  N3       1.0000 0.22910  0.11620  0.51130  Biso   1.000  N
  N4       1.0000 0.77090  0.61620  0.48870  Biso   1.000  N
  C1       1.0000 0.78700  0.93860  0.45600  Biso   1.000  C
  C2       1.0000 0.21300  0.43860  0.54400  Biso   1.000  C
  C3       1.0000 0.21300  0.06140  0.54400  Biso   1.000  C
  C4       1.0000 0.78700  0.56140  0.45600  Biso   1.000  C
  C5       1.0000 0.73800  0.98150  0.56300  Biso   1.000  C
  C6       1.0000 0.26200  0.48150  0.43700  Biso   1.000  C
  C7       1.0000 0.26200  0.01850  0.43700  Biso   1.000  C
  C8       1.0000 0.73800  0.51850  0.56300  Biso   1.000  C
  C9       1.0000 0.67000  0.96430  0.71300  Biso   1.000  C
  C10      1.0000 0.33000  0.46430  0.28700  Biso   1.000  C
  C11      1.0000 0.33000  0.03570  0.28700  Biso   1.000  C
  C12      1.0000 0.67000  0.53570  0.71300  Biso   1.000  C
  C13      1.0000 0.65200  0.90610  0.74000  Biso   1.000  C
  C14      1.0000 0.34800  0.40610  0.26000  Biso   1.000  C
  C15      1.0000 0.34800  0.09390  0.26000  Biso   1.000  C
  C16      1.0000 0.65200  0.59390  0.74000  Biso   1.000  C
  C17      1.0000 0.70270  0.86860  0.63200  Biso   1.000  C
  C18      1.0000 0.29730  0.36860  0.36800  Biso   1.000  C
  C19      1.0000 0.29730  0.13140  0.36800  Biso   1.000  C
  C20      1.0000 0.70270  0.63140  0.63200  Biso   1.000  C
  C21      1.0000 0.69040  0.80680  0.64950  Biso   1.000  C
  C22      1.0000 0.30960  0.30680  0.35050  Biso   1.000  C
  C23      1.0000 0.30960  0.19320  0.35050  Biso   1.000  C
  C24      1.0000 0.69040  0.69320  0.64950  Biso   1.000  C
  C25      1.0000 0.64810  0.77920  0.79750  Biso   1.000  C
  C26      1.0000 0.35190  0.27920  0.20250  Biso   1.000  C
  C27      1.0000 0.35190  0.22080  0.20250  Biso   1.000  C
  C28      1.0000 0.64810  0.72080  0.79750  Biso   1.000  C
  N5       1.0000 0.72630  0.77760  0.51910  Biso   1.000  N
  N6       1.0000 0.27370  0.27760  0.48090  Biso   1.000  N
  N7       1.0000 0.27370  0.22240  0.48090  Biso   1.000  N
  N8       1.0000 0.72630  0.72240  0.51910  Biso   1.000  N
  N9       1.0000 0.51380  0.84170  0.14630  Biso   1.000  N
  N10      1.0000 0.48620  0.34170  0.85370  Biso   1.000  N
  N11      1.0000 0.48620  0.15830  0.85370  Biso   1.000  N
  N12      1.0000 0.51380  0.65830  0.14630  Biso   1.000  N
  C29      1.0000 0.37370  0.86280  0.10790  Biso   1.000  C
  C30      1.0000 0.62630  0.36280  0.89210  Biso   1.000  C
  C31      1.0000 0.62630  0.13720  0.89210  Biso   1.000  C
  C32      1.0000 0.37370  0.63720  0.10790  Biso   1.000  C
  C33      1.0000 0.20690  0.89240  0.05710  Biso   1.000  C
  C34      1.0000 0.79310  0.39240  0.94290  Biso   1.000  C
  C35      1.0000 0.79310  0.10760  0.94290  Biso   1.000  C
  C36      1.0000 0.20690  0.60760  0.05710  Biso   1.000  C
  C37      1.0000 0.06010  0.87710  0.13020  Biso   1.000  C
  C38      1.0000 0.93990  0.37710  0.86980  Biso   1.000  C
  C39      1.0000 0.93990  0.12290  0.86980  Biso   1.000  C
  C40      1.0000 0.06010  0.62290  0.13020  Biso   1.000  C
  N13      1.0000 0.94480  0.86280  0.18880  Biso   1.000  N
  N14      1.0000 0.05520  0.36280  0.81120  Biso   1.000  N
  N15      1.0000 0.05520  0.13720  0.81120  Biso   1.000  N
  N16      1.0000 0.94480  0.63720  0.18880  Biso   1.000  N
  C41      1.0000 0.18100  0.93870  0.93500  Biso   1.000  C
  C42      1.0000 0.81900  0.43870  0.06500  Biso   1.000  C
  C43      1.0000 0.81900  0.06130  0.06500  Biso   1.000  C
  C44      1.0000 0.18100  0.56130  0.93500  Biso   1.000  C
  N17      1.0000 0.16900  0.97400  0.84300  Biso   1.000  N
  N18      1.0000 0.83100  0.47400  0.15700  Biso   1.000  N
  N19      1.0000 0.83100  0.02600  0.15700  Biso   1.000  N
  N20      1.0000 0.16900  0.52600  0.84300  Biso   1.000  N
  C45      1.0000 0.18900  0.75000  0.70800  Biso   1.000  C
  C46      1.0000 0.81100  0.25000  0.29200  Biso   1.000  C
  C47      1.0000 0.21500  0.80300  0.62600  Biso   1.000  C
  C48      1.0000 0.78500  0.30300  0.37400  Biso   1.000  C
  C49      1.0000 0.78500  0.19700  0.37400  Biso   1.000  C
  C50      1.0000 0.21500  0.69700  0.62600  Biso   1.000  C
  N21      1.0000 0.25100  0.84700  0.57500  Biso   1.000  N
  N22      1.0000 0.74900  0.34700  0.42500  Biso   1.000  N
  N23      1.0000 0.74900  0.15300  0.42500  Biso   1.000  N
  N24      1.0000 0.25100  0.65300  0.57500  Biso   1.000  N
  C51      1.0000 0.13700  0.75000  0.87300  Biso   1.000  C
  C52      1.0000 0.86300  0.25000  0.12700  Biso   1.000  C
  N25      1.0000 0.09300  0.75000  0.00000  Biso   1.000  N
  N26      1.0000 0.90700  0.25000  0.00000  Biso   1.000  N
