data_image0
_cell_length_a       29.974
_cell_length_b       7.446
_cell_length_c       23.687
_cell_angle_alpha    90
_cell_angle_beta     118.658
_cell_angle_gamma    90

_symmetry_space_group_name_H-M    "P 1"
_symmetry_int_tables_number       1

loop_
  _symmetry_equiv_pos_as_xyz
  'x, y, z'

loop_
  _atom_site_label
  _atom_site_occupancy
  _atom_site_fract_x
  _atom_site_fract_y
  _atom_site_fract_z
  _atom_site_thermal_displace_type
  _atom_site_B_iso_or_equiv
  _atom_site_type_symbol
  Cu1      1.0000 0.63001  0.09657  0.83544  Biso   1.000  Cu
  Cu2      1.0000 0.13001  0.59657  0.83544  Biso   1.000  Cu
  Cu3      1.0000 0.36999  0.09657  0.66456  Biso   1.000  Cu
  Cu4      1.0000 0.86999  0.59657  0.66456  Biso   1.000  Cu
  Cu5      1.0000 0.36999  0.90343  0.16456  Biso   1.000  Cu
  Cu6      1.0000 0.86999  0.40343  0.16456  Biso   1.000  Cu
  Cu7      1.0000 0.63001  0.90343  0.33544  Biso   1.000  Cu
  Cu8      1.0000 0.13001  0.40343  0.33544  Biso   1.000  Cu
  N1       1.0000 0.58968  0.19819  0.87404  Biso   1.000  N
  N2       1.0000 0.08968  0.69819  0.87404  Biso   1.000  N
  N3       1.0000 0.41032  0.19819  0.62596  Biso   1.000  N
  N4       1.0000 0.91032  0.69819  0.62596  Biso   1.000  N
  N5       1.0000 0.41032  0.80181  0.12596  Biso   1.000  N
  N6       1.0000 0.91032  0.30181  0.12596  Biso   1.000  N
  N7       1.0000 0.58968  0.80181  0.37404  Biso   1.000  N
  N8       1.0000 0.08968  0.30181  0.37404  Biso   1.000  N
  N9       1.0000 0.68074  0.07394  0.93149  Biso   1.000  N
  N10      1.0000 0.18074  0.57394  0.93149  Biso   1.000  N
  N11      1.0000 0.31926  0.07394  0.56851  Biso   1.000  N
  N12      1.0000 0.81926  0.57394  0.56851  Biso   1.000  N
  N13      1.0000 0.31926  0.92606  0.06851  Biso   1.000  N
  N14      1.0000 0.81926  0.42606  0.06851  Biso   1.000  N
  N15      1.0000 0.68074  0.92606  0.43149  Biso   1.000  N
  N16      1.0000 0.18074  0.42606  0.43149  Biso   1.000  N
  C1       1.0000 0.54816  0.29940  0.84327  Biso   1.000  C
  C2       1.0000 0.04816  0.79940  0.84327  Biso   1.000  C
  C3       1.0000 0.45184  0.29940  0.65673  Biso   1.000  C
  C4       1.0000 0.95184  0.79940  0.65673  Biso   1.000  C
  C5       1.0000 0.45184  0.70060  0.15673  Biso   1.000  C
  C6       1.0000 0.95184  0.20060  0.15673  Biso   1.000  C
  C7       1.0000 0.54816  0.70060  0.34327  Biso   1.000  C
  C8       1.0000 0.04816  0.20060  0.34327  Biso   1.000  C
  H1       1.0000 0.53680  0.32760  0.80030  Biso   1.000  H
  H2       1.0000 0.03680  0.82760  0.80030  Biso   1.000  H
  H3       1.0000 0.46320  0.32760  0.69970  Biso   1.000  H
  H4       1.0000 0.96320  0.82760  0.69970  Biso   1.000  H
  H5       1.0000 0.46320  0.67240  0.19970  Biso   1.000  H
  H6       1.0000 0.96320  0.17240  0.19970  Biso   1.000  H
  H7       1.0000 0.53680  0.67240  0.30030  Biso   1.000  H
  H8       1.0000 0.03680  0.17240  0.30030  Biso   1.000  H
  C9       1.0000 0.52132  0.36390  0.87284  Biso   1.000  C
  C10      1.0000 0.02132  0.86390  0.87284  Biso   1.000  C
  C11      1.0000 0.47868  0.36390  0.62716  Biso   1.000  C
  C12      1.0000 0.97868  0.86390  0.62716  Biso   1.000  C
  C13      1.0000 0.47868  0.63610  0.12716  Biso   1.000  C
  C14      1.0000 0.97868  0.13610  0.12716  Biso   1.000  C
  C15      1.0000 0.52132  0.63610  0.37284  Biso   1.000  C
  C16      1.0000 0.02132  0.13610  0.37284  Biso   1.000  C
  H9       1.0000 0.49220  0.43310  0.85020  Biso   1.000  H
  H10      1.0000 0.99220  0.93310  0.85020  Biso   1.000  H
  H11      1.0000 0.50780  0.43310  0.64980  Biso   1.000  H
  H12      1.0000 0.00780  0.93310  0.64980  Biso   1.000  H
  H13      1.0000 0.50780  0.56690  0.14980  Biso   1.000  H
  H14      1.0000 0.00780  0.06690  0.14980  Biso   1.000  H
  H15      1.0000 0.49220  0.56690  0.35020  Biso   1.000  H
  H16      1.0000 0.99220  0.06690  0.35020  Biso   1.000  H
  C17      1.0000 0.53860  0.32340  0.93643  Biso   1.000  C
  C18      1.0000 0.03860  0.82340  0.93643  Biso   1.000  C
  C19      1.0000 0.46140  0.32340  0.56357  Biso   1.000  C
  C20      1.0000 0.96140  0.82340  0.56357  Biso   1.000  C
  C21      1.0000 0.46140  0.67660  0.06357  Biso   1.000  C
  C22      1.0000 0.96140  0.17660  0.06357  Biso   1.000  C
  C23      1.0000 0.53860  0.67660  0.43643  Biso   1.000  C
  C24      1.0000 0.03860  0.17660  0.43643  Biso   1.000  C
  H17      1.0000 0.52140  0.36610  0.95760  Biso   1.000  H
  H18      1.0000 0.02140  0.86610  0.95760  Biso   1.000  H
  H19      1.0000 0.47860  0.36610  0.54240  Biso   1.000  H
  H20      1.0000 0.97860  0.86610  0.54240  Biso   1.000  H
  H21      1.0000 0.47860  0.63390  0.04240  Biso   1.000  H
  H22      1.0000 0.97860  0.13390  0.04240  Biso   1.000  H
  H23      1.0000 0.52140  0.63390  0.45760  Biso   1.000  H
  H24      1.0000 0.02140  0.13390  0.45760  Biso   1.000  H
  C25      1.0000 0.58186  0.21850  0.96921  Biso   1.000  C
  C26      1.0000 0.08186  0.71850  0.96921  Biso   1.000  C
  C27      1.0000 0.41814  0.21850  0.53079  Biso   1.000  C
  C28      1.0000 0.91814  0.71850  0.53079  Biso   1.000  C
  C29      1.0000 0.41814  0.78150  0.03079  Biso   1.000  C
  C30      1.0000 0.91814  0.28150  0.03079  Biso   1.000  C
  C31      1.0000 0.58186  0.78150  0.46921  Biso   1.000  C
  C32      1.0000 0.08186  0.28150  0.46921  Biso   1.000  C
  H25      1.0000 0.59390  0.19020  0.01240  Biso   1.000  H
  H26      1.0000 0.09390  0.69020  0.01240  Biso   1.000  H
  H27      1.0000 0.40610  0.19020  0.48760  Biso   1.000  H
  H28      1.0000 0.90610  0.69020  0.48760  Biso   1.000  H
  H29      1.0000 0.40610  0.80980  0.98760  Biso   1.000  H
  H30      1.0000 0.90610  0.30980  0.98760  Biso   1.000  H
  H31      1.0000 0.59390  0.80980  0.51240  Biso   1.000  H
  H32      1.0000 0.09390  0.30980  0.51240  Biso   1.000  H
  C33      1.0000 0.60679  0.15645  0.93656  Biso   1.000  C
  C34      1.0000 0.10679  0.65645  0.93656  Biso   1.000  C
  C35      1.0000 0.39321  0.15645  0.56344  Biso   1.000  C
  C36      1.0000 0.89321  0.65645  0.56344  Biso   1.000  C
  C37      1.0000 0.39321  0.84355  0.06344  Biso   1.000  C
  C38      1.0000 0.89321  0.34355  0.06344  Biso   1.000  C
  C39      1.0000 0.60679  0.84355  0.43656  Biso   1.000  C
  C40      1.0000 0.10679  0.34355  0.43656  Biso   1.000  C
  C41      1.0000 0.65689  0.06411  0.96650  Biso   1.000  C
  C42      1.0000 0.15689  0.56411  0.96650  Biso   1.000  C
  C43      1.0000 0.34311  0.06411  0.53350  Biso   1.000  C
  C44      1.0000 0.84311  0.56411  0.53350  Biso   1.000  C
  C45      1.0000 0.34311  0.93589  0.03350  Biso   1.000  C
  C46      1.0000 0.84311  0.43589  0.03350  Biso   1.000  C
  C47      1.0000 0.65689  0.93589  0.46650  Biso   1.000  C
  C48      1.0000 0.15689  0.43589  0.46650  Biso   1.000  C
  C49      1.0000 0.73118  0.02999  0.95906  Biso   1.000  C
  C50      1.0000 0.23118  0.52999  0.95906  Biso   1.000  C
  C51      1.0000 0.26882  0.02999  0.54094  Biso   1.000  C
  C52      1.0000 0.76882  0.52999  0.54094  Biso   1.000  C
  C53      1.0000 0.26882  0.97001  0.04094  Biso   1.000  C
  C54      1.0000 0.76882  0.47001  0.04094  Biso   1.000  C
  C55      1.0000 0.73118  0.97001  0.45906  Biso   1.000  C
  C56      1.0000 0.23118  0.47001  0.45906  Biso   1.000  C
  C57      1.0000 0.75870  0.05050  0.92493  Biso   1.000  C
  C58      1.0000 0.25870  0.55050  0.92493  Biso   1.000  C
  C59      1.0000 0.24130  0.05050  0.57507  Biso   1.000  C
  C60      1.0000 0.74130  0.55050  0.57507  Biso   1.000  C
  C61      1.0000 0.24130  0.94950  0.07507  Biso   1.000  C
  C62      1.0000 0.74130  0.44950  0.07507  Biso   1.000  C
  C63      1.0000 0.75870  0.94950  0.42493  Biso   1.000  C
  C64      1.0000 0.25870  0.44950  0.42493  Biso   1.000  C
  H33      1.0000 0.74260  0.09180  0.88270  Biso   1.000  H
  H34      1.0000 0.24260  0.59180  0.88270  Biso   1.000  H
  H35      1.0000 0.25740  0.09180  0.61730  Biso   1.000  H
  H36      1.0000 0.75740  0.59180  0.61730  Biso   1.000  H
  H37      1.0000 0.25740  0.90820  0.11730  Biso   1.000  H
  H38      1.0000 0.75740  0.40820  0.11730  Biso   1.000  H
  H39      1.0000 0.74260  0.90820  0.38270  Biso   1.000  H
  H40      1.0000 0.24260  0.40820  0.38270  Biso   1.000  H
  C65      1.0000 0.80943  0.00890  0.95480  Biso   1.000  C
  C66      1.0000 0.30943  0.50890  0.95480  Biso   1.000  C
  C67      1.0000 0.19057  0.00890  0.54520  Biso   1.000  C
  C68      1.0000 0.69057  0.50890  0.54520  Biso   1.000  C
  C69      1.0000 0.19057  0.99110  0.04520  Biso   1.000  C
  C70      1.0000 0.69057  0.49110  0.04520  Biso   1.000  C
  C71      1.0000 0.80943  0.99110  0.45480  Biso   1.000  C
  C72      1.0000 0.30943  0.49110  0.45480  Biso   1.000  C
  H41      1.0000 0.82760  0.02190  0.93250  Biso   1.000  H
  H42      1.0000 0.32760  0.52190  0.93250  Biso   1.000  H
  H43      1.0000 0.17240  0.02190  0.56750  Biso   1.000  H
  H44      1.0000 0.67240  0.52190  0.56750  Biso   1.000  H
  H45      1.0000 0.17240  0.97810  0.06750  Biso   1.000  H
  H46      1.0000 0.67240  0.47810  0.06750  Biso   1.000  H
  H47      1.0000 0.82760  0.97810  0.43250  Biso   1.000  H
  H48      1.0000 0.32760  0.47810  0.43250  Biso   1.000  H
  C73      1.0000 0.83447  0.94660  0.01881  Biso   1.000  C
  C74      1.0000 0.33447  0.44660  0.01881  Biso   1.000  C
  C75      1.0000 0.16553  0.94660  0.48119  Biso   1.000  C
  C76      1.0000 0.66553  0.44660  0.48119  Biso   1.000  C
  C77      1.0000 0.16553  0.05340  0.98119  Biso   1.000  C
  C78      1.0000 0.66553  0.55340  0.98119  Biso   1.000  C
  C79      1.0000 0.83447  0.05340  0.51881  Biso   1.000  C
  C80      1.0000 0.33447  0.55340  0.51881  Biso   1.000  C
  H49      1.0000 0.86880  0.91740  0.03790  Biso   1.000  H
  H50      1.0000 0.36880  0.41740  0.03790  Biso   1.000  H
  H51      1.0000 0.13120  0.91740  0.46210  Biso   1.000  H
  H52      1.0000 0.63120  0.41740  0.46210  Biso   1.000  H
  H53      1.0000 0.13120  0.08260  0.96210  Biso   1.000  H
  H54      1.0000 0.63120  0.58260  0.96210  Biso   1.000  H
  H55      1.0000 0.86880  0.08260  0.53790  Biso   1.000  H
  H56      1.0000 0.36880  0.58260  0.53790  Biso   1.000  H
  C81      1.0000 0.80894  0.92857  0.05298  Biso   1.000  C
  C82      1.0000 0.30894  0.42857  0.05298  Biso   1.000  C
  C83      1.0000 0.19106  0.92857  0.44702  Biso   1.000  C
  C84      1.0000 0.69106  0.42857  0.44702  Biso   1.000  C
  C85      1.0000 0.19106  0.07143  0.94702  Biso   1.000  C
  C86      1.0000 0.69106  0.57143  0.94702  Biso   1.000  C
  C87      1.0000 0.80894  0.07143  0.55298  Biso   1.000  C
  C88      1.0000 0.30894  0.57143  0.55298  Biso   1.000  C
  H57      1.0000 0.82590  0.88880  0.09540  Biso   1.000  H
  H58      1.0000 0.32590  0.38880  0.09540  Biso   1.000  H
  H59      1.0000 0.17410  0.88880  0.40460  Biso   1.000  H
  H60      1.0000 0.67410  0.38880  0.40460  Biso   1.000  H
  H61      1.0000 0.17410  0.11120  0.90460  Biso   1.000  H
  H62      1.0000 0.67410  0.61120  0.90460  Biso   1.000  H
  H63      1.0000 0.82590  0.11120  0.59540  Biso   1.000  H
  H64      1.0000 0.32590  0.61120  0.59540  Biso   1.000  H
  C89      1.0000 0.75639  0.97071  0.02371  Biso   1.000  C
  C90      1.0000 0.25639  0.47071  0.02371  Biso   1.000  C
  C91      1.0000 0.24361  0.97071  0.47629  Biso   1.000  C
  C92      1.0000 0.74361  0.47071  0.47629  Biso   1.000  C
  C93      1.0000 0.24361  0.02929  0.97629  Biso   1.000  C
  C94      1.0000 0.74361  0.52929  0.97629  Biso   1.000  C
  C95      1.0000 0.75639  0.02929  0.52371  Biso   1.000  C
  C96      1.0000 0.25639  0.52929  0.52371  Biso   1.000  C
  N17      1.0000 0.73058  0.94392  0.05696  Biso   1.000  N
  N18      1.0000 0.23058  0.44392  0.05696  Biso   1.000  N
  N19      1.0000 0.26942  0.94392  0.44304  Biso   1.000  N
  N20      1.0000 0.76942  0.44392  0.44304  Biso   1.000  N
  N21      1.0000 0.26942  0.05608  0.94304  Biso   1.000  N
  N22      1.0000 0.76942  0.55608  0.94304  Biso   1.000  N
  N23      1.0000 0.73058  0.05608  0.55696  Biso   1.000  N
  N24      1.0000 0.23058  0.55608  0.55696  Biso   1.000  N
  C97      1.0000 0.68182  0.98460  0.02904  Biso   1.000  C
  C98      1.0000 0.18182  0.48460  0.02904  Biso   1.000  C
  C99      1.0000 0.31818  0.98460  0.47096  Biso   1.000  C
  C100     1.0000 0.81818  0.48460  0.47096  Biso   1.000  C
  C101     1.0000 0.31818  0.01540  0.97096  Biso   1.000  C
  C102     1.0000 0.81818  0.51540  0.97096  Biso   1.000  C
  C103     1.0000 0.68182  0.01540  0.52904  Biso   1.000  C
  C104     1.0000 0.18182  0.51540  0.52904  Biso   1.000  C
  C105     1.0000 0.65447  0.92680  0.06449  Biso   1.000  C
  C106     1.0000 0.15447  0.42680  0.06449  Biso   1.000  C
  C107     1.0000 0.34553  0.92680  0.43551  Biso   1.000  C
  C108     1.0000 0.84553  0.42680  0.43551  Biso   1.000  C
  C109     1.0000 0.34553  0.07320  0.93551  Biso   1.000  C
  C110     1.0000 0.84553  0.57320  0.93551  Biso   1.000  C
  C111     1.0000 0.65447  0.07320  0.56449  Biso   1.000  C
  C112     1.0000 0.15447  0.57320  0.56449  Biso   1.000  C
  C113     1.0000 0.67736  0.94340  0.13057  Biso   1.000  C
  C114     1.0000 0.17736  0.44340  0.13057  Biso   1.000  C
  C115     1.0000 0.32264  0.94340  0.36943  Biso   1.000  C
  C116     1.0000 0.82264  0.44340  0.36943  Biso   1.000  C
  C117     1.0000 0.32264  0.05660  0.86943  Biso   1.000  C
  C118     1.0000 0.82264  0.55660  0.86943  Biso   1.000  C
  C119     1.0000 0.67736  0.05660  0.63057  Biso   1.000  C
  C120     1.0000 0.17736  0.55660  0.63057  Biso   1.000  C
  H65      1.0000 0.70860  0.00050  0.15340  Biso   1.000  H
  H66      1.0000 0.20860  0.50050  0.15340  Biso   1.000  H
  H67      1.0000 0.29140  0.00050  0.34660  Biso   1.000  H
  H68      1.0000 0.79140  0.50050  0.34660  Biso   1.000  H
  H69      1.0000 0.29140  0.99950  0.84660  Biso   1.000  H
  H70      1.0000 0.79140  0.49950  0.84660  Biso   1.000  H
  H71      1.0000 0.70860  0.99950  0.65340  Biso   1.000  H
  H72      1.0000 0.20860  0.49950  0.65340  Biso   1.000  H
  C121     1.0000 0.65240  0.87230  0.16185  Biso   1.000  C
  C122     1.0000 0.15240  0.37230  0.16185  Biso   1.000  C
  C123     1.0000 0.34760  0.87230  0.33815  Biso   1.000  C
  C124     1.0000 0.84760  0.37230  0.33815  Biso   1.000  C
  C125     1.0000 0.34760  0.12770  0.83815  Biso   1.000  C
  C126     1.0000 0.84760  0.62770  0.83815  Biso   1.000  C
  C127     1.0000 0.65240  0.12770  0.66185  Biso   1.000  C
  C128     1.0000 0.15240  0.62770  0.66185  Biso   1.000  C
  H73      1.0000 0.66670  0.88070  0.20630  Biso   1.000  H
  H74      1.0000 0.16670  0.38070  0.20630  Biso   1.000  H
  H75      1.0000 0.33330  0.88070  0.29370  Biso   1.000  H
  H76      1.0000 0.83330  0.38070  0.29370  Biso   1.000  H
  H77      1.0000 0.33330  0.11930  0.79370  Biso   1.000  H
  H78      1.0000 0.83330  0.61930  0.79370  Biso   1.000  H
  H79      1.0000 0.66670  0.11930  0.70630  Biso   1.000  H
  H80      1.0000 0.16670  0.61930  0.70630  Biso   1.000  H
  C129     1.0000 0.60656  0.78970  0.12637  Biso   1.000  C
  C130     1.0000 0.10656  0.28970  0.12637  Biso   1.000  C
  C131     1.0000 0.39344  0.78970  0.37363  Biso   1.000  C
  C132     1.0000 0.89344  0.28970  0.37363  Biso   1.000  C
  C133     1.0000 0.39344  0.21030  0.87363  Biso   1.000  C
  C134     1.0000 0.89344  0.71030  0.87363  Biso   1.000  C
  C135     1.0000 0.60656  0.21030  0.62637  Biso   1.000  C
  C136     1.0000 0.10656  0.71030  0.62637  Biso   1.000  C
  H81      1.0000 0.58920  0.74020  0.14640  Biso   1.000  H
  H82      1.0000 0.08920  0.24020  0.14640  Biso   1.000  H
  H83      1.0000 0.41080  0.74020  0.35360  Biso   1.000  H
  H84      1.0000 0.91080  0.24020  0.35360  Biso   1.000  H
  H85      1.0000 0.41080  0.25980  0.85360  Biso   1.000  H
  H86      1.0000 0.91080  0.75980  0.85360  Biso   1.000  H
  H87      1.0000 0.58920  0.25980  0.64640  Biso   1.000  H
  H88      1.0000 0.08920  0.75980  0.64640  Biso   1.000  H
  C137     1.0000 0.58636  0.78090  0.06054  Biso   1.000  C
  C138     1.0000 0.08636  0.28090  0.06054  Biso   1.000  C
  C139     1.0000 0.41364  0.78090  0.43946  Biso   1.000  C
  C140     1.0000 0.91364  0.28090  0.43946  Biso   1.000  C
  C141     1.0000 0.41364  0.21910  0.93946  Biso   1.000  C
  C142     1.0000 0.91364  0.71910  0.93946  Biso   1.000  C
  C143     1.0000 0.58636  0.21910  0.56054  Biso   1.000  C
  C144     1.0000 0.08636  0.71910  0.56054  Biso   1.000  C
  H89      1.0000 0.55510  0.72470  0.03680  Biso   1.000  H
  H90      1.0000 0.05510  0.22470  0.03680  Biso   1.000  H
  H91      1.0000 0.44490  0.72470  0.46320  Biso   1.000  H
  H92      1.0000 0.94490  0.22470  0.46320  Biso   1.000  H
  H93      1.0000 0.44490  0.27530  0.96320  Biso   1.000  H
  H94      1.0000 0.94490  0.77530  0.96320  Biso   1.000  H
  H95      1.0000 0.55510  0.27530  0.53680  Biso   1.000  H
  H96      1.0000 0.05510  0.77530  0.53680  Biso   1.000  H
  N25      1.0000 0.60936  0.84890  0.02904  Biso   1.000  N
  N26      1.0000 0.10936  0.34890  0.02904  Biso   1.000  N
  N27      1.0000 0.39064  0.84890  0.47096  Biso   1.000  N
  N28      1.0000 0.89064  0.34890  0.47096  Biso   1.000  N
  N29      1.0000 0.39064  0.15110  0.97096  Biso   1.000  N
  N30      1.0000 0.89064  0.65110  0.97096  Biso   1.000  N
  N31      1.0000 0.60936  0.15110  0.52904  Biso   1.000  N
  N32      1.0000 0.10936  0.65110  0.52904  Biso   1.000  N
  N33      1.0000 0.66241  0.90278  0.81100  Biso   1.000  N
  N34      1.0000 0.16241  0.40278  0.81100  Biso   1.000  N
  N35      1.0000 0.33759  0.90278  0.68900  Biso   1.000  N
  N36      1.0000 0.83759  0.40278  0.68900  Biso   1.000  N
  N37      1.0000 0.33759  0.09722  0.18900  Biso   1.000  N
  N38      1.0000 0.83759  0.59722  0.18900  Biso   1.000  N
  N39      1.0000 0.66241  0.09722  0.31100  Biso   1.000  N
  N40      1.0000 0.16241  0.59722  0.31100  Biso   1.000  N
  N41      1.0000 0.65916  0.32503  0.80741  Biso   1.000  N
  N42      1.0000 0.15916  0.82503  0.80741  Biso   1.000  N
  N43      1.0000 0.34084  0.32503  0.69259  Biso   1.000  N
  N44      1.0000 0.84084  0.82503  0.69259  Biso   1.000  N
  N45      1.0000 0.34084  0.67497  0.19259  Biso   1.000  N
  N46      1.0000 0.84084  0.17497  0.19259  Biso   1.000  N
  N47      1.0000 0.65916  0.67497  0.30741  Biso   1.000  N
  N48      1.0000 0.15916  0.17497  0.30741  Biso   1.000  N
  N49      1.0000 0.72370  0.61850  0.69847  Biso   1.000  N
  N50      1.0000 0.22370  0.11850  0.69847  Biso   1.000  N
  N51      1.0000 0.27630  0.61850  0.80153  Biso   1.000  N
  N52      1.0000 0.77630  0.11850  0.80153  Biso   1.000  N
  N53      1.0000 0.27630  0.38150  0.30153  Biso   1.000  N
  N54      1.0000 0.77630  0.88150  0.30153  Biso   1.000  N
  N55      1.0000 0.72370  0.38150  0.19847  Biso   1.000  N
  N56      1.0000 0.22370  0.88150  0.19847  Biso   1.000  N
  C145     1.0000 0.67993  0.61472  0.76785  Biso   1.000  C
  C146     1.0000 0.17993  0.11472  0.76785  Biso   1.000  C
  C147     1.0000 0.32007  0.61472  0.73215  Biso   1.000  C
  C148     1.0000 0.82007  0.11472  0.73215  Biso   1.000  C
  C149     1.0000 0.32007  0.38528  0.23215  Biso   1.000  C
  C150     1.0000 0.82007  0.88528  0.23215  Biso   1.000  C
  C151     1.0000 0.67993  0.38528  0.26785  Biso   1.000  C
  C152     1.0000 0.17993  0.88528  0.26785  Biso   1.000  C
  C153     1.0000 0.67049  0.77447  0.79084  Biso   1.000  C
  C154     1.0000 0.17049  0.27447  0.79084  Biso   1.000  C
  C155     1.0000 0.32951  0.77447  0.70916  Biso   1.000  C
  C156     1.0000 0.82951  0.27447  0.70916  Biso   1.000  C
  C157     1.0000 0.32951  0.22553  0.20916  Biso   1.000  C
  C158     1.0000 0.82951  0.72553  0.20916  Biso   1.000  C
  C159     1.0000 0.67049  0.22553  0.29084  Biso   1.000  C
  C160     1.0000 0.17049  0.72553  0.29084  Biso   1.000  C
  C161     1.0000 0.66865  0.45370  0.78885  Biso   1.000  C
  C162     1.0000 0.16865  0.95370  0.78885  Biso   1.000  C
  C163     1.0000 0.33135  0.45370  0.71115  Biso   1.000  C
  C164     1.0000 0.83135  0.95370  0.71115  Biso   1.000  C
  C165     1.0000 0.33135  0.54630  0.21115  Biso   1.000  C
  C166     1.0000 0.83135  0.04630  0.21115  Biso   1.000  C
  C167     1.0000 0.66865  0.54630  0.28885  Biso   1.000  C
  C168     1.0000 0.16865  0.04630  0.28885  Biso   1.000  C
  C169     1.0000 0.70389  0.61590  0.72899  Biso   1.000  C
  C170     1.0000 0.20389  0.11590  0.72899  Biso   1.000  C
  C171     1.0000 0.29611  0.61590  0.77101  Biso   1.000  C
  C172     1.0000 0.79611  0.11590  0.77101  Biso   1.000  C
  C173     1.0000 0.29611  0.38410  0.27101  Biso   1.000  C
  C174     1.0000 0.79611  0.88410  0.27101  Biso   1.000  C
  C175     1.0000 0.70389  0.38410  0.22899  Biso   1.000  C
  C176     1.0000 0.20389  0.88410  0.22899  Biso   1.000  C
  N57      1.0000 0.56827  0.07460  0.74790  Biso   1.000  N
  N58      1.0000 0.06827  0.57460  0.74790  Biso   1.000  N
  N59      1.0000 0.43173  0.07460  0.75210  Biso   1.000  N
  N60      1.0000 0.93173  0.57460  0.75210  Biso   1.000  N
  N61      1.0000 0.43173  0.92540  0.25210  Biso   1.000  N
  N62      1.0000 0.93173  0.42540  0.25210  Biso   1.000  N
  N63      1.0000 0.56827  0.92540  0.24790  Biso   1.000  N
  N64      1.0000 0.06827  0.42540  0.24790  Biso   1.000  N
  N65      1.0000 0.42786  0.75710  0.65388  Biso   1.000  N
  N66      1.0000 0.92786  0.25710  0.65388  Biso   1.000  N
  N67      1.0000 0.57214  0.75710  0.84612  Biso   1.000  N
  N68      1.0000 0.07214  0.25710  0.84612  Biso   1.000  N
  N69      1.0000 0.57214  0.24290  0.34612  Biso   1.000  N
  N70      1.0000 0.07214  0.74290  0.34612  Biso   1.000  N
  N71      1.0000 0.42786  0.24290  0.15388  Biso   1.000  N
  N72      1.0000 0.92786  0.74290  0.15388  Biso   1.000  N
  N73      1.0000 0.53827  0.72960  0.58057  Biso   1.000  N
  N74      1.0000 0.03827  0.22960  0.58057  Biso   1.000  N
  N75      1.0000 0.46173  0.72960  0.91943  Biso   1.000  N
  N76      1.0000 0.96173  0.22960  0.91943  Biso   1.000  N
  N77      1.0000 0.46173  0.27040  0.41943  Biso   1.000  N
  N78      1.0000 0.96173  0.77040  0.41943  Biso   1.000  N
  N79      1.0000 0.53827  0.27040  0.08057  Biso   1.000  N
  N80      1.0000 0.03827  0.77040  0.08057  Biso   1.000  N
  C177     1.0000 0.51159  0.85790  0.65983  Biso   1.000  C
  C178     1.0000 0.01159  0.35790  0.65983  Biso   1.000  C
  C179     1.0000 0.48841  0.85790  0.84017  Biso   1.000  C
  C180     1.0000 0.98841  0.35790  0.84017  Biso   1.000  C
  C181     1.0000 0.48841  0.14210  0.34017  Biso   1.000  C
  C182     1.0000 0.98841  0.64210  0.34017  Biso   1.000  C
  C183     1.0000 0.51159  0.14210  0.15983  Biso   1.000  C
  C184     1.0000 0.01159  0.64210  0.15983  Biso   1.000  C
  C185     1.0000 0.54303  0.97420  0.70832  Biso   1.000  C
  C186     1.0000 0.04303  0.47420  0.70832  Biso   1.000  C
  C187     1.0000 0.45697  0.97420  0.79168  Biso   1.000  C
  C188     1.0000 0.95697  0.47420  0.79168  Biso   1.000  C
  C189     1.0000 0.45697  0.02580  0.29168  Biso   1.000  C
  C190     1.0000 0.95697  0.52580  0.29168  Biso   1.000  C
  C191     1.0000 0.54303  0.02580  0.20832  Biso   1.000  C
  C192     1.0000 0.04303  0.52580  0.20832  Biso   1.000  C
  C193     1.0000 0.46538  0.80180  0.65620  Biso   1.000  C
  C194     1.0000 0.96538  0.30180  0.65620  Biso   1.000  C
  C195     1.0000 0.53462  0.80180  0.84380  Biso   1.000  C
  C196     1.0000 0.03462  0.30180  0.84380  Biso   1.000  C
  C197     1.0000 0.53462  0.19820  0.34380  Biso   1.000  C
  C198     1.0000 0.03462  0.69820  0.34380  Biso   1.000  C
  C199     1.0000 0.46538  0.19820  0.15620  Biso   1.000  C
  C200     1.0000 0.96538  0.69820  0.15620  Biso   1.000  C
  C201     1.0000 0.52653  0.79000  0.61573  Biso   1.000  C
  C202     1.0000 0.02653  0.29000  0.61573  Biso   1.000  C
  C203     1.0000 0.47347  0.79000  0.88427  Biso   1.000  C
  C204     1.0000 0.97347  0.29000  0.88427  Biso   1.000  C
  C205     1.0000 0.47347  0.21000  0.38427  Biso   1.000  C
  C206     1.0000 0.97347  0.71000  0.38427  Biso   1.000  C
  C207     1.0000 0.52653  0.21000  0.11573  Biso   1.000  C
  C208     1.0000 0.02653  0.71000  0.11573  Biso   1.000  C
