data_image0
_cell_length_a       9.7205
_cell_length_b       18.3381
_cell_length_c       24.4679
_cell_angle_alpha    90
_cell_angle_beta     96.964
_cell_angle_gamma    90

_symmetry_space_group_name_H-M    "P 1"
_symmetry_int_tables_number       1

loop_
  _symmetry_equiv_pos_as_xyz
  'x, y, z'

loop_
  _atom_site_label
  _atom_site_occupancy
  _atom_site_fract_x
  _atom_site_fract_y
  _atom_site_fract_z
  _atom_site_thermal_displace_type
  _atom_site_B_iso_or_equiv
  _atom_site_type_symbol
  Cu1      1.0000 0.38018  0.87978  0.12783  Biso   1.000  Cu
  Cu2      1.0000 0.61982  0.37978  0.37217  Biso   1.000  Cu
  Cu3      1.0000 0.61982  0.12022  0.87217  Biso   1.000  Cu
  Cu4      1.0000 0.38018  0.62022  0.62783  Biso   1.000  Cu
  Cu5      1.0000 0.87456  0.62844  0.05336  Biso   1.000  Cu
  Cu6      1.0000 0.12544  0.12844  0.44664  Biso   1.000  Cu
  Cu7      1.0000 0.12544  0.37156  0.94664  Biso   1.000  Cu
  Cu8      1.0000 0.87456  0.87156  0.55336  Biso   1.000  Cu
  N1       1.0000 0.93410  0.66603  0.98356  Biso   1.000  N
  N2       1.0000 0.06590  0.16603  0.51644  Biso   1.000  N
  N3       1.0000 0.06590  0.33397  0.01644  Biso   1.000  N
  N4       1.0000 0.93410  0.83397  0.48356  Biso   1.000  N
  N5       1.0000 0.03310  0.69601  0.08512  Biso   1.000  N
  N6       1.0000 0.96690  0.19601  0.41488  Biso   1.000  N
  N7       1.0000 0.96690  0.30399  0.91488  Biso   1.000  N
  N8       1.0000 0.03310  0.80399  0.58512  Biso   1.000  N
  N9       1.0000 0.21960  0.80368  0.11648  Biso   1.000  N
  N10      1.0000 0.78040  0.30368  0.38352  Biso   1.000  N
  N11      1.0000 0.78040  0.19632  0.88352  Biso   1.000  N
  N12      1.0000 0.21960  0.69632  0.61648  Biso   1.000  N
  N13      1.0000 0.28460  0.91145  0.05414  Biso   1.000  N
  N14      1.0000 0.71540  0.41145  0.44586  Biso   1.000  N
  N15      1.0000 0.71540  0.08855  0.94586  Biso   1.000  N
  N16      1.0000 0.28460  0.58855  0.55414  Biso   1.000  N
  N17      1.0000 0.70540  0.70633  0.05909  Biso   1.000  N
  N18      1.0000 0.29460  0.20633  0.44091  Biso   1.000  N
  N19      1.0000 0.29460  0.29367  0.94091  Biso   1.000  N
  N20      1.0000 0.70540  0.79367  0.55909  Biso   1.000  N
  N21      1.0000 0.80900  0.59868  0.12521  Biso   1.000  N
  N22      1.0000 0.19100  0.09868  0.37479  Biso   1.000  N
  N23      1.0000 0.19100  0.40132  0.87479  Biso   1.000  N
  N24      1.0000 0.80900  0.90132  0.62521  Biso   1.000  N
  N25      1.0000 0.53880  0.81394  0.09221  Biso   1.000  N
  N26      1.0000 0.46120  0.31394  0.40779  Biso   1.000  N
  N27      1.0000 0.46120  0.18606  0.90779  Biso   1.000  N
  N28      1.0000 0.53880  0.68606  0.59221  Biso   1.000  N
  N29      1.0000 0.47460  0.82881  0.19416  Biso   1.000  N
  N30      1.0000 0.52540  0.32881  0.30584  Biso   1.000  N
  N31      1.0000 0.52540  0.17119  0.80584  Biso   1.000  N
  N32      1.0000 0.47460  0.67119  0.69416  Biso   1.000  N
  C1       1.0000 0.89280  0.63842  0.93351  Biso   1.000  C
  C2       1.0000 0.10720  0.13842  0.56649  Biso   1.000  C
  C3       1.0000 0.10720  0.36158  0.06649  Biso   1.000  C
  C4       1.0000 0.89280  0.86158  0.43351  Biso   1.000  C
  H1       1.0000 0.81810  0.60640  0.92920  Biso   1.000  H
  H2       1.0000 0.18190  0.10640  0.57080  Biso   1.000  H
  H3       1.0000 0.18190  0.39360  0.07080  Biso   1.000  H
  H4       1.0000 0.81810  0.89360  0.42920  Biso   1.000  H
  C5       1.0000 0.95810  0.65621  0.88821  Biso   1.000  C
  C6       1.0000 0.04190  0.15621  0.61179  Biso   1.000  C
  C7       1.0000 0.04190  0.34379  0.11179  Biso   1.000  C
  C8       1.0000 0.95810  0.84379  0.38821  Biso   1.000  C
  H5       1.0000 0.92700  0.63700  0.85380  Biso   1.000  H
  H6       1.0000 0.07300  0.13700  0.64620  Biso   1.000  H
  H7       1.0000 0.07300  0.36300  0.14620  Biso   1.000  H
  H8       1.0000 0.92700  0.86300  0.35380  Biso   1.000  H
  C9       1.0000 0.06880  0.70244  0.89475  Biso   1.000  C
  C10      1.0000 0.93120  0.20244  0.60525  Biso   1.000  C
  C11      1.0000 0.93120  0.29756  0.10525  Biso   1.000  C
  C12      1.0000 0.06880  0.79756  0.39475  Biso   1.000  C
  H9       1.0000 0.11610  0.71370  0.86500  Biso   1.000  H
  H10      1.0000 0.88390  0.21370  0.63500  Biso   1.000  H
  H11      1.0000 0.88390  0.28630  0.13500  Biso   1.000  H
  H12      1.0000 0.11610  0.78630  0.36500  Biso   1.000  H
  C13      1.0000 0.11050  0.73262  0.94620  Biso   1.000  C
  C14      1.0000 0.88950  0.23262  0.55380  Biso   1.000  C
  C15      1.0000 0.88950  0.26738  0.05380  Biso   1.000  C
  C16      1.0000 0.11050  0.76738  0.44620  Biso   1.000  C
  H13      1.0000 0.18580  0.76420  0.95130  Biso   1.000  H
  H14      1.0000 0.81420  0.26420  0.54870  Biso   1.000  H
  H15      1.0000 0.81420  0.23580  0.04870  Biso   1.000  H
  H16      1.0000 0.18580  0.73580  0.45130  Biso   1.000  H
  C17      1.0000 0.03840  0.71506  0.98952  Biso   1.000  C
  C18      1.0000 0.96160  0.21506  0.51048  Biso   1.000  C
  C19      1.0000 0.96160  0.28494  0.01048  Biso   1.000  C
  C20      1.0000 0.03840  0.78494  0.48952  Biso   1.000  C
  C21      1.0000 0.07650  0.74073  0.04675  Biso   1.000  C
  C22      1.0000 0.92350  0.24073  0.45325  Biso   1.000  C
  C23      1.0000 0.92350  0.25927  0.95325  Biso   1.000  C
  C24      1.0000 0.07650  0.75927  0.54675  Biso   1.000  C
  C25      1.0000 0.08400  0.70347  0.13771  Biso   1.000  C
  C26      1.0000 0.91600  0.20347  0.36229  Biso   1.000  C
  C27      1.0000 0.91600  0.29653  0.86229  Biso   1.000  C
  C28      1.0000 0.08400  0.79653  0.63771  Biso   1.000  C
  H17      1.0000 0.05030  0.67480  0.16450  Biso   1.000  H
  H18      1.0000 0.94970  0.17480  0.33550  Biso   1.000  H
  H19      1.0000 0.94970  0.32520  0.83550  Biso   1.000  H
  H20      1.0000 0.05030  0.82520  0.66450  Biso   1.000  H
  C29      1.0000 0.18770  0.75431  0.15251  Biso   1.000  C
  C30      1.0000 0.81230  0.25431  0.34749  Biso   1.000  C
  C31      1.0000 0.81230  0.24569  0.84749  Biso   1.000  C
  C32      1.0000 0.18770  0.74569  0.65251  Biso   1.000  C
  H21      1.0000 0.23510  0.75370  0.18790  Biso   1.000  H
  H22      1.0000 0.76490  0.25370  0.31210  Biso   1.000  H
  H23      1.0000 0.76490  0.24630  0.81210  Biso   1.000  H
  H24      1.0000 0.23510  0.74630  0.68790  Biso   1.000  H
  C33      1.0000 0.15750  0.80165  0.06413  Biso   1.000  C
  C34      1.0000 0.84250  0.30165  0.43587  Biso   1.000  C
  C35      1.0000 0.84250  0.19835  0.93587  Biso   1.000  C
  C36      1.0000 0.15750  0.69835  0.56413  Biso   1.000  C
  C37      1.0000 0.17740  0.86912  0.03237  Biso   1.000  C
  C38      1.0000 0.82260  0.36912  0.46763  Biso   1.000  C
  C39      1.0000 0.82260  0.13088  0.96763  Biso   1.000  C
  C40      1.0000 0.17740  0.63088  0.53237  Biso   1.000  C
  C41      1.0000 0.08850  0.89175  0.98726  Biso   1.000  C
  C42      1.0000 0.91150  0.39175  0.51274  Biso   1.000  C
  C43      1.0000 0.91150  0.10825  0.01274  Biso   1.000  C
  C44      1.0000 0.08850  0.60825  0.48726  Biso   1.000  C
  H25      1.0000 0.01210  0.86350  0.97410  Biso   1.000  H
  H26      1.0000 0.98790  0.36350  0.52590  Biso   1.000  H
  H27      1.0000 0.98790  0.13650  0.02590  Biso   1.000  H
  H28      1.0000 0.01210  0.63650  0.47410  Biso   1.000  H
  C45      1.0000 0.11430  0.95677  0.96203  Biso   1.000  C
  C46      1.0000 0.88570  0.45677  0.53797  Biso   1.000  C
  C47      1.0000 0.88570  0.04323  0.03797  Biso   1.000  C
  C48      1.0000 0.11430  0.54323  0.46203  Biso   1.000  C
  H29      1.0000 0.05660  0.97230  0.93110  Biso   1.000  H
  H30      1.0000 0.94340  0.47230  0.56890  Biso   1.000  H
  H31      1.0000 0.94340  0.02770  0.06890  Biso   1.000  H
  H32      1.0000 0.05660  0.52770  0.43110  Biso   1.000  H
  C49      1.0000 0.22630  0.99854  0.98300  Biso   1.000  C
  C50      1.0000 0.77370  0.49854  0.51700  Biso   1.000  C
  C51      1.0000 0.77370  0.00146  0.01700  Biso   1.000  C
  C52      1.0000 0.22630  0.50146  0.48300  Biso   1.000  C
  H33      1.0000 0.24620  0.04210  0.96610  Biso   1.000  H
  H34      1.0000 0.75380  0.54210  0.53390  Biso   1.000  H
  H35      1.0000 0.75380  0.95790  0.03390  Biso   1.000  H
  H36      1.0000 0.24620  0.45790  0.46610  Biso   1.000  H
  C53      1.0000 0.30810  0.97462  0.02927  Biso   1.000  C
  C54      1.0000 0.69190  0.47462  0.47073  Biso   1.000  C
  C55      1.0000 0.69190  0.02538  0.97073  Biso   1.000  C
  C56      1.0000 0.30810  0.52538  0.52927  Biso   1.000  C
  H37      1.0000 0.38250  0.00330  0.04390  Biso   1.000  H
  H38      1.0000 0.61750  0.50330  0.45610  Biso   1.000  H
  H39      1.0000 0.61750  0.99670  0.95610  Biso   1.000  H
  H40      1.0000 0.38250  0.49670  0.54390  Biso   1.000  H
  C57      1.0000 0.57750  0.78153  0.18723  Biso   1.000  C
  C58      1.0000 0.42250  0.28153  0.31277  Biso   1.000  C
  C59      1.0000 0.42250  0.21847  0.81277  Biso   1.000  C
  C60      1.0000 0.57750  0.71847  0.68723  Biso   1.000  C
  C61      1.0000 0.66420  0.75516  0.23180  Biso   1.000  C
  C62      1.0000 0.33580  0.25516  0.26820  Biso   1.000  C
  C63      1.0000 0.33580  0.24484  0.76820  Biso   1.000  C
  C64      1.0000 0.66420  0.74484  0.73180  Biso   1.000  C
  H41      1.0000 0.73870  0.72530  0.22650  Biso   1.000  H
  H42      1.0000 0.26130  0.22530  0.27350  Biso   1.000  H
  H43      1.0000 0.26130  0.27470  0.77350  Biso   1.000  H
  H44      1.0000 0.73870  0.77470  0.72650  Biso   1.000  H
  C65      1.0000 0.63860  0.77375  0.28430  Biso   1.000  C
  C66      1.0000 0.36140  0.27375  0.21570  Biso   1.000  C
  C67      1.0000 0.36140  0.22625  0.71570  Biso   1.000  C
  C68      1.0000 0.63860  0.72625  0.78430  Biso   1.000  C
  H45      1.0000 0.69560  0.75630  0.31480  Biso   1.000  H
  H46      1.0000 0.30440  0.25630  0.18520  Biso   1.000  H
  H47      1.0000 0.30440  0.24370  0.68520  Biso   1.000  H
  H48      1.0000 0.69560  0.74370  0.81480  Biso   1.000  H
  C69      1.0000 0.52850  0.81819  0.29122  Biso   1.000  C
  C70      1.0000 0.47150  0.31819  0.20878  Biso   1.000  C
  C71      1.0000 0.47150  0.18181  0.70878  Biso   1.000  C
  C72      1.0000 0.52850  0.68181  0.79122  Biso   1.000  C
  H49      1.0000 0.50700  0.82930  0.32630  Biso   1.000  H
  H50      1.0000 0.49300  0.32930  0.17370  Biso   1.000  H
  H51      1.0000 0.49300  0.17070  0.67370  Biso   1.000  H
  H52      1.0000 0.50700  0.67070  0.82630  Biso   1.000  H
  C73      1.0000 0.45130  0.84567  0.24561  Biso   1.000  C
  C74      1.0000 0.54870  0.34567  0.25439  Biso   1.000  C
  C75      1.0000 0.54870  0.15433  0.75439  Biso   1.000  C
  C76      1.0000 0.45130  0.65433  0.74561  Biso   1.000  C
  H53      1.0000 0.37920  0.87750  0.25040  Biso   1.000  H
  H54      1.0000 0.62080  0.37750  0.24960  Biso   1.000  H
  H55      1.0000 0.62080  0.12250  0.74960  Biso   1.000  H
  H56      1.0000 0.37920  0.62250  0.75040  Biso   1.000  H
  C77      1.0000 0.59490  0.76479  0.12892  Biso   1.000  C
  C78      1.0000 0.40510  0.26479  0.37108  Biso   1.000  C
  C79      1.0000 0.40510  0.23521  0.87108  Biso   1.000  C
  C80      1.0000 0.59490  0.73521  0.62892  Biso   1.000  C
  C81      1.0000 0.56650  0.81053  0.04077  Biso   1.000  C
  C82      1.0000 0.43350  0.31053  0.45923  Biso   1.000  C
  C83      1.0000 0.43350  0.18947  0.95923  Biso   1.000  C
  C84      1.0000 0.56650  0.68947  0.54077  Biso   1.000  C
  H57      1.0000 0.52330  0.84290  0.01490  Biso   1.000  H
  H58      1.0000 0.47670  0.34290  0.48510  Biso   1.000  H
  H59      1.0000 0.47670  0.15710  0.98510  Biso   1.000  H
  H60      1.0000 0.52330  0.65710  0.51490  Biso   1.000  H
  C85      1.0000 0.65900  0.75949  0.02477  Biso   1.000  C
  C86      1.0000 0.34100  0.25949  0.47523  Biso   1.000  C
  C87      1.0000 0.34100  0.24051  0.97523  Biso   1.000  C
  C88      1.0000 0.65900  0.74051  0.52477  Biso   1.000  C
  H61      1.0000 0.68850  0.76240  0.99010  Biso   1.000  H
  H62      1.0000 0.31150  0.26240  0.50990  Biso   1.000  H
  H63      1.0000 0.31150  0.23760  0.00990  Biso   1.000  H
  H64      1.0000 0.68850  0.73760  0.49010  Biso   1.000  H
  C89      1.0000 0.66730  0.70529  0.11019  Biso   1.000  C
  C90      1.0000 0.33270  0.20529  0.38981  Biso   1.000  C
  C91      1.0000 0.33270  0.29471  0.88981  Biso   1.000  C
  C92      1.0000 0.66730  0.79471  0.61019  Biso   1.000  C
  C93      1.0000 0.69890  0.63502  0.13941  Biso   1.000  C
  C94      1.0000 0.30110  0.13502  0.36059  Biso   1.000  C
  C95      1.0000 0.30110  0.36498  0.86059  Biso   1.000  C
  C96      1.0000 0.69890  0.86498  0.63941  Biso   1.000  C
  C97      1.0000 0.84080  0.53360  0.14831  Biso   1.000  C
  C98      1.0000 0.15920  0.03360  0.35169  Biso   1.000  C
  C99      1.0000 0.15920  0.46640  0.85169  Biso   1.000  C
  C100     1.0000 0.84080  0.96640  0.64831  Biso   1.000  C
  H65      1.0000 0.91970  0.50940  0.14000  Biso   1.000  H
  H66      1.0000 0.08030  0.00940  0.36000  Biso   1.000  H
  H67      1.0000 0.08030  0.49060  0.86000  Biso   1.000  H
  H68      1.0000 0.91970  0.99060  0.64000  Biso   1.000  H
  C101     1.0000 0.75890  0.50136  0.18431  Biso   1.000  C
  C102     1.0000 0.24110  0.00136  0.31569  Biso   1.000  C
  C103     1.0000 0.24110  0.49864  0.81569  Biso   1.000  C
  C104     1.0000 0.75890  0.99864  0.68431  Biso   1.000  C
  H69      1.0000 0.78280  0.45620  0.20000  Biso   1.000  H
  H70      1.0000 0.21720  0.95620  0.30000  Biso   1.000  H
  H71      1.0000 0.21720  0.54380  0.80000  Biso   1.000  H
  H72      1.0000 0.78280  0.04380  0.70000  Biso   1.000  H
  C105     1.0000 0.64240  0.53697  0.19632  Biso   1.000  C
  C106     1.0000 0.35760  0.03697  0.30368  Biso   1.000  C
  C107     1.0000 0.35760  0.46303  0.80368  Biso   1.000  C
  C108     1.0000 0.64240  0.96303  0.69632  Biso   1.000  C
  H73      1.0000 0.58420  0.51530  0.21910  Biso   1.000  H
  H74      1.0000 0.41580  0.01530  0.28090  Biso   1.000  H
  H75      1.0000 0.41580  0.48470  0.78090  Biso   1.000  H
  H76      1.0000 0.58420  0.98470  0.71910  Biso   1.000  H
  C109     1.0000 0.61200  0.60523  0.17434  Biso   1.000  C
  C110     1.0000 0.38800  0.10523  0.32566  Biso   1.000  C
  C111     1.0000 0.38800  0.39477  0.82566  Biso   1.000  C
  C112     1.0000 0.61200  0.89477  0.67434  Biso   1.000  C
  H77      1.0000 0.53470  0.63070  0.18280  Biso   1.000  H
  H78      1.0000 0.46530  0.13070  0.31720  Biso   1.000  H
  H79      1.0000 0.46530  0.36930  0.81720  Biso   1.000  H
  H80      1.0000 0.53470  0.86930  0.68280  Biso   1.000  H
  N33      1.0000 0.22550  0.95655  0.16991  Biso   1.000  N
  N34      1.0000 0.77450  0.45655  0.33009  Biso   1.000  N
  N35      1.0000 0.77450  0.04345  0.83009  Biso   1.000  N
  N36      1.0000 0.22550  0.54345  0.66991  Biso   1.000  N
  N37      1.0000 0.03790  0.14650  0.24535  Biso   1.000  N
  N38      1.0000 0.96210  0.64650  0.25465  Biso   1.000  N
  N39      1.0000 0.96210  0.85350  0.75465  Biso   1.000  N
  N40      1.0000 0.03790  0.35350  0.74535  Biso   1.000  N
  N41      1.0000 0.21170  0.16748  0.08722  Biso   1.000  N
  N42      1.0000 0.78830  0.66748  0.41278  Biso   1.000  N
  N43      1.0000 0.78830  0.83252  0.91278  Biso   1.000  N
  N44      1.0000 0.21170  0.33252  0.58722  Biso   1.000  N
  C113     1.0000 0.15150  0.08944  0.16694  Biso   1.000  C
  C114     1.0000 0.84850  0.58944  0.33306  Biso   1.000  C
  C115     1.0000 0.84850  0.91056  0.83306  Biso   1.000  C
  C116     1.0000 0.15150  0.41056  0.66694  Biso   1.000  C
  C117     1.0000 0.19090  0.01589  0.16917  Biso   1.000  C
  C118     1.0000 0.80910  0.51589  0.33083  Biso   1.000  C
  C119     1.0000 0.80910  0.98411  0.83083  Biso   1.000  C
  C120     1.0000 0.19090  0.48411  0.66917  Biso   1.000  C
  C121     1.0000 0.08690  0.12066  0.21018  Biso   1.000  C
  C122     1.0000 0.91310  0.62066  0.28982  Biso   1.000  C
  C123     1.0000 0.91310  0.87934  0.78982  Biso   1.000  C
  C124     1.0000 0.08690  0.37934  0.71018  Biso   1.000  C
  C125     1.0000 0.18560  0.13276  0.12326  Biso   1.000  C
  C126     1.0000 0.81440  0.63276  0.37674  Biso   1.000  C
  C127     1.0000 0.81440  0.86724  0.87674  Biso   1.000  C
  C128     1.0000 0.18560  0.36724  0.62326  Biso   1.000  C
  N45      1.0000 0.51020  0.96740  0.13956  Biso   1.000  N
  N46      1.0000 0.48980  0.46740  0.36044  Biso   1.000  N
  N47      1.0000 0.48980  0.03260  0.86044  Biso   1.000  N
  N48      1.0000 0.51020  0.53260  0.63956  Biso   1.000  N
  N49      1.0000 0.61730  0.17570  0.07749  Biso   1.000  N
  N50      1.0000 0.38270  0.67570  0.42251  Biso   1.000  N
  N51      1.0000 0.38270  0.82430  0.92251  Biso   1.000  N
  N52      1.0000 0.61730  0.32430  0.57749  Biso   1.000  N
  N53      1.0000 0.65150  0.14580  0.25844  Biso   1.000  N
  N54      1.0000 0.34850  0.64580  0.24156  Biso   1.000  N
  N55      1.0000 0.34850  0.85420  0.74156  Biso   1.000  N
  N56      1.0000 0.65150  0.35420  0.75844  Biso   1.000  N
  C129     1.0000 0.59940  0.09580  0.16079  Biso   1.000  C
  C130     1.0000 0.40060  0.59580  0.33921  Biso   1.000  C
  C131     1.0000 0.40060  0.90420  0.83921  Biso   1.000  C
  C132     1.0000 0.59940  0.40420  0.66079  Biso   1.000  C
  C133     1.0000 0.55190  0.02452  0.15069  Biso   1.000  C
  C134     1.0000 0.44810  0.52452  0.34931  Biso   1.000  C
  C135     1.0000 0.44810  0.97548  0.84931  Biso   1.000  C
  C136     1.0000 0.55190  0.47548  0.65069  Biso   1.000  C
  C137     1.0000 0.60960  0.14080  0.11527  Biso   1.000  C
  C138     1.0000 0.39040  0.64080  0.38473  Biso   1.000  C
  C139     1.0000 0.39040  0.85920  0.88473  Biso   1.000  C
  C140     1.0000 0.60960  0.35920  0.61527  Biso   1.000  C
  C141     1.0000 0.62960  0.12278  0.21494  Biso   1.000  C
  C142     1.0000 0.37040  0.62278  0.28506  Biso   1.000  C
  C143     1.0000 0.37040  0.87722  0.78506  Biso   1.000  C
  C144     1.0000 0.62960  0.37722  0.71494  Biso   1.000  C
  N57      1.0000 0.77970  0.54020  0.02167  Biso   1.000  N
  N58      1.0000 0.22030  0.04020  0.47833  Biso   1.000  N
  N59      1.0000 0.22030  0.45980  0.97833  Biso   1.000  N
  N60      1.0000 0.77970  0.95980  0.52167  Biso   1.000  N
  N61      1.0000 0.47280  0.40040  0.08520  Biso   1.000  N
  N62      1.0000 0.52720  0.90040  0.41480  Biso   1.000  N
  N63      1.0000 0.52720  0.59960  0.91480  Biso   1.000  N
  N64      1.0000 0.47280  0.09960  0.58520  Biso   1.000  N
  N65      1.0000 0.64070  0.33958  0.93150  Biso   1.000  N
  N66      1.0000 0.35930  0.83958  0.56850  Biso   1.000  N
  N67      1.0000 0.35930  0.66042  0.06850  Biso   1.000  N
  N68      1.0000 0.64070  0.16042  0.43150  Biso   1.000  N
  C145     1.0000 0.63360  0.42560  0.01235  Biso   1.000  C
  C146     1.0000 0.36640  0.92560  0.48765  Biso   1.000  C
  C147     1.0000 0.36640  0.57440  0.98765  Biso   1.000  C
  C148     1.0000 0.63360  0.07440  0.51235  Biso   1.000  C
  C149     1.0000 0.71390  0.48830  0.01646  Biso   1.000  C
  C150     1.0000 0.28610  0.98830  0.48354  Biso   1.000  C
  C151     1.0000 0.28610  0.51170  0.98354  Biso   1.000  C
  C152     1.0000 0.71390  0.01170  0.51646  Biso   1.000  C
  C153     1.0000 0.54470  0.41140  0.05310  Biso   1.000  C
  C154     1.0000 0.45530  0.91140  0.44690  Biso   1.000  C
  C155     1.0000 0.45530  0.58860  0.94690  Biso   1.000  C
  C156     1.0000 0.54470  0.08860  0.55310  Biso   1.000  C
  C157     1.0000 0.63720  0.37849  0.96750  Biso   1.000  C
  C158     1.0000 0.36280  0.87849  0.53250  Biso   1.000  C
  C159     1.0000 0.36280  0.62151  0.03250  Biso   1.000  C
  C160     1.0000 0.63720  0.12151  0.46750  Biso   1.000  C
  N69      1.0000 0.25550  0.45800  0.24056  Biso   1.000  N
  N70      1.0000 0.74450  0.95800  0.25944  Biso   1.000  N
  N71      1.0000 0.74450  0.54200  0.75944  Biso   1.000  N
  N72      1.0000 0.25550  0.04200  0.74056  Biso   1.000  N
  N73      1.0000 0.88010  0.33160  0.23222  Biso   1.000  N
  N74      1.0000 0.11990  0.83160  0.26778  Biso   1.000  N
  N75      1.0000 0.11990  0.66840  0.76778  Biso   1.000  N
  N76      1.0000 0.88010  0.16840  0.73222  Biso   1.000  N
  N77      1.0000 0.11990  0.36519  0.39572  Biso   1.000  N
  N78      1.0000 0.88010  0.86519  0.10428  Biso   1.000  N
  N79      1.0000 0.88010  0.63481  0.60428  Biso   1.000  N
  N80      1.0000 0.11990  0.13481  0.89572  Biso   1.000  N
  C161     1.0000 0.08840  0.38640  0.29202  Biso   1.000  C
  C162     1.0000 0.91160  0.88640  0.20798  Biso   1.000  C
  C163     1.0000 0.91160  0.61360  0.70798  Biso   1.000  C
  C164     1.0000 0.08840  0.11360  0.79202  Biso   1.000  C
  C165     1.0000 0.18030  0.42670  0.26506  Biso   1.000  C
  C166     1.0000 0.81970  0.92670  0.23494  Biso   1.000  C
  C167     1.0000 0.81970  0.57330  0.73494  Biso   1.000  C
  C168     1.0000 0.18030  0.07330  0.76506  Biso   1.000  C
  C169     1.0000 0.97390  0.35590  0.25977  Biso   1.000  C
  C170     1.0000 0.02610  0.85590  0.24023  Biso   1.000  C
  C171     1.0000 0.02610  0.64410  0.74023  Biso   1.000  C
  C172     1.0000 0.97390  0.14410  0.75977  Biso   1.000  C
  C173     1.0000 0.10690  0.37542  0.34959  Biso   1.000  C
  C174     1.0000 0.89310  0.87542  0.15041  Biso   1.000  C
  C175     1.0000 0.89310  0.62458  0.65041  Biso   1.000  C
  C176     1.0000 0.10690  0.12458  0.84959  Biso   1.000  C
  O1       1.0000 0.04620  0.53860  0.05560  Biso   1.000  O
  O2       1.0000 0.95380  0.03860  0.44440  Biso   1.000  O
  O3       1.0000 0.95380  0.46140  0.94440  Biso   1.000  O
  O4       1.0000 0.04620  0.96140  0.55560  Biso   1.000  O
  O5       1.0000 0.20480  0.52940  0.13340  Biso   1.000  O
  O6       1.0000 0.79520  0.02940  0.36660  Biso   1.000  O
  O7       1.0000 0.79520  0.47060  0.86660  Biso   1.000  O
  O8       1.0000 0.20480  0.97060  0.63340  Biso   1.000  O
