data_image0
_cell_length_a       9.9667
_cell_length_b       10.1084
_cell_length_c       11.2802
_cell_angle_alpha    92.895
_cell_angle_beta     111.856
_cell_angle_gamma    101.973

_symmetry_space_group_name_H-M    "P 1"
_symmetry_int_tables_number       1

loop_
  _symmetry_equiv_pos_as_xyz
  'x, y, z'

loop_
  _atom_site_label
  _atom_site_occupancy
  _atom_site_fract_x
  _atom_site_fract_y
  _atom_site_fract_z
  _atom_site_thermal_displace_type
  _atom_site_B_iso_or_equiv
  _atom_site_type_symbol
  Cu1      1.0000 0.39403  0.79948  0.19682  Biso   1.000  Cu
  Cu2      1.0000 0.60597  0.20052  0.80318  Biso   1.000  Cu
  N1       1.0000 0.31330  0.67570  0.29950  Biso   1.000  N
  N2       1.0000 0.68670  0.32430  0.70050  Biso   1.000  N
  N3       1.0000 0.46550  0.93400  0.37805  Biso   1.000  N
  N4       1.0000 0.53450  0.06600  0.62195  Biso   1.000  N
  N5       1.0000 0.19750  0.82450  0.07380  Biso   1.000  N
  N6       1.0000 0.80250  0.17550  0.92620  Biso   1.000  N
  N7       1.0000 0.46620  0.92050  0.08510  Biso   1.000  N
  N8       1.0000 0.53380  0.07950  0.91490  Biso   1.000  N
  C1       1.0000 0.23660  0.54610  0.25350  Biso   1.000  C
  C2       1.0000 0.76340  0.45390  0.74650  Biso   1.000  C
  H1       1.0000 0.21060  0.51430  0.16720  Biso   1.000  H
  H2       1.0000 0.78940  0.48570  0.83280  Biso   1.000  H
  C3       1.0000 0.19500  0.45850  0.32950  Biso   1.000  C
  C4       1.0000 0.80500  0.54150  0.67050  Biso   1.000  C
  H3       1.0000 0.13850  0.36990  0.29460  Biso   1.000  H
  H4       1.0000 0.86150  0.63010  0.70540  Biso   1.000  H
  C5       1.0000 0.23830  0.50410  0.45830  Biso   1.000  C
  C6       1.0000 0.76170  0.49590  0.54170  Biso   1.000  C
  H5       1.0000 0.21470  0.44530  0.51230  Biso   1.000  H
  H6       1.0000 0.78530  0.55470  0.48770  Biso   1.000  H
  C7       1.0000 0.31650  0.63690  0.50650  Biso   1.000  C
  C8       1.0000 0.68350  0.36310  0.49350  Biso   1.000  C
  H7       1.0000 0.34560  0.66940  0.59320  Biso   1.000  H
  H8       1.0000 0.65440  0.33060  0.40680  Biso   1.000  H
  C9       1.0000 0.35110  0.72150  0.42460  Biso   1.000  C
  C10      1.0000 0.64890  0.27850  0.57540  Biso   1.000  C
  C11      1.0000 0.42960  0.86740  0.46560  Biso   1.000  C
  C12      1.0000 0.57040  0.13260  0.53440  Biso   1.000  C
  C13      1.0000 0.46450  0.93430  0.58820  Biso   1.000  C
  C14      1.0000 0.53550  0.06570  0.41180  Biso   1.000  C
  H9       1.0000 0.43830  0.88600  0.64750  Biso   1.000  H
  H10      1.0000 0.56170  0.11400  0.35250  Biso   1.000  H
  C15      1.0000 0.06290  0.76940  0.07380  Biso   1.000  C
  C16      1.0000 0.93710  0.23060  0.92620  Biso   1.000  C
  H11      1.0000 0.05720  0.71840  0.13890  Biso   1.000  H
  H12      1.0000 0.94280  0.28160  0.86110  Biso   1.000  H
  C17      1.0000 0.93330  0.78570  0.98140  Biso   1.000  C
  C18      1.0000 0.06670  0.21430  0.01860  Biso   1.000  C
  H13      1.0000 0.84160  0.74500  0.98330  Biso   1.000  H
  H14      1.0000 0.15840  0.25500  0.01670  Biso   1.000  H
  C19      1.0000 0.94040  0.86230  0.88640  Biso   1.000  C
  C20      1.0000 0.05960  0.13770  0.11360  Biso   1.000  C
  H15      1.0000 0.85360  0.87480  0.82340  Biso   1.000  H
  H16      1.0000 0.14640  0.12520  0.17660  Biso   1.000  H
  C21      1.0000 0.07880  0.92150  0.88480  Biso   1.000  C
  C22      1.0000 0.92120  0.07850  0.11520  Biso   1.000  C
  H17      1.0000 0.08630  0.97430  0.82140  Biso   1.000  H
  H18      1.0000 0.91370  0.02570  0.17860  Biso   1.000  H
  C23      1.0000 0.20380  0.89990  0.97930  Biso   1.000  C
  C24      1.0000 0.79620  0.10010  0.02070  Biso   1.000  C
  C25      1.0000 0.35770  0.95390  0.98780  Biso   1.000  C
  C26      1.0000 0.64230  0.04610  0.01220  Biso   1.000  C
  C27      1.0000 0.39280  0.03480  0.90200  Biso   1.000  C
  C28      1.0000 0.60720  0.96520  0.09800  Biso   1.000  C
  H19      1.0000 0.31690  0.05800  0.83500  Biso   1.000  H
  H20      1.0000 0.68310  0.94200  0.16500  Biso   1.000  H
  N9       1.0000 0.53800  0.68430  0.20790  Biso   1.000  N
  N10      1.0000 0.46200  0.31570  0.79210  Biso   1.000  N
  N11      1.0000 0.81950  0.47150  0.07210  Biso   1.000  N
  N12      1.0000 0.18050  0.52850  0.92790  Biso   1.000  N
  N13      1.0000 0.44160  0.24270  0.15040  Biso   1.000  N
  N14      1.0000 0.55840  0.75730  0.84960  Biso   1.000  N
  C29      1.0000 0.61350  0.47130  0.15570  Biso   1.000  C
  C30      1.0000 0.38650  0.52870  0.84430  Biso   1.000  C
  C31      1.0000 0.57470  0.59030  0.18320  Biso   1.000  C
  C32      1.0000 0.42530  0.40970  0.81680  Biso   1.000  C
  C33      1.0000 0.72940  0.47330  0.11130  Biso   1.000  C
  C34      1.0000 0.27060  0.52670  0.88870  Biso   1.000  C
  C35      1.0000 0.51860  0.34480  0.15260  Biso   1.000  C
  C36      1.0000 0.48140  0.65520  0.84740  Biso   1.000  C
  N15      1.0000 0.89550  0.79820  0.26340  Biso   1.000  N
  N16      1.0000 0.10450  0.20180  0.73660  Biso   1.000  N
  N17      1.0000 0.76400  0.89570  0.58060  Biso   1.000  N
  N18      1.0000 0.23600  0.10430  0.41940  Biso   1.000  N
  N19      1.0000 0.19250  0.79910  0.67670  Biso   1.000  N
  N20      1.0000 0.80750  0.20090  0.32330  Biso   1.000  N
  C37      1.0000 0.95010  0.82220  0.50420  Biso   1.000  C
  C38      1.0000 0.04990  0.17780  0.49580  Biso   1.000  C
  C39      1.0000 0.92300  0.80810  0.37240  Biso   1.000  C
  C40      1.0000 0.07700  0.19190  0.62760  Biso   1.000  C
  C41      1.0000 0.84630  0.86240  0.54470  Biso   1.000  C
  C42      1.0000 0.15370  0.13760  0.45530  Biso   1.000  C
  C43      1.0000 0.08460  0.80980  0.59750  Biso   1.000  C
  C44      1.0000 0.91540  0.19020  0.40250  Biso   1.000  C
