data_image0
_cell_length_a       12.042
_cell_length_b       12.174
_cell_length_c       15.041
_cell_angle_alpha    100.456
_cell_angle_beta     94.465
_cell_angle_gamma    111.19

_symmetry_space_group_name_H-M    "P 1"
_symmetry_int_tables_number       1

loop_
  _symmetry_equiv_pos_as_xyz
  'x, y, z'

loop_
  _atom_site_label
  _atom_site_occupancy
  _atom_site_fract_x
  _atom_site_fract_y
  _atom_site_fract_z
  _atom_site_thermal_displace_type
  _atom_site_B_iso_or_equiv
  _atom_site_type_symbol
  Cu1      1.0000 0.00000  0.50000  0.50000  Biso   1.000  Cu
  Cu2      1.0000 0.00000  0.00000  0.00000  Biso   1.000  Cu
  Mo1      1.0000 0.95177  0.08843  0.58593  Biso   1.000  Mo
  Mo2      1.0000 0.04823  0.91157  0.41407  Biso   1.000  Mo
  Mo3      1.0000 0.24688  0.09743  0.58631  Biso   1.000  Mo
  Mo4      1.0000 0.75312  0.90257  0.41369  Biso   1.000  Mo
  Mo5      1.0000 0.08516  0.96721  0.73201  Biso   1.000  Mo
  Mo6      1.0000 0.91484  0.03279  0.26799  Biso   1.000  Mo
  Mo7      1.0000 0.88975  0.78035  0.55349  Biso   1.000  Mo
  Mo8      1.0000 0.11025  0.21965  0.44651  Biso   1.000  Mo
  C1       1.0000 0.78850  0.75650  0.95450  Biso   1.000  C
  C2       1.0000 0.21150  0.24350  0.04550  Biso   1.000  C
  H1       1.0000 0.80440  0.74010  0.01110  Biso   1.000  H
  H2       1.0000 0.19560  0.25990  0.98890  Biso   1.000  H
  C3       1.0000 0.80100  0.85130  0.84940  Biso   1.000  C
  C4       1.0000 0.19900  0.14870  0.15060  Biso   1.000  C
  H3       1.0000 0.82240  0.90940  0.81460  Biso   1.000  H
  H4       1.0000 0.17760  0.09060  0.18540  Biso   1.000  H
  C5       1.0000 0.65250  0.68180  0.72920  Biso   1.000  C
  C6       1.0000 0.34750  0.31820  0.27080  Biso   1.000  C
  H5       1.0000 0.64900  0.59960  0.71490  Biso   1.000  H
  H6       1.0000 0.35100  0.40040  0.28510  Biso   1.000  H
  H7       1.0000 0.69720  0.72430  0.68660  Biso   1.000  H
  H8       1.0000 0.30280  0.27570  0.31340  Biso   1.000  H
  C7       1.0000 0.52550  0.67940  0.71690  Biso   1.000  C
  C8       1.0000 0.47450  0.32060  0.28310  Biso   1.000  C
  C9       1.0000 0.43280  0.59530  0.76550  Biso   1.000  C
  C10      1.0000 0.56720  0.40470  0.23450  Biso   1.000  C
  C11      1.0000 0.35050  0.63420  0.80330  Biso   1.000  C
  C12      1.0000 0.64950  0.36580  0.19670  Biso   1.000  C
  H9       1.0000 0.35770  0.71350  0.80590  Biso   1.000  H
  H10      1.0000 0.64230  0.28650  0.19410  Biso   1.000  H
  C13      1.0000 0.25710  0.55870  0.83740  Biso   1.000  C
  C14      1.0000 0.74290  0.44130  0.16260  Biso   1.000  C
  H11      1.0000 0.20020  0.58530  0.86170  Biso   1.000  H
  H12      1.0000 0.79980  0.41470  0.13830  Biso   1.000  H
  C15      1.0000 0.24990  0.44370  0.83470  Biso   1.000  C
  C16      1.0000 0.75010  0.55630  0.16530  Biso   1.000  C
  C17      1.0000 0.32800  0.39860  0.79930  Biso   1.000  C
  C18      1.0000 0.67200  0.60140  0.20070  Biso   1.000  C
  H13      1.0000 0.32150  0.31980  0.79810  Biso   1.000  H
  H14      1.0000 0.67850  0.68020  0.20190  Biso   1.000  H
  C19      1.0000 0.41860  0.47860  0.76470  Biso   1.000  C
  C20      1.0000 0.58140  0.52140  0.23530  Biso   1.000  C
  C21      1.0000 0.47950  0.63270  0.60900  Biso   1.000  C
  C22      1.0000 0.52050  0.36730  0.39100  Biso   1.000  C
  H15      1.0000 0.53620  0.68310  0.57640  Biso   1.000  H
  H16      1.0000 0.46380  0.31690  0.42360  Biso   1.000  H
  H17      1.0000 0.47430  0.55030  0.58920  Biso   1.000  H
  H18      1.0000 0.52570  0.44970  0.41080  Biso   1.000  H
  C23      1.0000 0.25520  0.55110  0.57350  Biso   1.000  C
  C24      1.0000 0.74480  0.44890  0.42650  Biso   1.000  C
  H19      1.0000 0.24020  0.47010  0.57150  Biso   1.000  H
  H20      1.0000 0.75980  0.52990  0.42850  Biso   1.000  H
  C25      1.0000 0.23500  0.71610  0.57320  Biso   1.000  C
  C26      1.0000 0.76500  0.28390  0.42680  Biso   1.000  C
  H21      1.0000 0.19910  0.77140  0.56960  Biso   1.000  H
  H22      1.0000 0.80090  0.22860  0.43040  Biso   1.000  H
  C27      1.0000 0.15660  0.58820  0.35790  Biso   1.000  C
  C28      1.0000 0.84340  0.41180  0.64210  Biso   1.000  C
  H23      1.0000 0.20910  0.65840  0.39860  Biso   1.000  H
  H24      1.0000 0.79090  0.34160  0.60140  Biso   1.000  H
  C29      1.0000 0.01320  0.42610  0.29630  Biso   1.000  C
  C30      1.0000 0.98680  0.57390  0.70370  Biso   1.000  C
  H25      1.0000 0.94180  0.35870  0.28800  Biso   1.000  H
  H26      1.0000 0.05820  0.64130  0.71200  Biso   1.000  H
  C31      1.0000 0.27090  0.61220  0.22560  Biso   1.000  C
  C32      1.0000 0.72910  0.38780  0.77440  Biso   1.000  C
  H27      1.0000 0.28210  0.55130  0.18000  Biso   1.000  H
  H28      1.0000 0.71790  0.44870  0.82000  Biso   1.000  H
  H29      1.0000 0.34470  0.65210  0.26940  Biso   1.000  H
  H30      1.0000 0.65530  0.34790  0.73060  Biso   1.000  H
  C33      1.0000 0.24800  0.70630  0.17830  Biso   1.000  C
  C34      1.0000 0.75200  0.29370  0.82170  Biso   1.000  C
  C35      1.0000 0.13330  0.64730  0.10830  Biso   1.000  C
  C36      1.0000 0.86670  0.35270  0.89170  Biso   1.000  C
  H31      1.0000 0.13860  0.58050  0.06500  Biso   1.000  H
  H32      1.0000 0.86140  0.41950  0.93500  Biso   1.000  H
  H33      1.0000 0.06490  0.61500  0.13920  Biso   1.000  H
  H34      1.0000 0.93510  0.38500  0.86080  Biso   1.000  H
  C37      1.0000 0.07090  0.81850  0.08420  Biso   1.000  C
  C38      1.0000 0.92910  0.18150  0.91580  Biso   1.000  C
  H35      1.0000 0.04450  0.83420  0.13990  Biso   1.000  H
  H36      1.0000 0.95550  0.16580  0.86010  Biso   1.000  H
  C39      1.0000 0.11750  0.82170  0.95230  Biso   1.000  C
  C40      1.0000 0.88250  0.17830  0.04770  Biso   1.000  C
  H37      1.0000 0.12870  0.84420  0.89680  Biso   1.000  H
  H38      1.0000 0.87130  0.15580  0.10320  Biso   1.000  H
  C41      1.0000 0.35850  0.76830  0.13610  Biso   1.000  C
  C42      1.0000 0.64150  0.23170  0.86390  Biso   1.000  C
  C43      1.0000 0.40340  0.70500  0.07240  Biso   1.000  C
  C44      1.0000 0.59660  0.29500  0.92760  Biso   1.000  C
  C45      1.0000 0.50140  0.75850  0.03210  Biso   1.000  C
  C46      1.0000 0.49860  0.24150  0.96790  Biso   1.000  C
  H39      1.0000 0.52850  0.71290  0.98920  Biso   1.000  H
  H40      1.0000 0.47150  0.28710  0.01080  Biso   1.000  H
  C47      1.0000 0.55720  0.88070  0.05740  Biso   1.000  C
  C48      1.0000 0.44280  0.11930  0.94260  Biso   1.000  C
  C49      1.0000 0.51970  0.94830  0.11990  Biso   1.000  C
  C50      1.0000 0.48030  0.05170  0.88010  Biso   1.000  C
  H41      1.0000 0.56010  0.03180  0.13690  Biso   1.000  H
  H42      1.0000 0.43990  0.96820  0.86310  Biso   1.000  H
  C51      1.0000 0.41980  0.89070  0.15830  Biso   1.000  C
  C52      1.0000 0.58020  0.10930  0.84170  Biso   1.000  C
  H43      1.0000 0.39340  0.93730  0.20100  Biso   1.000  H
  H44      1.0000 0.60660  0.06270  0.79900  Biso   1.000  H
  O1       1.0000 0.92700  0.99110  0.15500  Biso   1.000  O
  O2       1.0000 0.07300  0.00890  0.84500  Biso   1.000  O
  O3       1.0000 0.15650  0.87030  0.73120  Biso   1.000  O
  O4       1.0000 0.84350  0.12970  0.26880  Biso   1.000  O
  O5       1.0000 0.98000  0.08340  0.70058  Biso   1.000  O
  O6       1.0000 0.02000  0.91660  0.29942  Biso   1.000  O
  O7       1.0000 0.05130  0.95390  0.56327  Biso   1.000  O
  O8       1.0000 0.94870  0.04610  0.43673  Biso   1.000  O
  O9       1.0000 0.87470  0.17930  0.58450  Biso   1.000  O
  O10      1.0000 0.12530  0.82070  0.41550  Biso   1.000  O
  O11      1.0000 0.81790  0.93080  0.54675  Biso   1.000  O
  O12      1.0000 0.18210  0.06920  0.45325  Biso   1.000  O
  O13      1.0000 0.88780  0.80650  0.42565  Biso   1.000  O
  O14      1.0000 0.11220  0.19350  0.57435  Biso   1.000  O
  O15      1.0000 0.36200  0.23190  0.59880  Biso   1.000  O
  O16      1.0000 0.63800  0.76810  0.40120  Biso   1.000  O
  O17      1.0000 0.31210  0.99410  0.57200  Biso   1.000  O
  O18      1.0000 0.68790  0.00590  0.42800  Biso   1.000  O
  O19      1.0000 0.97020  0.68940  0.53710  Biso   1.000  O
  O20      1.0000 0.02980  0.31060  0.46290  Biso   1.000  O
  O21      1.0000 0.92560  0.84630  0.68090  Biso   1.000  O
  O22      1.0000 0.07440  0.15370  0.31910  Biso   1.000  O
  O23      1.0000 0.74370  0.68290  0.54360  Biso   1.000  O
  O24      1.0000 0.25630  0.31710  0.45640  Biso   1.000  O
  O25      1.0000 0.53260  0.80000  0.74950  Biso   1.000  O
  O26      1.0000 0.46740  0.20000  0.25050  Biso   1.000  O
  H45      1.0000 0.57450  0.84460  0.71990  Biso   1.000  H
  H46      1.0000 0.42550  0.15540  0.28010  Biso   1.000  H
  O27      1.0000 0.22310  0.79120  0.24340  Biso   1.000  O
  O28      1.0000 0.77690  0.20880  0.75660  Biso   1.000  O
  H47      1.0000 0.28190  0.82750  0.28360  Biso   1.000  H
  H48      1.0000 0.71810  0.17250  0.71640  Biso   1.000  H
  O29      1.0000 0.21120  0.10190  0.70760  Biso   1.000  O
  O30      1.0000 0.78880  0.89810  0.29240  Biso   1.000  O
  N1       1.0000 0.35290  0.74710  0.59030  Biso   1.000  N
  N2       1.0000 0.64710  0.25290  0.40970  Biso   1.000  N
  N3       1.0000 0.17130  0.59550  0.56150  Biso   1.000  N
  N4       1.0000 0.82870  0.40450  0.43850  Biso   1.000  N
  N5       1.0000 0.36250  0.63750  0.58870  Biso   1.000  N
  N6       1.0000 0.63750  0.36250  0.41130  Biso   1.000  N
  N7       1.0000 0.71570  0.74070  0.82210  Biso   1.000  N
  N8       1.0000 0.28430  0.25930  0.17790  Biso   1.000  N
  N9       1.0000 0.70580  0.67810  0.88880  Biso   1.000  N
  N10      1.0000 0.29420  0.32190  0.11120  Biso   1.000  N
  N11      1.0000 0.85000  0.86440  0.93390  Biso   1.000  N
  N12      1.0000 0.15000  0.13560  0.06610  Biso   1.000  N
  N13      1.0000 0.17160  0.55230  0.27330  Biso   1.000  N
  N14      1.0000 0.82840  0.44770  0.72670  Biso   1.000  N
  N15      1.0000 0.05740  0.51170  0.37710  Biso   1.000  N
  N16      1.0000 0.94260  0.48830  0.62290  Biso   1.000  N
  N17      1.0000 0.07970  0.44710  0.23220  Biso   1.000  N
  N18      1.0000 0.92030  0.55290  0.76780  Biso   1.000  N
  N19      1.0000 0.11410  0.73380  0.05880  Biso   1.000  N
  N20      1.0000 0.88590  0.26620  0.94120  Biso   1.000  N
  N21      1.0000 0.07100  0.87700  0.01830  Biso   1.000  N
  N22      1.0000 0.92900  0.12300  0.98170  Biso   1.000  N
  N23      1.0000 0.14500  0.73450  0.97400  Biso   1.000  N
  N24      1.0000 0.85500  0.26550  0.02600  Biso   1.000  N
  F1       1.0000 0.34760  0.58260  0.04660  Biso   1.000  F
  F2       1.0000 0.65240  0.41740  0.95340  Biso   1.000  F
  F3       1.0000 0.65590  0.93600  0.02040  Biso   1.000  F
  F4       1.0000 0.34410  0.06400  0.97960  Biso   1.000  F
  F5       1.0000 0.50020  0.43990  0.72910  Biso   1.000  F
  F6       1.0000 0.49980  0.56010  0.27090  Biso   1.000  F
  F7       1.0000 0.15870  0.37080  0.87030  Biso   1.000  F
  F8       1.0000 0.84130  0.62920  0.12970  Biso   1.000  F
  O31      1.0000 0.40550  0.86570  0.40690  Biso   1.000  O
  O32      1.0000 0.59450  0.13430  0.59310  Biso   1.000  O
  H49      1.0000 0.47600  0.88400  0.39200  Biso   1.000  H
  H50      1.0000 0.52400  0.11600  0.60800  Biso   1.000  H
  H51      1.0000 0.41400  0.88300  0.46570  Biso   1.000  H
  H52      1.0000 0.58600  0.11700  0.53430  Biso   1.000  H
  O33      1.0000 0.62030  0.94200  0.63390  Biso   1.000  O
  O34      1.0000 0.37970  0.05800  0.36610  Biso   1.000  O
  H53      1.0000 0.57600  0.88100  0.58900  Biso   1.000  H
  H54      1.0000 0.42400  0.11900  0.41100  Biso   1.000  H
  H55      1.0000 0.68800  0.97300  0.61300  Biso   1.000  H
  H56      1.0000 0.31200  0.02700  0.38700  Biso   1.000  H
