data_image0
_cell_length_a       8.2381
_cell_length_b       8.3264
_cell_length_c       9.8035
_cell_angle_alpha    85.166
_cell_angle_beta     83.523
_cell_angle_gamma    75.803

_symmetry_space_group_name_H-M    "P 1"
_symmetry_int_tables_number       1

loop_
  _symmetry_equiv_pos_as_xyz
  'x, y, z'

loop_
  _atom_site_label
  _atom_site_occupancy
  _atom_site_fract_x
  _atom_site_fract_y
  _atom_site_fract_z
  _atom_site_thermal_displace_type
  _atom_site_B_iso_or_equiv
  _atom_site_type_symbol
  Cu1      1.0000 0.46225  0.83329  0.61868  Biso   1.000  Cu
  Cu2      1.0000 0.53775  0.16671  0.38132  Biso   1.000  Cu
  Cu3      1.0000 0.82520  0.56413  0.59173  Biso   1.000  Cu
  Cu4      1.0000 0.17480  0.43587  0.40827  Biso   1.000  Cu
  Cu5      1.0000 0.13367  0.65791  0.65955  Biso   1.000  Cu
  Cu6      1.0000 0.86633  0.34209  0.34045  Biso   1.000  Cu
  O1       1.0000 0.96290  0.54080  0.74460  Biso   1.000  O
  O2       1.0000 0.03710  0.45920  0.25540  Biso   1.000  O
  O3       1.0000 0.04880  0.64510  0.48260  Biso   1.000  O
  O4       1.0000 0.95120  0.35490  0.51740  Biso   1.000  O
  O5       1.0000 0.25300  0.81370  0.56120  Biso   1.000  O
  O6       1.0000 0.74700  0.18630  0.43880  Biso   1.000  O
  O7       1.0000 0.56430  0.85990  0.42690  Biso   1.000  O
  O8       1.0000 0.43570  0.14010  0.57310  Biso   1.000  O
  O9       1.0000 0.69360  0.59040  0.42850  Biso   1.000  O
  O10      1.0000 0.30640  0.40960  0.57150  Biso   1.000  O
  O11      1.0000 0.36150  0.86440  0.80690  Biso   1.000  O
  O12      1.0000 0.63850  0.13560  0.19310  Biso   1.000  O
  O13      1.0000 0.68260  0.75250  0.67840  Biso   1.000  O
  O14      1.0000 0.31740  0.24750  0.32160  Biso   1.000  O
  O15      1.0000 0.19800  0.68220  0.83920  Biso   1.000  O
  O16      1.0000 0.80200  0.31780  0.16080  Biso   1.000  O
  C1       1.0000 0.64150  0.73130  0.36440  Biso   1.000  C
  C2       1.0000 0.35850  0.26870  0.63560  Biso   1.000  C
  C3       1.0000 0.05770  0.79710  0.40360  Biso   1.000  C
  C4       1.0000 0.94230  0.20290  0.59640  Biso   1.000  C
  H1       1.0000 0.96736  0.89025  0.43902  Biso   1.000  H
  H2       1.0000 0.03264  0.10975  0.56098  Biso   1.000  H
  H3       1.0000 0.04450  0.78679  0.30584  Biso   1.000  H
  H4       1.0000 0.95550  0.21321  0.69416  Biso   1.000  H
  C5       1.0000 0.22810  0.82760  0.41780  Biso   1.000  C
  C6       1.0000 0.77190  0.17240  0.58220  Biso   1.000  C
  H5       1.0000 0.31720  0.74497  0.36782  Biso   1.000  H
  H6       1.0000 0.68280  0.25503  0.63218  Biso   1.000  H
  H7       1.0000 0.23354  0.93971  0.37818  Biso   1.000  H
  H8       1.0000 0.76646  0.06029  0.62182  Biso   1.000  H
  C7       1.0000 0.74280  0.77940  0.80330  Biso   1.000  C
  C8       1.0000 0.25720  0.22060  0.19670  Biso   1.000  C
  H9       1.0000 0.64692  0.81932  0.87236  Biso   1.000  H
  H10      1.0000 0.35308  0.18068  0.12764  Biso   1.000  H
  H11      1.0000 0.80957  0.86431  0.78676  Biso   1.000  H
  H12      1.0000 0.19043  0.13569  0.21324  Biso   1.000  H
  C9       1.0000 0.26330  0.79080  0.87950  Biso   1.000  C
  C10      1.0000 0.73670  0.20920  0.12050  Biso   1.000  C
  C11      1.0000 0.67260  0.73920  0.21220  Biso   1.000  C
  C12      1.0000 0.32740  0.26080  0.78780  Biso   1.000  C
  H13      1.0000 0.61585  0.84902  0.17502  Biso   1.000  H
  H14      1.0000 0.38415  0.15098  0.82498  Biso   1.000  H
  H15      1.0000 0.62868  0.65406  0.17550  Biso   1.000  H
  H16      1.0000 0.37132  0.34594  0.82450  Biso   1.000  H
  H17      1.0000 0.79379  0.71961  0.18551  Biso   1.000  H
  H18      1.0000 0.20621  0.28039  0.81449  Biso   1.000  H
  C13      1.0000 0.85160  0.61580  0.85570  Biso   1.000  C
  C14      1.0000 0.14840  0.38420  0.14430  Biso   1.000  C
  H19      1.0000 0.91702  0.63553  0.92867  Biso   1.000  H
  H20      1.0000 0.08298  0.36447  0.07133  Biso   1.000  H
  H21      1.0000 0.77951  0.54096  0.89532  Biso   1.000  H
  H22      1.0000 0.22049  0.45904  0.10468  Biso   1.000  H
  C15      1.0000 0.22660  0.82650  0.02900  Biso   1.000  C
  C16      1.0000 0.77340  0.17350  0.97100  Biso   1.000  C
  H23      1.0000 0.32483  0.77240  0.07796  Biso   1.000  H
  H24      1.0000 0.67517  0.22760  0.92204  Biso   1.000  H
  H25      1.0000 0.12962  0.78386  0.06846  Biso   1.000  H
  H26      1.0000 0.87038  0.21614  0.93154  Biso   1.000  H
  H27      1.0000 0.20144  0.94664  0.03818  Biso   1.000  H
  H28      1.0000 0.79856  0.05336  0.96182  Biso   1.000  H
