data_image0
_cell_length_a       11.55
_cell_length_b       11.569
_cell_length_c       8.113
_cell_angle_alpha    107.98
_cell_angle_beta     90.86
_cell_angle_gamma    91.32

_symmetry_space_group_name_H-M    "P 1"
_symmetry_int_tables_number       1

loop_
  _symmetry_equiv_pos_as_xyz
  'x, y, z'

loop_
  _atom_site_label
  _atom_site_occupancy
  _atom_site_fract_x
  _atom_site_fract_y
  _atom_site_fract_z
  _atom_site_thermal_displace_type
  _atom_site_B_iso_or_equiv
  _atom_site_type_symbol
  Cu1      1.0000 0.50000  0.50000  0.00000  Biso   1.000  Cu
  Cu2      1.0000 0.50000  0.50000  0.50000  Biso   1.000  Cu
  P1       1.0000 0.35740  0.32710  0.17140  Biso   1.000  P
  P2       1.0000 0.64260  0.67290  0.82860  Biso   1.000  P
  P3       1.0000 0.44000  0.71240  0.34260  Biso   1.000  P
  P4       1.0000 0.56000  0.28760  0.65740  Biso   1.000  P
  O1       1.0000 0.37180  0.39550  0.04100  Biso   1.000  O
  O2       1.0000 0.62820  0.60450  0.95900  Biso   1.000  O
  O3       1.0000 0.37380  0.39600  0.36000  Biso   1.000  O
  O4       1.0000 0.62620  0.60400  0.64000  Biso   1.000  O
  O5       1.0000 0.42000  0.64440  0.15400  Biso   1.000  O
  O6       1.0000 0.58000  0.35560  0.84600  Biso   1.000  O
  O7       1.0000 0.42230  0.64460  0.47100  Biso   1.000  O
  O8       1.0000 0.57770  0.35540  0.52900  Biso   1.000  O
  O9       1.0000 0.60510  0.47540  0.24000  Biso   1.000  O
  O10      1.0000 0.39490  0.52460  0.76000  Biso   1.000  O
  C1       1.0000 0.45000  0.19500  0.11700  Biso   1.000  C
  C2       1.0000 0.55000  0.80500  0.88300  Biso   1.000  C
  C3       1.0000 0.20800  0.26900  0.14400  Biso   1.000  C
  C4       1.0000 0.79200  0.73100  0.85600  Biso   1.000  C
  C5       1.0000 0.14500  0.26600  0.28500  Biso   1.000  C
  C6       1.0000 0.85500  0.73400  0.71500  Biso   1.000  C
  C7       1.0000 0.02800  0.22700  0.26300  Biso   1.000  C
  C8       1.0000 0.97200  0.77300  0.73700  Biso   1.000  C
  C9       1.0000 0.97800  0.18800  0.09800  Biso   1.000  C
  C10      1.0000 0.02200  0.81200  0.90200  Biso   1.000  C
  C11      1.0000 0.04000  0.19200  0.95400  Biso   1.000  C
  C12      1.0000 0.96000  0.80800  0.04600  Biso   1.000  C
  C13      1.0000 0.15800  0.23300  0.97700  Biso   1.000  C
  C14      1.0000 0.84200  0.76700  0.02300  Biso   1.000  C
  C15      1.0000 0.57900  0.79000  0.38000  Biso   1.000  C
  C16      1.0000 0.42100  0.21000  0.62000  Biso   1.000  C
  C17      1.0000 0.33400  0.83100  0.39300  Biso   1.000  C
  C18      1.0000 0.66600  0.16900  0.60700  Biso   1.000  C
  C19      1.0000 0.29900  0.88400  0.26700  Biso   1.000  C
  C20      1.0000 0.70100  0.11600  0.73300  Biso   1.000  C
  C21      1.0000 0.21600  0.97400  0.30500  Biso   1.000  C
  C22      1.0000 0.78400  0.02600  0.69500  Biso   1.000  C
  C23      1.0000 0.16900  0.00800  0.47200  Biso   1.000  C
  C24      1.0000 0.83100  0.99200  0.52800  Biso   1.000  C
  C25      1.0000 0.20200  0.95900  0.60000  Biso   1.000  C
  C26      1.0000 0.79800  0.04100  0.40000  Biso   1.000  C
  C27      1.0000 0.28700  0.86800  0.56100  Biso   1.000  C
  C28      1.0000 0.71300  0.13200  0.43900  Biso   1.000  C
  C29      1.0000 0.71200  0.47900  0.23700  Biso   1.000  C
  C30      1.0000 0.28800  0.52100  0.76300  Biso   1.000  C
  N1       1.0000 0.77900  0.45700  0.35600  Biso   1.000  N
  N2       1.0000 0.22100  0.54300  0.64400  Biso   1.000  N
  O11      1.0000 0.85000  0.42500  0.80700  Biso   1.000  O
  O12      1.0000 0.15000  0.57500  0.19300  Biso   1.000  O
  C31      1.0000 0.92600  0.42200  0.71800  Biso   1.000  C
  C32      1.0000 0.07400  0.57800  0.28200  Biso   1.000  C
  N3       1.0000 0.01700  0.41900  0.71800  Biso   1.000  N
  N4       1.0000 0.98300  0.58100  0.28200  Biso   1.000  N
