data_image0
_cell_length_a       14.993
_cell_length_b       8.0948
_cell_length_c       9.259
_cell_angle_alpha    90
_cell_angle_beta     90
_cell_angle_gamma    90

_symmetry_space_group_name_H-M    "P 1"
_symmetry_int_tables_number       1

loop_
  _symmetry_equiv_pos_as_xyz
  'x, y, z'

loop_
  _atom_site_label
  _atom_site_occupancy
  _atom_site_fract_x
  _atom_site_fract_y
  _atom_site_fract_z
  _atom_site_thermal_displace_type
  _atom_site_B_iso_or_equiv
  _atom_site_type_symbol
  Cu1      1.0000 0.50000  0.54986  0.72824  Biso   1.000  Cu
  Cu2      1.0000 0.50000  0.45014  0.22824  Biso   1.000  Cu
  Cu3      1.0000 0.00000  0.98893  0.46996  Biso   1.000  Cu
  Cu4      1.0000 0.00000  0.01107  0.96996  Biso   1.000  Cu
  O1       1.0000 0.40374  0.39880  0.65070  Biso   1.000  O
  O2       1.0000 0.59626  0.60120  0.15070  Biso   1.000  O
  O3       1.0000 0.59626  0.39880  0.65070  Biso   1.000  O
  O4       1.0000 0.40374  0.60120  0.15070  Biso   1.000  O
  O5       1.0000 0.09578  0.14190  0.54360  Biso   1.000  O
  O6       1.0000 0.90422  0.85810  0.04360  Biso   1.000  O
  O7       1.0000 0.90422  0.14190  0.54360  Biso   1.000  O
  O8       1.0000 0.09578  0.85810  0.04360  Biso   1.000  O
  O9       1.0000 0.34823  0.31740  0.86190  Biso   1.000  O
  O10      1.0000 0.65177  0.68260  0.36190  Biso   1.000  O
  O11      1.0000 0.65177  0.31740  0.86190  Biso   1.000  O
  O12      1.0000 0.34823  0.68260  0.36190  Biso   1.000  O
  O13      1.0000 0.14590  0.24420  0.33400  Biso   1.000  O
  O14      1.0000 0.85410  0.75580  0.83400  Biso   1.000  O
  O15      1.0000 0.85410  0.24420  0.33400  Biso   1.000  O
  O16      1.0000 0.14590  0.75580  0.83400  Biso   1.000  O
  O17      1.0000 0.50000  0.67850  0.52140  Biso   1.000  O
  O18      1.0000 0.50000  0.32150  0.02140  Biso   1.000  O
  H1       1.0000 0.55110  0.66990  0.48230  Biso   1.000  H
  H2       1.0000 0.44890  0.33010  0.98230  Biso   1.000  H
  H3       1.0000 0.44890  0.66990  0.48230  Biso   1.000  H
  H4       1.0000 0.55110  0.33010  0.98230  Biso   1.000  H
  O19      1.0000 0.00000  0.86180  0.68850  Biso   1.000  O
  O20      1.0000 0.00000  0.13820  0.18850  Biso   1.000  O
  H5       1.0000 0.94670  0.83980  0.71300  Biso   1.000  H
  H6       1.0000 0.05330  0.16020  0.21300  Biso   1.000  H
  H7       1.0000 0.05330  0.83980  0.71300  Biso   1.000  H
  H8       1.0000 0.94670  0.16020  0.21300  Biso   1.000  H
  N1       1.0000 0.40440  0.68540  0.82600  Biso   1.000  N
  N2       1.0000 0.59560  0.31460  0.32600  Biso   1.000  N
  N3       1.0000 0.59560  0.68540  0.82600  Biso   1.000  N
  N4       1.0000 0.40440  0.31460  0.32600  Biso   1.000  N
  H9       1.0000 0.39860  0.64770  0.91700  Biso   1.000  H
  H10      1.0000 0.60140  0.35230  0.41700  Biso   1.000  H
  H11      1.0000 0.60140  0.64770  0.91700  Biso   1.000  H
  H12      1.0000 0.39860  0.35230  0.41700  Biso   1.000  H
  H13      1.0000 0.35250  0.66520  0.78040  Biso   1.000  H
  H14      1.0000 0.64750  0.33480  0.28040  Biso   1.000  H
  H15      1.0000 0.64750  0.66520  0.78040  Biso   1.000  H
  H16      1.0000 0.35250  0.33480  0.28040  Biso   1.000  H
  N5       1.0000 0.09470  0.84470  0.38200  Biso   1.000  N
  N6       1.0000 0.90530  0.15530  0.88200  Biso   1.000  N
  N7       1.0000 0.90530  0.84470  0.38200  Biso   1.000  N
  N8       1.0000 0.09470  0.15530  0.88200  Biso   1.000  N
  H17      1.0000 0.14720  0.87310  0.42180  Biso   1.000  H
  H18      1.0000 0.85280  0.12690  0.92180  Biso   1.000  H
  H19      1.0000 0.85280  0.87310  0.42180  Biso   1.000  H
  H20      1.0000 0.14720  0.12690  0.92180  Biso   1.000  H
  H21      1.0000 0.09790  0.86940  0.28740  Biso   1.000  H
  H22      1.0000 0.90210  0.13060  0.78740  Biso   1.000  H
  H23      1.0000 0.90210  0.86940  0.28740  Biso   1.000  H
  H24      1.0000 0.09790  0.13060  0.78740  Biso   1.000  H
  C1       1.0000 0.41620  0.86660  0.83280  Biso   1.000  C
  C2       1.0000 0.58380  0.13340  0.33280  Biso   1.000  C
  C3       1.0000 0.58380  0.86660  0.83280  Biso   1.000  C
  C4       1.0000 0.41620  0.13340  0.33280  Biso   1.000  C
  H25      1.0000 0.36530  0.91540  0.88140  Biso   1.000  H
  H26      1.0000 0.63470  0.08460  0.38140  Biso   1.000  H
  H27      1.0000 0.63470  0.91540  0.88140  Biso   1.000  H
  H28      1.0000 0.36530  0.08460  0.38140  Biso   1.000  H
  H29      1.0000 0.41840  0.91080  0.73550  Biso   1.000  H
  H30      1.0000 0.58160  0.08920  0.23550  Biso   1.000  H
  H31      1.0000 0.58160  0.91080  0.73550  Biso   1.000  H
  H32      1.0000 0.41840  0.08920  0.23550  Biso   1.000  H
  C5       1.0000 0.08480  0.66400  0.39520  Biso   1.000  C
  C6       1.0000 0.91520  0.33600  0.89520  Biso   1.000  C
  C7       1.0000 0.91520  0.66400  0.39520  Biso   1.000  C
  C8       1.0000 0.08480  0.33600  0.89520  Biso   1.000  C
  H33      1.0000 0.08380  0.63380  0.49650  Biso   1.000  H
  H34      1.0000 0.91620  0.36620  0.99650  Biso   1.000  H
  H35      1.0000 0.91620  0.63380  0.49650  Biso   1.000  H
  H36      1.0000 0.08380  0.36620  0.99650  Biso   1.000  H
  H37      1.0000 0.13570  0.61020  0.35070  Biso   1.000  H
  H38      1.0000 0.86430  0.38980  0.85070  Biso   1.000  H
  H39      1.0000 0.86430  0.61020  0.35070  Biso   1.000  H
  H40      1.0000 0.13570  0.38980  0.85070  Biso   1.000  H
  C9       1.0000 0.50000  0.91350  0.91170  Biso   1.000  C
  C10      1.0000 0.50000  0.08650  0.41170  Biso   1.000  C
  H41      1.0000 0.50000  0.86020  0.00560  Biso   1.000  H
  H42      1.0000 0.50000  0.13980  0.50560  Biso   1.000  H
  H43      1.0000 0.50000  0.03200  0.92760  Biso   1.000  H
  H44      1.0000 0.50000  0.96800  0.42760  Biso   1.000  H
  C11      1.0000 0.00000  0.60450  0.32350  Biso   1.000  C
  C12      1.0000 0.00000  0.39550  0.82350  Biso   1.000  C
  H45      1.0000 0.00000  0.48470  0.32310  Biso   1.000  H
  H46      1.0000 0.00000  0.51530  0.82310  Biso   1.000  H
  H47      1.0000 0.00000  0.64120  0.22380  Biso   1.000  H
  H48      1.0000 0.00000  0.35880  0.72380  Biso   1.000  H
  C13      1.0000 0.34705  0.32460  0.72720  Biso   1.000  C
  C14      1.0000 0.65295  0.67540  0.22720  Biso   1.000  C
  C15      1.0000 0.65295  0.32460  0.72720  Biso   1.000  C
  C16      1.0000 0.34705  0.67540  0.22720  Biso   1.000  C
  C17      1.0000 0.14940  0.22480  0.46750  Biso   1.000  C
  C18      1.0000 0.85060  0.77520  0.96750  Biso   1.000  C
  C19      1.0000 0.85060  0.22480  0.46750  Biso   1.000  C
  C20      1.0000 0.14940  0.77520  0.96750  Biso   1.000  C
  C21      1.0000 0.26970  0.24190  0.65370  Biso   1.000  C
  C22      1.0000 0.73030  0.75810  0.15370  Biso   1.000  C
  C23      1.0000 0.73030  0.24190  0.65370  Biso   1.000  C
  C24      1.0000 0.26970  0.75810  0.15370  Biso   1.000  C
  H49      1.0000 0.25150  0.13880  0.68690  Biso   1.000  H
  H50      1.0000 0.74850  0.86120  0.18690  Biso   1.000  H
  H51      1.0000 0.74850  0.13880  0.68690  Biso   1.000  H
  H52      1.0000 0.25150  0.86120  0.18690  Biso   1.000  H
  C25      1.0000 0.22590  0.30900  0.54320  Biso   1.000  C
  C26      1.0000 0.77410  0.69100  0.04320  Biso   1.000  C
  C27      1.0000 0.77410  0.30900  0.54320  Biso   1.000  C
  C28      1.0000 0.22590  0.69100  0.04320  Biso   1.000  C
  H53      1.0000 0.24340  0.41290  0.51120  Biso   1.000  H
  H54      1.0000 0.75660  0.58710  0.01120  Biso   1.000  H
  H55      1.0000 0.75660  0.41290  0.51120  Biso   1.000  H
  H56      1.0000 0.24340  0.58710  0.01120  Biso   1.000  H
  O21      1.0000 0.25560  0.16670  0.08690  Biso   1.000  O
  O22      1.0000 0.74440  0.83330  0.58690  Biso   1.000  O
  O23      1.0000 0.74440  0.16670  0.08690  Biso   1.000  O
  O24      1.0000 0.25560  0.83330  0.58690  Biso   1.000  O
  H57      1.0000 0.23590  0.23580  0.15100  Biso   1.000  H
  H58      1.0000 0.76410  0.76420  0.65100  Biso   1.000  H
  H59      1.0000 0.76410  0.23580  0.15100  Biso   1.000  H
  H60      1.0000 0.23590  0.76420  0.65100  Biso   1.000  H
  H61      1.0000 0.26860  0.23270  0.01680  Biso   1.000  H
  H62      1.0000 0.73140  0.76730  0.51680  Biso   1.000  H
  H63      1.0000 0.73140  0.23270  0.01680  Biso   1.000  H
  H64      1.0000 0.26860  0.76730  0.51680  Biso   1.000  H
