data_image0
_cell_length_a       12.335
_cell_length_b       9.44
_cell_length_c       19.284
_cell_angle_alpha    90
_cell_angle_beta     99.754
_cell_angle_gamma    90

_symmetry_space_group_name_H-M    "P 1"
_symmetry_int_tables_number       1

loop_
  _symmetry_equiv_pos_as_xyz
  'x, y, z'

loop_
  _atom_site_label
  _atom_site_occupancy
  _atom_site_fract_x
  _atom_site_fract_y
  _atom_site_fract_z
  _atom_site_thermal_displace_type
  _atom_site_B_iso_or_equiv
  _atom_site_type_symbol
  Cu1      1.0000 0.13092  0.72162  0.33419  Biso   1.000  Cu
  Cu2      1.0000 0.86908  0.22162  0.16581  Biso   1.000  Cu
  Cu3      1.0000 0.86908  0.27838  0.66581  Biso   1.000  Cu
  Cu4      1.0000 0.13092  0.77838  0.83419  Biso   1.000  Cu
  Cl1      1.0000 0.60970  0.36220  0.38149  Biso   1.000  Cl
  Cl2      1.0000 0.39030  0.86220  0.11851  Biso   1.000  Cl
  Cl3      1.0000 0.39030  0.63780  0.61851  Biso   1.000  Cl
  Cl4      1.0000 0.60970  0.13780  0.88149  Biso   1.000  Cl
  O1       1.0000 0.10990  0.62140  0.22820  Biso   1.000  O
  O2       1.0000 0.89010  0.12140  0.27180  Biso   1.000  O
  O3       1.0000 0.89010  0.37860  0.77180  Biso   1.000  O
  O4       1.0000 0.10990  0.87860  0.72820  Biso   1.000  O
  O5       1.0000 0.01070  0.31340  0.16800  Biso   1.000  O
  O6       1.0000 0.98930  0.81340  0.33200  Biso   1.000  O
  O7       1.0000 0.98930  0.68660  0.83200  Biso   1.000  O
  O8       1.0000 0.01070  0.18660  0.66800  Biso   1.000  O
  O9       1.0000 0.93570  0.39480  0.06330  Biso   1.000  O
  O10      1.0000 0.06430  0.89480  0.43670  Biso   1.000  O
  O11      1.0000 0.06430  0.60520  0.93670  Biso   1.000  O
  O12      1.0000 0.93570  0.10520  0.56330  Biso   1.000  O
  O13      1.0000 0.53440  0.41300  0.33080  Biso   1.000  O
  O14      1.0000 0.46560  0.91300  0.16920  Biso   1.000  O
  O15      1.0000 0.46560  0.58700  0.66920  Biso   1.000  O
  O16      1.0000 0.53440  0.08700  0.83080  Biso   1.000  O
  O17      1.0000 0.55830  0.32970  0.43560  Biso   1.000  O
  O18      1.0000 0.44170  0.82970  0.06440  Biso   1.000  O
  O19      1.0000 0.44170  0.67030  0.56440  Biso   1.000  O
  O20      1.0000 0.55830  0.17030  0.93560  Biso   1.000  O
  O21      1.0000 0.65930  0.25300  0.36470  Biso   1.000  O
  O22      1.0000 0.34070  0.75300  0.13530  Biso   1.000  O
  O23      1.0000 0.34070  0.74700  0.63530  Biso   1.000  O
  O24      1.0000 0.65930  0.24700  0.86470  Biso   1.000  O
  O25      1.0000 0.69180  0.45740  0.39800  Biso   1.000  O
  O26      1.0000 0.30820  0.95740  0.10200  Biso   1.000  O
  O27      1.0000 0.30820  0.54260  0.60200  Biso   1.000  O
  O28      1.0000 0.69180  0.04260  0.89800  Biso   1.000  O
  O29      1.0000 0.64710  0.77170  0.37350  Biso   1.000  O
  O30      1.0000 0.35290  0.27170  0.12650  Biso   1.000  O
  O31      1.0000 0.35290  0.22830  0.62650  Biso   1.000  O
  O32      1.0000 0.64710  0.72830  0.87350  Biso   1.000  O
  O33      1.0000 0.71680  0.07960  0.51140  Biso   1.000  O
  O34      1.0000 0.28320  0.57960  0.98860  Biso   1.000  O
  O35      1.0000 0.28320  0.92040  0.48860  Biso   1.000  O
  O36      1.0000 0.71680  0.42040  0.01140  Biso   1.000  O
  O37      1.0000 0.41560  0.14620  0.50390  Biso   1.000  O
  O38      1.0000 0.58440  0.64620  0.99610  Biso   1.000  O
  O39      1.0000 0.58440  0.85380  0.49610  Biso   1.000  O
  O40      1.0000 0.41560  0.35380  0.00390  Biso   1.000  O
  N1       1.0000 0.21100  0.89290  0.31310  Biso   1.000  N
  N2       1.0000 0.78900  0.39290  0.18690  Biso   1.000  N
  N3       1.0000 0.78900  0.10710  0.68690  Biso   1.000  N
  N4       1.0000 0.21100  0.60710  0.81310  Biso   1.000  N
  N5       1.0000 0.28480  0.62840  0.34330  Biso   1.000  N
  N6       1.0000 0.71520  0.12840  0.15670  Biso   1.000  N
  N7       1.0000 0.71520  0.37160  0.65670  Biso   1.000  N
  N8       1.0000 0.28480  0.87160  0.84330  Biso   1.000  N
  N9       1.0000 0.09360  0.54720  0.38300  Biso   1.000  N
  N10      1.0000 0.90640  0.04720  0.11700  Biso   1.000  N
  N11      1.0000 0.90640  0.45280  0.61700  Biso   1.000  N
  N12      1.0000 0.09360  0.95280  0.88300  Biso   1.000  N
  N13      1.0000 0.20030  0.46950  0.16840  Biso   1.000  N
  N14      1.0000 0.79970  0.96950  0.33160  Biso   1.000  N
  N15      1.0000 0.79970  0.53050  0.83160  Biso   1.000  N
  N16      1.0000 0.20030  0.03050  0.66840  Biso   1.000  N
  C1       1.0000 0.16640  0.01370  0.28660  Biso   1.000  C
  C2       1.0000 0.83360  0.51370  0.21340  Biso   1.000  C
  C3       1.0000 0.83360  0.98630  0.71340  Biso   1.000  C
  C4       1.0000 0.16640  0.48630  0.78660  Biso   1.000  C
  C5       1.0000 0.22790  0.12800  0.27410  Biso   1.000  C
  C6       1.0000 0.77210  0.62800  0.22590  Biso   1.000  C
  C7       1.0000 0.77210  0.87200  0.72590  Biso   1.000  C
  C8       1.0000 0.22790  0.37200  0.77410  Biso   1.000  C
  C9       1.0000 0.34110  0.11740  0.28950  Biso   1.000  C
  C10      1.0000 0.65890  0.61740  0.21050  Biso   1.000  C
  C11      1.0000 0.65890  0.88260  0.71050  Biso   1.000  C
  C12      1.0000 0.34110  0.38260  0.78950  Biso   1.000  C
  C13      1.0000 0.38750  0.99400  0.31700  Biso   1.000  C
  C14      1.0000 0.61250  0.49400  0.18300  Biso   1.000  C
  C15      1.0000 0.61250  0.00600  0.68300  Biso   1.000  C
  C16      1.0000 0.38750  0.50600  0.81700  Biso   1.000  C
  C17      1.0000 0.32130  0.88180  0.32780  Biso   1.000  C
  C18      1.0000 0.67870  0.38180  0.17220  Biso   1.000  C
  C19      1.0000 0.67870  0.11820  0.67220  Biso   1.000  C
  C20      1.0000 0.32130  0.61820  0.82780  Biso   1.000  C
  C21      1.0000 0.36590  0.74410  0.35940  Biso   1.000  C
  C22      1.0000 0.63410  0.24410  0.14060  Biso   1.000  C
  C23      1.0000 0.63410  0.25590  0.64060  Biso   1.000  C
  C24      1.0000 0.36590  0.75590  0.85940  Biso   1.000  C
  C25      1.0000 0.29150  0.52730  0.40200  Biso   1.000  C
  C26      1.0000 0.70850  0.02730  0.09800  Biso   1.000  C
  C27      1.0000 0.70850  0.47270  0.59800  Biso   1.000  C
  C28      1.0000 0.29150  0.97270  0.90200  Biso   1.000  C
  C29      1.0000 0.18180  0.46480  0.40730  Biso   1.000  C
  C30      1.0000 0.81820  0.96480  0.09270  Biso   1.000  C
  C31      1.0000 0.81820  0.53520  0.59270  Biso   1.000  C
  C32      1.0000 0.18180  0.03520  0.90730  Biso   1.000  C
  C33      1.0000 0.16800  0.33410  0.43780  Biso   1.000  C
  C34      1.0000 0.83200  0.83410  0.06220  Biso   1.000  C
  C35      1.0000 0.83200  0.66590  0.56220  Biso   1.000  C
  C36      1.0000 0.16800  0.16590  0.93780  Biso   1.000  C
  C37      1.0000 0.06540  0.28950  0.44380  Biso   1.000  C
  C38      1.0000 0.93460  0.78950  0.05620  Biso   1.000  C
  C39      1.0000 0.93460  0.71050  0.55620  Biso   1.000  C
  C40      1.0000 0.06540  0.21050  0.94380  Biso   1.000  C
  C41      1.0000 0.97580  0.37400  0.41970  Biso   1.000  C
  C42      1.0000 0.02420  0.87400  0.08030  Biso   1.000  C
  C43      1.0000 0.02420  0.62600  0.58030  Biso   1.000  C
  C44      1.0000 0.97580  0.12600  0.91970  Biso   1.000  C
  C45      1.0000 0.99310  0.50110  0.38930  Biso   1.000  C
  C46      1.0000 0.00690  0.00110  0.11070  Biso   1.000  C
  C47      1.0000 0.00690  0.49890  0.61070  Biso   1.000  C
  C48      1.0000 0.99310  0.99890  0.88930  Biso   1.000  C
  C49      1.0000 0.29650  0.55780  0.27730  Biso   1.000  C
  C50      1.0000 0.70350  0.05780  0.22270  Biso   1.000  C
  C51      1.0000 0.70350  0.44220  0.72270  Biso   1.000  C
  C52      1.0000 0.29650  0.94220  0.77730  Biso   1.000  C
  C53      1.0000 0.19200  0.55090  0.22320  Biso   1.000  C
  C54      1.0000 0.80800  0.05090  0.27680  Biso   1.000  C
  C55      1.0000 0.80800  0.44910  0.77680  Biso   1.000  C
  C56      1.0000 0.19200  0.94910  0.72320  Biso   1.000  C
  C57      1.0000 0.11450  0.46630  0.10680  Biso   1.000  C
  C58      1.0000 0.88550  0.96630  0.39320  Biso   1.000  C
  C59      1.0000 0.88550  0.53370  0.89320  Biso   1.000  C
  C60      1.0000 0.11450  0.03370  0.60680  Biso   1.000  C
  C61      1.0000 0.01210  0.38660  0.11370  Biso   1.000  C
  C62      1.0000 0.98790  0.88660  0.38630  Biso   1.000  C
  C63      1.0000 0.98790  0.61340  0.88630  Biso   1.000  C
  C64      1.0000 0.01210  0.11340  0.61370  Biso   1.000  C
