data_image0
_cell_length_a       15.7566
_cell_length_b       14.2967
_cell_length_c       14.2703
_cell_angle_alpha    90
_cell_angle_beta     92.971
_cell_angle_gamma    90

_symmetry_space_group_name_H-M    "P 1"
_symmetry_int_tables_number       1

loop_
  _symmetry_equiv_pos_as_xyz
  'x, y, z'

loop_
  _atom_site_label
  _atom_site_occupancy
  _atom_site_fract_x
  _atom_site_fract_y
  _atom_site_fract_z
  _atom_site_thermal_displace_type
  _atom_site_B_iso_or_equiv
  _atom_site_type_symbol
  Cu1      1.0000 0.88141  0.61583  0.55805  Biso   1.000  Cu
  Cu2      1.0000 0.11859  0.61583  0.94195  Biso   1.000  Cu
  Cu3      1.0000 0.38141  0.11583  0.55805  Biso   1.000  Cu
  Cu4      1.0000 0.61859  0.11583  0.94195  Biso   1.000  Cu
  Cu5      1.0000 0.11859  0.38417  0.44195  Biso   1.000  Cu
  Cu6      1.0000 0.88141  0.38417  0.05805  Biso   1.000  Cu
  Cu7      1.0000 0.61859  0.88417  0.44195  Biso   1.000  Cu
  Cu8      1.0000 0.38141  0.88417  0.05805  Biso   1.000  Cu
  Cl1      1.0000 0.76114  0.57306  0.48079  Biso   1.000  Cl
  Cl2      1.0000 0.23886  0.57306  0.01921  Biso   1.000  Cl
  Cl3      1.0000 0.26114  0.07306  0.48079  Biso   1.000  Cl
  Cl4      1.0000 0.73886  0.07306  0.01921  Biso   1.000  Cl
  Cl5      1.0000 0.23886  0.42694  0.51921  Biso   1.000  Cl
  Cl6      1.0000 0.76114  0.42694  0.98079  Biso   1.000  Cl
  Cl7      1.0000 0.73886  0.92694  0.51921  Biso   1.000  Cl
  Cl8      1.0000 0.26114  0.92694  0.98079  Biso   1.000  Cl
  S1       1.0000 0.96618  0.91063  0.57125  Biso   1.000  S
  S2       1.0000 0.03382  0.91063  0.92875  Biso   1.000  S
  S3       1.0000 0.46618  0.41063  0.57125  Biso   1.000  S
  S4       1.0000 0.53382  0.41063  0.92875  Biso   1.000  S
  S5       1.0000 0.03382  0.08937  0.42875  Biso   1.000  S
  S6       1.0000 0.96618  0.08937  0.07125  Biso   1.000  S
  S7       1.0000 0.53382  0.58937  0.42875  Biso   1.000  S
  S8       1.0000 0.46618  0.58937  0.07125  Biso   1.000  S
  O1       1.0000 0.69722  0.14166  0.78809  Biso   1.000  O
  O2       1.0000 0.30278  0.14166  0.71191  Biso   1.000  O
  O3       1.0000 0.19722  0.64166  0.78809  Biso   1.000  O
  O4       1.0000 0.80278  0.64166  0.71191  Biso   1.000  O
  O5       1.0000 0.30278  0.85834  0.21191  Biso   1.000  O
  O6       1.0000 0.69722  0.85834  0.28809  Biso   1.000  O
  O7       1.0000 0.80278  0.35834  0.21191  Biso   1.000  O
  O8       1.0000 0.19722  0.35834  0.28809  Biso   1.000  O
  N1       1.0000 0.92632  0.48470  0.59090  Biso   1.000  N
  N2       1.0000 0.07368  0.48470  0.90910  Biso   1.000  N
  N3       1.0000 0.42632  0.98470  0.59090  Biso   1.000  N
  N4       1.0000 0.57368  0.98470  0.90910  Biso   1.000  N
  N5       1.0000 0.07368  0.51530  0.40910  Biso   1.000  N
  N6       1.0000 0.92632  0.51530  0.09090  Biso   1.000  N
  N7       1.0000 0.57368  0.01530  0.40910  Biso   1.000  N
  N8       1.0000 0.42632  0.01530  0.09090  Biso   1.000  N
  N9       1.0000 0.99566  0.64730  0.60960  Biso   1.000  N
  N10      1.0000 0.00434  0.64730  0.89040  Biso   1.000  N
  N11      1.0000 0.49566  0.14730  0.60960  Biso   1.000  N
  N12      1.0000 0.50434  0.14730  0.89040  Biso   1.000  N
  N13      1.0000 0.00434  0.35270  0.39040  Biso   1.000  N
  N14      1.0000 0.99566  0.35270  0.10960  Biso   1.000  N
  N15      1.0000 0.50434  0.85270  0.39040  Biso   1.000  N
  N16      1.0000 0.49566  0.85270  0.10960  Biso   1.000  N
  N17      1.0000 0.02033  0.73860  0.61240  Biso   1.000  N
  N18      1.0000 0.97967  0.73860  0.88760  Biso   1.000  N
  N19      1.0000 0.52033  0.23860  0.61240  Biso   1.000  N
  N20      1.0000 0.47967  0.23860  0.88760  Biso   1.000  N
  N21      1.0000 0.97967  0.26140  0.38760  Biso   1.000  N
  N22      1.0000 0.02033  0.26140  0.11240  Biso   1.000  N
  N23      1.0000 0.47967  0.76140  0.38760  Biso   1.000  N
  N24      1.0000 0.52033  0.76140  0.11240  Biso   1.000  N
  N25      1.0000 0.88440  0.75000  0.53710  Biso   1.000  N
  N26      1.0000 0.11560  0.75000  0.96290  Biso   1.000  N
  N27      1.0000 0.38440  0.25000  0.53710  Biso   1.000  N
  N28      1.0000 0.61560  0.25000  0.96290  Biso   1.000  N
  N29      1.0000 0.11560  0.25000  0.46290  Biso   1.000  N
  N30      1.0000 0.88440  0.25000  0.03710  Biso   1.000  N
  N31      1.0000 0.61560  0.75000  0.46290  Biso   1.000  N
  N32      1.0000 0.38440  0.75000  0.03710  Biso   1.000  N
  H1       1.0000 0.84900  0.79200  0.52200  Biso   1.000  H
  H2       1.0000 0.15100  0.79200  0.97800  Biso   1.000  H
  H3       1.0000 0.34900  0.29200  0.52200  Biso   1.000  H
  H4       1.0000 0.65100  0.29200  0.97800  Biso   1.000  H
  H5       1.0000 0.15100  0.20800  0.47800  Biso   1.000  H
  H6       1.0000 0.84900  0.20800  0.02200  Biso   1.000  H
  H7       1.0000 0.65100  0.70800  0.47800  Biso   1.000  H
  H8       1.0000 0.34900  0.70800  0.02200  Biso   1.000  H
  N33      1.0000 0.83773  0.20426  0.68380  Biso   1.000  N
  N34      1.0000 0.16227  0.20426  0.81620  Biso   1.000  N
  N35      1.0000 0.33773  0.70426  0.68380  Biso   1.000  N
  N36      1.0000 0.66227  0.70426  0.81620  Biso   1.000  N
  N37      1.0000 0.16227  0.79574  0.31620  Biso   1.000  N
  N38      1.0000 0.83773  0.79574  0.18380  Biso   1.000  N
  N39      1.0000 0.66227  0.29574  0.31620  Biso   1.000  N
  N40      1.0000 0.33773  0.29574  0.18380  Biso   1.000  N
  C1       1.0000 0.88760  0.40170  0.57870  Biso   1.000  C
  C2       1.0000 0.11240  0.40170  0.92130  Biso   1.000  C
  C3       1.0000 0.38760  0.90170  0.57870  Biso   1.000  C
  C4       1.0000 0.61240  0.90170  0.92130  Biso   1.000  C
  C5       1.0000 0.11240  0.59830  0.42130  Biso   1.000  C
  C6       1.0000 0.88760  0.59830  0.07870  Biso   1.000  C
  C7       1.0000 0.61240  0.09830  0.42130  Biso   1.000  C
  C8       1.0000 0.38760  0.09830  0.07870  Biso   1.000  C
  H9       1.0000 0.83120  0.40060  0.55200  Biso   1.000  H
  H10      1.0000 0.16880  0.40060  0.94800  Biso   1.000  H
  H11      1.0000 0.33120  0.90060  0.55200  Biso   1.000  H
  H12      1.0000 0.66880  0.90060  0.94800  Biso   1.000  H
  H13      1.0000 0.16880  0.59940  0.44800  Biso   1.000  H
  H14      1.0000 0.83120  0.59940  0.05200  Biso   1.000  H
  H15      1.0000 0.66880  0.09940  0.44800  Biso   1.000  H
  H16      1.0000 0.33120  0.09940  0.05200  Biso   1.000  H
  C9       1.0000 0.92650  0.31700  0.60360  Biso   1.000  C
  C10      1.0000 0.07350  0.31700  0.89640  Biso   1.000  C
  C11      1.0000 0.42650  0.81700  0.60360  Biso   1.000  C
  C12      1.0000 0.57350  0.81700  0.89640  Biso   1.000  C
  C13      1.0000 0.07350  0.68300  0.39640  Biso   1.000  C
  C14      1.0000 0.92650  0.68300  0.10360  Biso   1.000  C
  C15      1.0000 0.57350  0.18300  0.39640  Biso   1.000  C
  C16      1.0000 0.42650  0.18300  0.10360  Biso   1.000  C
  C17      1.0000 0.01030  0.31950  0.63940  Biso   1.000  C
  C18      1.0000 0.98970  0.31950  0.86060  Biso   1.000  C
  C19      1.0000 0.51030  0.81950  0.63940  Biso   1.000  C
  C20      1.0000 0.48970  0.81950  0.86060  Biso   1.000  C
  C21      1.0000 0.98970  0.68050  0.36060  Biso   1.000  C
  C22      1.0000 0.01030  0.68050  0.13940  Biso   1.000  C
  C23      1.0000 0.48970  0.18050  0.36060  Biso   1.000  C
  C24      1.0000 0.51030  0.18050  0.13940  Biso   1.000  C
  H17      1.0000 0.03910  0.26310  0.65640  Biso   1.000  H
  H18      1.0000 0.96090  0.26310  0.84360  Biso   1.000  H
  H19      1.0000 0.53910  0.76310  0.65640  Biso   1.000  H
  H20      1.0000 0.46090  0.76310  0.84360  Biso   1.000  H
  H21      1.0000 0.96090  0.73690  0.34360  Biso   1.000  H
  H22      1.0000 0.03910  0.73690  0.15640  Biso   1.000  H
  H23      1.0000 0.46090  0.23690  0.34360  Biso   1.000  H
  H24      1.0000 0.53910  0.23690  0.15640  Biso   1.000  H
  C25      1.0000 0.05160  0.40490  0.65030  Biso   1.000  C
  C26      1.0000 0.94840  0.40490  0.84970  Biso   1.000  C
  C27      1.0000 0.55160  0.90490  0.65030  Biso   1.000  C
  C28      1.0000 0.44840  0.90490  0.84970  Biso   1.000  C
  C29      1.0000 0.94840  0.59510  0.34970  Biso   1.000  C
  C30      1.0000 0.05160  0.59510  0.15030  Biso   1.000  C
  C31      1.0000 0.44840  0.09510  0.34970  Biso   1.000  C
  C32      1.0000 0.55160  0.09510  0.15030  Biso   1.000  C
  H25      1.0000 0.10930  0.40730  0.67300  Biso   1.000  H
  H26      1.0000 0.89070  0.40730  0.82700  Biso   1.000  H
  H27      1.0000 0.60930  0.90730  0.67300  Biso   1.000  H
  H28      1.0000 0.39070  0.90730  0.82700  Biso   1.000  H
  H29      1.0000 0.89070  0.59270  0.32700  Biso   1.000  H
  H30      1.0000 0.10930  0.59270  0.17300  Biso   1.000  H
  H31      1.0000 0.39070  0.09270  0.32700  Biso   1.000  H
  H32      1.0000 0.60930  0.09270  0.17300  Biso   1.000  H
  C33      1.0000 0.00780  0.48660  0.62770  Biso   1.000  C
  C34      1.0000 0.99220  0.48660  0.87230  Biso   1.000  C
  C35      1.0000 0.50780  0.98660  0.62770  Biso   1.000  C
  C36      1.0000 0.49220  0.98660  0.87230  Biso   1.000  C
  C37      1.0000 0.99220  0.51340  0.37230  Biso   1.000  C
  C38      1.0000 0.00780  0.51340  0.12770  Biso   1.000  C
  C39      1.0000 0.49220  0.01340  0.37230  Biso   1.000  C
  C40      1.0000 0.50780  0.01340  0.12770  Biso   1.000  C
  C41      1.0000 0.04420  0.57990  0.63840  Biso   1.000  C
  C42      1.0000 0.95580  0.57990  0.86160  Biso   1.000  C
  C43      1.0000 0.54420  0.07990  0.63840  Biso   1.000  C
  C44      1.0000 0.45580  0.07990  0.86160  Biso   1.000  C
  C45      1.0000 0.95580  0.42010  0.36160  Biso   1.000  C
  C46      1.0000 0.04420  0.42010  0.13840  Biso   1.000  C
  C47      1.0000 0.45580  0.92010  0.36160  Biso   1.000  C
  C48      1.0000 0.54420  0.92010  0.13840  Biso   1.000  C
  H33      1.0000 0.09990  0.59020  0.66490  Biso   1.000  H
  H34      1.0000 0.90010  0.59020  0.83510  Biso   1.000  H
  H35      1.0000 0.59990  0.09020  0.66490  Biso   1.000  H
  H36      1.0000 0.40010  0.09020  0.83510  Biso   1.000  H
  H37      1.0000 0.90010  0.40980  0.33510  Biso   1.000  H
  H38      1.0000 0.09990  0.40980  0.16490  Biso   1.000  H
  H39      1.0000 0.40010  0.90980  0.33510  Biso   1.000  H
  H40      1.0000 0.59990  0.90980  0.16490  Biso   1.000  H
  C49      1.0000 0.95460  0.78840  0.57340  Biso   1.000  C
  C50      1.0000 0.04540  0.78840  0.92660  Biso   1.000  C
  C51      1.0000 0.45460  0.28840  0.57340  Biso   1.000  C
  C52      1.0000 0.54540  0.28840  0.92660  Biso   1.000  C
  C53      1.0000 0.04540  0.21160  0.42660  Biso   1.000  C
  C54      1.0000 0.95460  0.21160  0.07340  Biso   1.000  C
  C55      1.0000 0.54540  0.71160  0.42660  Biso   1.000  C
  C56      1.0000 0.45460  0.71160  0.07340  Biso   1.000  C
  C57      1.0000 0.87820  0.22580  0.59570  Biso   1.000  C
  C58      1.0000 0.12180  0.22580  0.90430  Biso   1.000  C
  C59      1.0000 0.37820  0.72580  0.59570  Biso   1.000  C
  C60      1.0000 0.62180  0.72580  0.90430  Biso   1.000  C
  C61      1.0000 0.12180  0.77420  0.40430  Biso   1.000  C
  C62      1.0000 0.87820  0.77420  0.09570  Biso   1.000  C
  C63      1.0000 0.62180  0.27420  0.40430  Biso   1.000  C
  C64      1.0000 0.37820  0.27420  0.09570  Biso   1.000  C
  H41      1.0000 0.83410  0.23010  0.54390  Biso   1.000  H
  H42      1.0000 0.16590  0.23010  0.95610  Biso   1.000  H
  H43      1.0000 0.33410  0.73010  0.54390  Biso   1.000  H
  H44      1.0000 0.66590  0.73010  0.95610  Biso   1.000  H
  H45      1.0000 0.16590  0.76990  0.45610  Biso   1.000  H
  H46      1.0000 0.83410  0.76990  0.04390  Biso   1.000  H
  H47      1.0000 0.66590  0.26990  0.45610  Biso   1.000  H
  H48      1.0000 0.33410  0.26990  0.04390  Biso   1.000  H
  H49      1.0000 0.91760  0.17470  0.58090  Biso   1.000  H
  H50      1.0000 0.08240  0.17470  0.91910  Biso   1.000  H
  H51      1.0000 0.41760  0.67470  0.58090  Biso   1.000  H
  H52      1.0000 0.58240  0.67470  0.91910  Biso   1.000  H
  H53      1.0000 0.08240  0.82530  0.41910  Biso   1.000  H
  H54      1.0000 0.91760  0.82530  0.08090  Biso   1.000  H
  H55      1.0000 0.58240  0.32530  0.41910  Biso   1.000  H
  H56      1.0000 0.41760  0.32530  0.08090  Biso   1.000  H
  C65      1.0000 0.76150  0.26110  0.69360  Biso   1.000  C
  C66      1.0000 0.23850  0.26110  0.80640  Biso   1.000  C
  C67      1.0000 0.26150  0.76110  0.69360  Biso   1.000  C
  C68      1.0000 0.73850  0.76110  0.80640  Biso   1.000  C
  C69      1.0000 0.23850  0.73890  0.30640  Biso   1.000  C
  C70      1.0000 0.76150  0.73890  0.19360  Biso   1.000  C
  C71      1.0000 0.73850  0.23890  0.30640  Biso   1.000  C
  C72      1.0000 0.26150  0.23890  0.19360  Biso   1.000  C
  H57      1.0000 0.72090  0.24930  0.63950  Biso   1.000  H
  H58      1.0000 0.27910  0.24930  0.86050  Biso   1.000  H
  H59      1.0000 0.22090  0.74930  0.63950  Biso   1.000  H
  H60      1.0000 0.77910  0.74930  0.86050  Biso   1.000  H
  H61      1.0000 0.27910  0.75070  0.36050  Biso   1.000  H
  H62      1.0000 0.72090  0.75070  0.13950  Biso   1.000  H
  H63      1.0000 0.77910  0.25070  0.36050  Biso   1.000  H
  H64      1.0000 0.22090  0.25070  0.13950  Biso   1.000  H
  H65      1.0000 0.77710  0.32820  0.69300  Biso   1.000  H
  H66      1.0000 0.22290  0.32820  0.80700  Biso   1.000  H
  H67      1.0000 0.27710  0.82820  0.69300  Biso   1.000  H
  H68      1.0000 0.72290  0.82820  0.80700  Biso   1.000  H
  H69      1.0000 0.22290  0.67180  0.30700  Biso   1.000  H
  H70      1.0000 0.77710  0.67180  0.19300  Biso   1.000  H
  H71      1.0000 0.72290  0.17180  0.30700  Biso   1.000  H
  H72      1.0000 0.27710  0.17180  0.19300  Biso   1.000  H
  C73      1.0000 0.71940  0.23900  0.78330  Biso   1.000  C
  C74      1.0000 0.28060  0.23900  0.71670  Biso   1.000  C
  C75      1.0000 0.21940  0.73900  0.78330  Biso   1.000  C
  C76      1.0000 0.78060  0.73900  0.71670  Biso   1.000  C
  C77      1.0000 0.28060  0.76100  0.21670  Biso   1.000  C
  C78      1.0000 0.71940  0.76100  0.28330  Biso   1.000  C
  C79      1.0000 0.78060  0.26100  0.21670  Biso   1.000  C
  C80      1.0000 0.21940  0.26100  0.28330  Biso   1.000  C
  H73      1.0000 0.75850  0.25510  0.83740  Biso   1.000  H
  H74      1.0000 0.24150  0.25510  0.66260  Biso   1.000  H
  H75      1.0000 0.25850  0.75510  0.83740  Biso   1.000  H
  H76      1.0000 0.74150  0.75510  0.66260  Biso   1.000  H
  H77      1.0000 0.24150  0.74490  0.16260  Biso   1.000  H
  H78      1.0000 0.75850  0.74490  0.33740  Biso   1.000  H
  H79      1.0000 0.74150  0.24490  0.16260  Biso   1.000  H
  H80      1.0000 0.25850  0.24490  0.33740  Biso   1.000  H
  H81      1.0000 0.66750  0.27750  0.78710  Biso   1.000  H
  H82      1.0000 0.33250  0.27750  0.71290  Biso   1.000  H
  H83      1.0000 0.16750  0.77750  0.78710  Biso   1.000  H
  H84      1.0000 0.83250  0.77750  0.71290  Biso   1.000  H
  H85      1.0000 0.33250  0.72250  0.21290  Biso   1.000  H
  H86      1.0000 0.66750  0.72250  0.28710  Biso   1.000  H
  H87      1.0000 0.83250  0.22250  0.21290  Biso   1.000  H
  H88      1.0000 0.16750  0.22250  0.28710  Biso   1.000  H
  C81      1.0000 0.77240  0.08610  0.77900  Biso   1.000  C
  C82      1.0000 0.22760  0.08610  0.72100  Biso   1.000  C
  C83      1.0000 0.27240  0.58610  0.77900  Biso   1.000  C
  C84      1.0000 0.72760  0.58610  0.72100  Biso   1.000  C
  C85      1.0000 0.22760  0.91390  0.22100  Biso   1.000  C
  C86      1.0000 0.77240  0.91390  0.27900  Biso   1.000  C
  C87      1.0000 0.72760  0.41390  0.22100  Biso   1.000  C
  C88      1.0000 0.27240  0.41390  0.27900  Biso   1.000  C
  H89      1.0000 0.75740  0.01890  0.78220  Biso   1.000  H
  H90      1.0000 0.24260  0.01890  0.71780  Biso   1.000  H
  H91      1.0000 0.25740  0.51890  0.78220  Biso   1.000  H
  H92      1.0000 0.74260  0.51890  0.71780  Biso   1.000  H
  H93      1.0000 0.24260  0.98110  0.21780  Biso   1.000  H
  H94      1.0000 0.75740  0.98110  0.28220  Biso   1.000  H
  H95      1.0000 0.74260  0.48110  0.21780  Biso   1.000  H
  H96      1.0000 0.25740  0.48110  0.28220  Biso   1.000  H
  H97      1.0000 0.81370  0.10000  0.83190  Biso   1.000  H
  H98      1.0000 0.18630  0.10000  0.66810  Biso   1.000  H
  H99      1.0000 0.31370  0.60000  0.83190  Biso   1.000  H
  H100     1.0000 0.68630  0.60000  0.66810  Biso   1.000  H
  H101     1.0000 0.18630  0.90000  0.16810  Biso   1.000  H
  H102     1.0000 0.81370  0.90000  0.33190  Biso   1.000  H
  H103     1.0000 0.68630  0.40000  0.16810  Biso   1.000  H
  H104     1.0000 0.31370  0.40000  0.33190  Biso   1.000  H
  C89      1.0000 0.81300  0.10570  0.68710  Biso   1.000  C
  C90      1.0000 0.18700  0.10570  0.81290  Biso   1.000  C
  C91      1.0000 0.31300  0.60570  0.68710  Biso   1.000  C
  C92      1.0000 0.68700  0.60570  0.81290  Biso   1.000  C
  C93      1.0000 0.18700  0.89430  0.31290  Biso   1.000  C
  C94      1.0000 0.81300  0.89430  0.18710  Biso   1.000  C
  C95      1.0000 0.68700  0.39430  0.31290  Biso   1.000  C
  C96      1.0000 0.31300  0.39430  0.18710  Biso   1.000  C
  H105     1.0000 0.86370  0.06550  0.68170  Biso   1.000  H
  H106     1.0000 0.13630  0.06550  0.81830  Biso   1.000  H
  H107     1.0000 0.36370  0.56550  0.68170  Biso   1.000  H
  H108     1.0000 0.63630  0.56550  0.81830  Biso   1.000  H
  H109     1.0000 0.13630  0.93450  0.31830  Biso   1.000  H
  H110     1.0000 0.86370  0.93450  0.18170  Biso   1.000  H
  H111     1.0000 0.63630  0.43450  0.31830  Biso   1.000  H
  H112     1.0000 0.36370  0.43450  0.18170  Biso   1.000  H
  H113     1.0000 0.77230  0.09120  0.63390  Biso   1.000  H
  H114     1.0000 0.22770  0.09120  0.86610  Biso   1.000  H
  H115     1.0000 0.27230  0.59120  0.63390  Biso   1.000  H
  H116     1.0000 0.72770  0.59120  0.86610  Biso   1.000  H
  H117     1.0000 0.22770  0.90880  0.36610  Biso   1.000  H
  H118     1.0000 0.77230  0.90880  0.13390  Biso   1.000  H
  H119     1.0000 0.72770  0.40880  0.36610  Biso   1.000  H
  H120     1.0000 0.27230  0.40880  0.13390  Biso   1.000  H
  C97      1.0000 0.06920  0.92840  0.62990  Biso   1.000  C
  C98      1.0000 0.93080  0.92840  0.87010  Biso   1.000  C
  C99      1.0000 0.56920  0.42840  0.62990  Biso   1.000  C
  C100     1.0000 0.43080  0.42840  0.87010  Biso   1.000  C
  C101     1.0000 0.93080  0.07160  0.37010  Biso   1.000  C
  C102     1.0000 0.06920  0.07160  0.12990  Biso   1.000  C
  C103     1.0000 0.43080  0.57160  0.37010  Biso   1.000  C
  C104     1.0000 0.56920  0.57160  0.12990  Biso   1.000  C
  H121     1.0000 0.11310  0.90110  0.59220  Biso   1.000  H
  H122     1.0000 0.88690  0.90110  0.90780  Biso   1.000  H
  H123     1.0000 0.61310  0.40110  0.59220  Biso   1.000  H
  H124     1.0000 0.38690  0.40110  0.90780  Biso   1.000  H
  H125     1.0000 0.88690  0.09890  0.40780  Biso   1.000  H
  H126     1.0000 0.11310  0.09890  0.09220  Biso   1.000  H
  H127     1.0000 0.38690  0.59890  0.40780  Biso   1.000  H
  H128     1.0000 0.61310  0.59890  0.09220  Biso   1.000  H
  H129     1.0000 0.07060  0.89820  0.69160  Biso   1.000  H
  H130     1.0000 0.92940  0.89820  0.80840  Biso   1.000  H
  H131     1.0000 0.57060  0.39820  0.69160  Biso   1.000  H
  H132     1.0000 0.42940  0.39820  0.80840  Biso   1.000  H
  H133     1.0000 0.92940  0.10180  0.30840  Biso   1.000  H
  H134     1.0000 0.07060  0.10180  0.19160  Biso   1.000  H
  H135     1.0000 0.42940  0.60180  0.30840  Biso   1.000  H
  H136     1.0000 0.57060  0.60180  0.19160  Biso   1.000  H
  H137     1.0000 0.07970  0.99560  0.63770  Biso   1.000  H
  H138     1.0000 0.92030  0.99560  0.86230  Biso   1.000  H
  H139     1.0000 0.57970  0.49560  0.63770  Biso   1.000  H
  H140     1.0000 0.42030  0.49560  0.86230  Biso   1.000  H
  H141     1.0000 0.92030  0.00440  0.36230  Biso   1.000  H
  H142     1.0000 0.07970  0.00440  0.13770  Biso   1.000  H
  H143     1.0000 0.42030  0.50440  0.36230  Biso   1.000  H
  H144     1.0000 0.57970  0.50440  0.13770  Biso   1.000  H
