data_image0
_cell_length_a       11.018
_cell_length_b       11.018
_cell_length_c       21.837
_cell_angle_alpha    90
_cell_angle_beta     90
_cell_angle_gamma    120

_symmetry_space_group_name_H-M    "P 1"
_symmetry_int_tables_number       1

loop_
  _symmetry_equiv_pos_as_xyz
  'x, y, z'

loop_
  _atom_site_label
  _atom_site_occupancy
  _atom_site_fract_x
  _atom_site_fract_y
  _atom_site_fract_z
  _atom_site_thermal_displace_type
  _atom_site_B_iso_or_equiv
  _atom_site_type_symbol
  Cu1      1.0000 0.37334  0.85938  0.60422  Biso   1.000  Cu
  Cu2      1.0000 0.14062  0.51396  0.27089  Biso   1.000  Cu
  Cu3      1.0000 0.48604  0.62666  0.93755  Biso   1.000  Cu
  Cu4      1.0000 0.85938  0.37334  0.39578  Biso   1.000  Cu
  Cu5      1.0000 0.51396  0.14062  0.72911  Biso   1.000  Cu
  Cu6      1.0000 0.62666  0.48604  0.06245  Biso   1.000  Cu
  S1       1.0000 0.24210  0.48570  0.55467  Biso   1.000  S
  S2       1.0000 0.51430  0.75640  0.22134  Biso   1.000  S
  S3       1.0000 0.24360  0.75790  0.88800  Biso   1.000  S
  S4       1.0000 0.48570  0.24210  0.44533  Biso   1.000  S
  S5       1.0000 0.75640  0.51430  0.77866  Biso   1.000  S
  S6       1.0000 0.75790  0.24360  0.11200  Biso   1.000  S
  O1       1.0000 0.40760  0.92850  0.51902  Biso   1.000  O
  O2       1.0000 0.07150  0.47910  0.18569  Biso   1.000  O
  O3       1.0000 0.52090  0.59240  0.85235  Biso   1.000  O
  O4       1.0000 0.92850  0.40760  0.48098  Biso   1.000  O
  O5       1.0000 0.47910  0.07150  0.81431  Biso   1.000  O
  O6       1.0000 0.59240  0.52090  0.14765  Biso   1.000  O
  O7       1.0000 0.37810  0.87130  0.42007  Biso   1.000  O
  O8       1.0000 0.12870  0.50680  0.08674  Biso   1.000  O
  O9       1.0000 0.49320  0.62190  0.75340  Biso   1.000  O
  O10      1.0000 0.87130  0.37810  0.57993  Biso   1.000  O
  O11      1.0000 0.50680  0.12870  0.91326  Biso   1.000  O
  O12      1.0000 0.62190  0.49320  0.24660  Biso   1.000  O
  O13      1.0000 0.40210  0.62680  0.35620  Biso   1.000  O
  O14      1.0000 0.37320  0.77530  0.02287  Biso   1.000  O
  O15      1.0000 0.22470  0.59790  0.68953  Biso   1.000  O
  O16      1.0000 0.62680  0.40210  0.64380  Biso   1.000  O
  O17      1.0000 0.77530  0.37320  0.97713  Biso   1.000  O
  O18      1.0000 0.59790  0.22470  0.31047  Biso   1.000  O
  O19      1.0000 0.16660  0.52310  0.36006  Biso   1.000  O
  O20      1.0000 0.47690  0.64350  0.02673  Biso   1.000  O
  O21      1.0000 0.35650  0.83340  0.69339  Biso   1.000  O
  O22      1.0000 0.52310  0.16660  0.63994  Biso   1.000  O
  O23      1.0000 0.64350  0.47690  0.97327  Biso   1.000  O
  O24      1.0000 0.83340  0.35650  0.30661  Biso   1.000  O
  N1       1.0000 0.29320  0.65090  0.55030  Biso   1.000  N
  N2       1.0000 0.34910  0.64230  0.21697  Biso   1.000  N
  N3       1.0000 0.35770  0.70680  0.88363  Biso   1.000  N
  N4       1.0000 0.65090  0.29320  0.44970  Biso   1.000  N
  N5       1.0000 0.64230  0.34910  0.78303  Biso   1.000  N
  N6       1.0000 0.70680  0.35770  0.11637  Biso   1.000  N
  N7       1.0000 0.24560  0.45560  0.48180  Biso   1.000  N
  N8       1.0000 0.54440  0.79000  0.14847  Biso   1.000  N
  N9       1.0000 0.21000  0.75440  0.81513  Biso   1.000  N
  N10      1.0000 0.45560  0.24560  0.51820  Biso   1.000  N
  N11      1.0000 0.79000  0.54440  0.85153  Biso   1.000  N
  N12      1.0000 0.75440  0.21000  0.18487  Biso   1.000  N
  N13      1.0000 0.56030  0.87250  0.60630  Biso   1.000  N
  N14      1.0000 0.12750  0.68780  0.27297  Biso   1.000  N
  N15      1.0000 0.31220  0.43970  0.93963  Biso   1.000  N
  N16      1.0000 0.87250  0.56030  0.39370  Biso   1.000  N
  N17      1.0000 0.68780  0.12750  0.72703  Biso   1.000  N
  N18      1.0000 0.43970  0.31220  0.06037  Biso   1.000  N
  N19      1.0000 0.19020  0.85410  0.60050  Biso   1.000  N
  N20      1.0000 0.14590  0.33610  0.26717  Biso   1.000  N
  N21      1.0000 0.66390  0.80980  0.93383  Biso   1.000  N
  N22      1.0000 0.85410  0.19020  0.39950  Biso   1.000  N
  N23      1.0000 0.33610  0.14590  0.73283  Biso   1.000  N
  N24      1.0000 0.80980  0.66390  0.06617  Biso   1.000  N
  C1       1.0000 0.37100  0.84260  0.47520  Biso   1.000  C
  C2       1.0000 0.15740  0.52840  0.14187  Biso   1.000  C
  C3       1.0000 0.47160  0.62900  0.80853  Biso   1.000  C
  C4       1.0000 0.84260  0.37100  0.52480  Biso   1.000  C
  C5       1.0000 0.52840  0.15740  0.85813  Biso   1.000  C
  C6       1.0000 0.62900  0.47160  0.19147  Biso   1.000  C
  C7       1.0000 0.31660  0.69050  0.49180  Biso   1.000  C
  C8       1.0000 0.30950  0.62610  0.15847  Biso   1.000  C
  C9       1.0000 0.37390  0.68340  0.82513  Biso   1.000  C
  C10      1.0000 0.69050  0.31660  0.50820  Biso   1.000  C
  C11      1.0000 0.62610  0.30950  0.84153  Biso   1.000  C
  C12      1.0000 0.68340  0.37390  0.17487  Biso   1.000  C
  C13      1.0000 0.28580  0.57610  0.45260  Biso   1.000  C
  C14      1.0000 0.42390  0.70970  0.11927  Biso   1.000  C
  C15      1.0000 0.29030  0.71420  0.78593  Biso   1.000  C
  C16      1.0000 0.57610  0.28580  0.54740  Biso   1.000  C
  C17      1.0000 0.70970  0.42390  0.88073  Biso   1.000  C
  C18      1.0000 0.71420  0.29030  0.21407  Biso   1.000  C
  C19      1.0000 0.29060  0.57770  0.38300  Biso   1.000  C
  C20      1.0000 0.42230  0.71290  0.04967  Biso   1.000  C
  C21      1.0000 0.28710  0.70940  0.71633  Biso   1.000  C
  C22      1.0000 0.57770  0.29060  0.61700  Biso   1.000  C
  C23      1.0000 0.71290  0.42230  0.95033  Biso   1.000  C
  C24      1.0000 0.70940  0.28710  0.28367  Biso   1.000  C
  C25      1.0000 0.56990  0.76730  0.63160  Biso   1.000  C
  C26      1.0000 0.23270  0.80260  0.29827  Biso   1.000  C
  C27      1.0000 0.19740  0.43010  0.96493  Biso   1.000  C
  C28      1.0000 0.76730  0.56990  0.36840  Biso   1.000  C
  C29      1.0000 0.80260  0.23270  0.70173  Biso   1.000  C
  C30      1.0000 0.43010  0.19740  0.03507  Biso   1.000  C
  H1       1.0000 0.48990  0.69550  0.65200  Biso   1.000  H
  H2       1.0000 0.30450  0.79440  0.31867  Biso   1.000  H
  H3       1.0000 0.20560  0.51010  0.98533  Biso   1.000  H
  H4       1.0000 0.69550  0.48990  0.34800  Biso   1.000  H
  H5       1.0000 0.79440  0.30450  0.68133  Biso   1.000  H
  H6       1.0000 0.51010  0.20560  0.01467  Biso   1.000  H
  C31      1.0000 0.68910  0.75760  0.62970  Biso   1.000  C
  C32      1.0000 0.24240  0.93150  0.29637  Biso   1.000  C
  C33      1.0000 0.06850  0.31090  0.96303  Biso   1.000  C
  C34      1.0000 0.75760  0.68910  0.37030  Biso   1.000  C
  C35      1.0000 0.93150  0.24240  0.70363  Biso   1.000  C
  C36      1.0000 0.31090  0.06850  0.03697  Biso   1.000  C
  H7       1.0000 0.69150  0.68120  0.64860  Biso   1.000  H
  H8       1.0000 0.31880  0.01030  0.31527  Biso   1.000  H
  H9       1.0000 0.98970  0.30850  0.98193  Biso   1.000  H
  H10      1.0000 0.68120  0.69150  0.35140  Biso   1.000  H
  H11      1.0000 0.01030  0.31880  0.68473  Biso   1.000  H
  H12      1.0000 0.30850  0.98970  0.01807  Biso   1.000  H
  C37      1.0000 0.80580  0.86090  0.59970  Biso   1.000  C
  C38      1.0000 0.13910  0.94490  0.26637  Biso   1.000  C
  C39      1.0000 0.05510  0.19420  0.93303  Biso   1.000  C
  C40      1.0000 0.86090  0.80580  0.40030  Biso   1.000  C
  C41      1.0000 0.94490  0.13910  0.73363  Biso   1.000  C
  C42      1.0000 0.19420  0.05510  0.06697  Biso   1.000  C
  C43      1.0000 0.79670  0.97170  0.57370  Biso   1.000  C
  C44      1.0000 0.02830  0.82500  0.24037  Biso   1.000  C
  C45      1.0000 0.17500  0.20330  0.90703  Biso   1.000  C
  C46      1.0000 0.97170  0.79670  0.42630  Biso   1.000  C
  C47      1.0000 0.82500  0.02830  0.75963  Biso   1.000  C
  C48      1.0000 0.20330  0.17500  0.09297  Biso   1.000  C
  H13      1.0000 0.87500  0.04540  0.55330  Biso   1.000  H
  H14      1.0000 0.95460  0.82960  0.21997  Biso   1.000  H
  H15      1.0000 0.17040  0.12500  0.88663  Biso   1.000  H
  H16      1.0000 0.04540  0.87500  0.44670  Biso   1.000  H
  H17      1.0000 0.82960  0.95460  0.78003  Biso   1.000  H
  H18      1.0000 0.12500  0.17040  0.11337  Biso   1.000  H
  C49      1.0000 0.67220  0.97270  0.57790  Biso   1.000  C
  C50      1.0000 0.02730  0.69950  0.24457  Biso   1.000  C
  C51      1.0000 0.30050  0.32780  0.91123  Biso   1.000  C
  C52      1.0000 0.97270  0.67220  0.42210  Biso   1.000  C
  C53      1.0000 0.69950  0.02730  0.75543  Biso   1.000  C
  C54      1.0000 0.32780  0.30050  0.08877  Biso   1.000  C
  H19      1.0000 0.66640  0.04810  0.55980  Biso   1.000  H
  H20      1.0000 0.95190  0.61830  0.22647  Biso   1.000  H
  H21      1.0000 0.38170  0.33360  0.89313  Biso   1.000  H
  H22      1.0000 0.04810  0.66640  0.44020  Biso   1.000  H
  H23      1.0000 0.61830  0.95190  0.77353  Biso   1.000  H
  H24      1.0000 0.33360  0.38170  0.10687  Biso   1.000  H
  C55      1.0000 0.93890  0.85580  0.59740  Biso   1.000  C
  C56      1.0000 0.14420  0.08310  0.26407  Biso   1.000  C
  C57      1.0000 0.91690  0.06110  0.93073  Biso   1.000  C
  C58      1.0000 0.85580  0.93890  0.40260  Biso   1.000  C
  C59      1.0000 0.08310  0.14420  0.73593  Biso   1.000  C
  C60      1.0000 0.06110  0.91690  0.06927  Biso   1.000  C
  C61      1.0000 0.94000  0.73290  0.60730  Biso   1.000  C
  C62      1.0000 0.26710  0.20710  0.27397  Biso   1.000  C
  C63      1.0000 0.79290  0.06000  0.94063  Biso   1.000  C
  C64      1.0000 0.73290  0.94000  0.39270  Biso   1.000  C
  C65      1.0000 0.20710  0.26710  0.72603  Biso   1.000  C
  C66      1.0000 0.06000  0.79290  0.05937  Biso   1.000  C
  H25      1.0000 0.85460  0.64730  0.61290  Biso   1.000  H
  H26      1.0000 0.35270  0.20730  0.27957  Biso   1.000  H
  H27      1.0000 0.79270  0.14540  0.94623  Biso   1.000  H
  H28      1.0000 0.64730  0.85460  0.38710  Biso   1.000  H
  H29      1.0000 0.20730  0.35270  0.72043  Biso   1.000  H
  H30      1.0000 0.14540  0.79270  0.05377  Biso   1.000  H
  C67      1.0000 0.06740  0.73530  0.60890  Biso   1.000  C
  C68      1.0000 0.26470  0.33210  0.27557  Biso   1.000  C
  C69      1.0000 0.66790  0.93260  0.94223  Biso   1.000  C
  C70      1.0000 0.73530  0.06740  0.39110  Biso   1.000  C
  C71      1.0000 0.33210  0.26470  0.72443  Biso   1.000  C
  C72      1.0000 0.93260  0.66790  0.05777  Biso   1.000  C
  H31      1.0000 0.06760  0.65040  0.61610  Biso   1.000  H
  H32      1.0000 0.34960  0.41720  0.28277  Biso   1.000  H
  H33      1.0000 0.58280  0.93240  0.94943  Biso   1.000  H
  H34      1.0000 0.65040  0.06760  0.38390  Biso   1.000  H
  H35      1.0000 0.41720  0.34960  0.71723  Biso   1.000  H
  H36      1.0000 0.93240  0.58280  0.05057  Biso   1.000  H
  C73      1.0000 0.18990  0.97280  0.58920  Biso   1.000  C
  C74      1.0000 0.02720  0.21710  0.25587  Biso   1.000  C
  C75      1.0000 0.78290  0.81010  0.92253  Biso   1.000  C
  C76      1.0000 0.97280  0.18990  0.41080  Biso   1.000  C
  C77      1.0000 0.21710  0.02720  0.74413  Biso   1.000  C
  C78      1.0000 0.81010  0.78290  0.07747  Biso   1.000  C
  H37      1.0000 0.27660  0.05590  0.58180  Biso   1.000  H
  H38      1.0000 0.94410  0.22070  0.24847  Biso   1.000  H
  H39      1.0000 0.77930  0.72340  0.91513  Biso   1.000  H
  H40      1.0000 0.05590  0.27660  0.41820  Biso   1.000  H
  H41      1.0000 0.22070  0.94410  0.75153  Biso   1.000  H
  H42      1.0000 0.72340  0.77930  0.08487  Biso   1.000  H
  C79      1.0000 0.06670  0.97910  0.58780  Biso   1.000  C
  C80      1.0000 0.02090  0.08760  0.25447  Biso   1.000  C
  C81      1.0000 0.91240  0.93330  0.92113  Biso   1.000  C
  C82      1.0000 0.97910  0.06670  0.41220  Biso   1.000  C
  C83      1.0000 0.08760  0.02090  0.74553  Biso   1.000  C
  C84      1.0000 0.93330  0.91240  0.07887  Biso   1.000  C
  H43      1.0000 0.06940  0.06540  0.58050  Biso   1.000  H
  H44      1.0000 0.93460  0.00400  0.24717  Biso   1.000  H
  H45      1.0000 0.99600  0.93060  0.91383  Biso   1.000  H
  H46      1.0000 0.06540  0.06940  0.41950  Biso   1.000  H
  H47      1.0000 0.00400  0.93460  0.75283  Biso   1.000  H
  H48      1.0000 0.93060  0.99600  0.08617  Biso   1.000  H
