data_image0
_cell_length_a       8.6581
_cell_length_b       14.2343
_cell_length_c       39.083
_cell_angle_alpha    97.681
_cell_angle_beta     95.21
_cell_angle_gamma    104.377

_symmetry_space_group_name_H-M    "P 1"
_symmetry_int_tables_number       1

loop_
  _symmetry_equiv_pos_as_xyz
  'x, y, z'

loop_
  _atom_site_label
  _atom_site_occupancy
  _atom_site_fract_x
  _atom_site_fract_y
  _atom_site_fract_z
  _atom_site_thermal_displace_type
  _atom_site_B_iso_or_equiv
  _atom_site_type_symbol
  Cu1      1.0000 0.23742  0.64697  0.63304  Biso   1.000  Cu
  Cu2      1.0000 0.76258  0.35303  0.36696  Biso   1.000  Cu
  Cu3      1.0000 0.18627  0.12108  0.12801  Biso   1.000  Cu
  Cu4      1.0000 0.81373  0.87892  0.87199  Biso   1.000  Cu
  Fe1      1.0000 0.30020  0.86027  0.37624  Biso   1.000  Fe
  Fe2      1.0000 0.69980  0.13973  0.62376  Biso   1.000  Fe
  Fe3      1.0000 0.33177  0.37111  0.87870  Biso   1.000  Fe
  Fe4      1.0000 0.66823  0.62889  0.12130  Biso   1.000  Fe
  N1       1.0000 0.28400  0.98700  0.40091  Biso   1.000  N
  N2       1.0000 0.71600  0.01300  0.59909  Biso   1.000  N
  N3       1.0000 0.32410  0.83570  0.42240  Biso   1.000  N
  N4       1.0000 0.67590  0.16430  0.57760  Biso   1.000  N
  N5       1.0000 0.31380  0.72310  0.36661  Biso   1.000  N
  N6       1.0000 0.68620  0.27690  0.63339  Biso   1.000  N
  N7       1.0000 0.52700  0.91910  0.37022  Biso   1.000  N
  N8       1.0000 0.47300  0.08090  0.62978  Biso   1.000  N
  N9       1.0000 0.26970  0.88570  0.33033  Biso   1.000  N
  N10      1.0000 0.73030  0.11430  0.66967  Biso   1.000  N
  N11      1.0000 0.06340  0.81050  0.36720  Biso   1.000  N
  N12      1.0000 0.93660  0.18950  0.63280  Biso   1.000  N
  N13      1.0000 0.28250  0.70410  0.58920  Biso   1.000  N
  N14      1.0000 0.71750  0.29590  0.41080  Biso   1.000  N
  N15      1.0000 0.17570  0.05370  0.17026  Biso   1.000  N
  N16      1.0000 0.82430  0.94630  0.82974  Biso   1.000  N
  N17      1.0000 0.53350  0.76740  0.66195  Biso   1.000  N
  N18      1.0000 0.46650  0.23260  0.33805  Biso   1.000  N
  N19      1.0000 0.13090  0.47340  0.59108  Biso   1.000  N
  N20      1.0000 0.86910  0.52660  0.40892  Biso   1.000  N
  N21      1.0000 0.31740  0.49590  0.90512  Biso   1.000  N
  N22      1.0000 0.68260  0.50410  0.09488  Biso   1.000  N
  N23      1.0000 0.34690  0.33860  0.92379  Biso   1.000  N
  N24      1.0000 0.65310  0.66140  0.07621  Biso   1.000  N
  N25      1.0000 0.34340  0.23410  0.86677  Biso   1.000  N
  N26      1.0000 0.65660  0.76590  0.13323  Biso   1.000  N
  N27      1.0000 0.56050  0.43080  0.87542  Biso   1.000  N
  N28      1.0000 0.43950  0.56920  0.12458  Biso   1.000  N
  N29      1.0000 0.31030  0.40240  0.83362  Biso   1.000  N
  N30      1.0000 0.68970  0.59760  0.16638  Biso   1.000  N
  N31      1.0000 0.09540  0.32480  0.86788  Biso   1.000  N
  N32      1.0000 0.90460  0.67520  0.13212  Biso   1.000  N
  N33      1.0000 0.24590  0.17930  0.08510  Biso   1.000  N
  N34      1.0000 0.75410  0.82070  0.91490  Biso   1.000  N
  N35      1.0000 0.23510  0.57590  0.67427  Biso   1.000  N
  N36      1.0000 0.76490  0.42410  0.32573  Biso   1.000  N
  N37      1.0000 0.09790  0.94610  0.08519  Biso   1.000  N
  N38      1.0000 0.90210  0.05390  0.91481  Biso   1.000  N
  N39      1.0000 0.47610  0.24520  0.15890  Biso   1.000  N
  N40      1.0000 0.52390  0.75480  0.84110  Biso   1.000  N
  C1       1.0000 0.26180  0.06460  0.38662  Biso   1.000  C
  C2       1.0000 0.73820  0.93540  0.61338  Biso   1.000  C
  C3       1.0000 0.24270  0.14860  0.40611  Biso   1.000  C
  C4       1.0000 0.75730  0.85140  0.59389  Biso   1.000  C
  C5       1.0000 0.24720  0.15390  0.44192  Biso   1.000  C
  C6       1.0000 0.75280  0.84610  0.55808  Biso   1.000  C
  C7       1.0000 0.27460  0.07660  0.45730  Biso   1.000  C
  C8       1.0000 0.72540  0.92340  0.54270  Biso   1.000  C
  C9       1.0000 0.29220  0.99390  0.43634  Biso   1.000  C
  C10      1.0000 0.70780  0.00610  0.56366  Biso   1.000  C
  C11      1.0000 0.31330  0.90450  0.44887  Biso   1.000  C
  C12      1.0000 0.68670  0.09550  0.55113  Biso   1.000  C
  C13      1.0000 0.31350  0.88490  0.48275  Biso   1.000  C
  C14      1.0000 0.68650  0.11510  0.51725  Biso   1.000  C
  C15      1.0000 0.32470  0.79240  0.48920  Biso   1.000  C
  C16      1.0000 0.67530  0.20760  0.51080  Biso   1.000  C
  C17      1.0000 0.33590  0.72280  0.46160  Biso   1.000  C
  C18      1.0000 0.66410  0.27720  0.53840  Biso   1.000  C
  C19      1.0000 0.33500  0.74660  0.42827  Biso   1.000  C
  C20      1.0000 0.66500  0.25340  0.57173  Biso   1.000  C
  C21      1.0000 0.33230  0.68060  0.39582  Biso   1.000  C
  C22      1.0000 0.66770  0.31940  0.60418  Biso   1.000  C
  C23      1.0000 0.33840  0.58440  0.39364  Biso   1.000  C
  C24      1.0000 0.66160  0.41560  0.60636  Biso   1.000  C
  C25      1.0000 0.31890  0.52630  0.36123  Biso   1.000  C
  C26      1.0000 0.68110  0.47370  0.63877  Biso   1.000  C
  C27      1.0000 0.29580  0.56770  0.33172  Biso   1.000  C
  C28      1.0000 0.70420  0.43230  0.66828  Biso   1.000  C
  C29      1.0000 0.29510  0.66630  0.33520  Biso   1.000  C
  C30      1.0000 0.70490  0.33370  0.66480  Biso   1.000  C
  C31      1.0000 0.65800  0.93610  0.39406  Biso   1.000  C
  C32      1.0000 0.34200  0.06390  0.60594  Biso   1.000  C
  C33      1.0000 0.81010  0.98340  0.38766  Biso   1.000  C
  C34      1.0000 0.18990  0.01660  0.61234  Biso   1.000  C
  C35      1.0000 0.83060  0.01470  0.35578  Biso   1.000  C
  C36      1.0000 0.16940  0.98530  0.64422  Biso   1.000  C
  C37      1.0000 0.69820  0.99790  0.33107  Biso   1.000  C
  C38      1.0000 0.30180  0.00210  0.66893  Biso   1.000  C
  C39      1.0000 0.54880  0.95020  0.33901  Biso   1.000  C
  C40      1.0000 0.45120  0.04980  0.66099  Biso   1.000  C
  C41      1.0000 0.39720  0.92970  0.31537  Biso   1.000  C
  C42      1.0000 0.60280  0.07030  0.68463  Biso   1.000  C
  C43      1.0000 0.37670  0.95610  0.28261  Biso   1.000  C
  C44      1.0000 0.62330  0.04390  0.71739  Biso   1.000  C
  C45      1.0000 0.22040  0.93840  0.26560  Biso   1.000  C
  C46      1.0000 0.77960  0.06160  0.73440  Biso   1.000  C
  C47      1.0000 0.08930  0.89170  0.28104  Biso   1.000  C
  C48      1.0000 0.91070  0.10830  0.71896  Biso   1.000  C
  C49      1.0000 0.11860  0.86500  0.31343  Biso   1.000  C
  C50      1.0000 0.88140  0.13500  0.68657  Biso   1.000  C
  C51      1.0000 0.99960  0.81620  0.33430  Biso   1.000  C
  C52      1.0000 0.00040  0.18380  0.66570  Biso   1.000  C
  C53      1.0000 0.83730  0.77760  0.32263  Biso   1.000  C
  C54      1.0000 0.16270  0.22240  0.67737  Biso   1.000  C
  C55      1.0000 0.73610  0.73340  0.34474  Biso   1.000  C
  C56      1.0000 0.26390  0.26660  0.65526  Biso   1.000  C
  C57      1.0000 0.80020  0.72990  0.37822  Biso   1.000  C
  C58      1.0000 0.19980  0.27010  0.62178  Biso   1.000  C
  C59      1.0000 0.96320  0.76940  0.38853  Biso   1.000  C
  C60      1.0000 0.03680  0.23060  0.61147  Biso   1.000  C
  C61      1.0000 0.21090  0.77160  0.57967  Biso   1.000  C
  C62      1.0000 0.78910  0.22840  0.42033  Biso   1.000  C
  C63      1.0000 0.22370  0.80450  0.54749  Biso   1.000  C
  C64      1.0000 0.77630  0.19550  0.45251  Biso   1.000  C
  C65      1.0000 0.31410  0.76530  0.52461  Biso   1.000  C
  C66      1.0000 0.68590  0.23470  0.47539  Biso   1.000  C
  C67      1.0000 0.39150  0.69640  0.53495  Biso   1.000  C
  C68      1.0000 0.60850  0.30360  0.46505  Biso   1.000  C
  C69      1.0000 0.37400  0.66910  0.56757  Biso   1.000  C
  C70      1.0000 0.62600  0.33090  0.43243  Biso   1.000  C
  C71      1.0000 0.07230  0.06040  0.19367  Biso   1.000  C
  C72      1.0000 0.92770  0.93960  0.80633  Biso   1.000  C
  C73      1.0000 0.07860  0.02150  0.22441  Biso   1.000  C
  C74      1.0000 0.92140  0.97850  0.77559  Biso   1.000  C
  C75      1.0000 0.19880  0.97390  0.23194  Biso   1.000  C
  C76      1.0000 0.80120  0.02610  0.76806  Biso   1.000  C
  C77      1.0000 0.30240  0.96480  0.20715  Biso   1.000  C
  C78      1.0000 0.69760  0.03520  0.79285  Biso   1.000  C
  C79      1.0000 0.28780  0.00430  0.17702  Biso   1.000  C
  C80      1.0000 0.71220  0.99570  0.82298  Biso   1.000  C
  C81      1.0000 0.30170  0.57720  0.89205  Biso   1.000  C
  C82      1.0000 0.69830  0.42280  0.10795  Biso   1.000  C
  C83      1.0000 0.28280  0.65920  0.91256  Biso   1.000  C
  C84      1.0000 0.71720  0.34080  0.08744  Biso   1.000  C
  C85      1.0000 0.28020  0.65940  0.94820  Biso   1.000  C
  C86      1.0000 0.71980  0.34060  0.05180  Biso   1.000  C
  C87      1.0000 0.30010  0.57750  0.96222  Biso   1.000  C
  C88      1.0000 0.69990  0.42250  0.03778  Biso   1.000  C
  C89      1.0000 0.31760  0.49680  0.94008  Biso   1.000  C
  C90      1.0000 0.68240  0.50320  0.05992  Biso   1.000  C
  C91      1.0000 0.33240  0.40370  0.95093  Biso   1.000  C
  C92      1.0000 0.66760  0.59630  0.04907  Biso   1.000  C
  C93      1.0000 0.32370  0.37820  0.98401  Biso   1.000  C
  C94      1.0000 0.67630  0.62180  0.01599  Biso   1.000  C
  C95      1.0000 0.32860  0.28330  0.98863  Biso   1.000  C
  C96      1.0000 0.67140  0.71670  0.01137  Biso   1.000  C
  C97      1.0000 0.34680  0.21750  0.96052  Biso   1.000  C
  C98      1.0000 0.65320  0.78250  0.03948  Biso   1.000  C
  C99      1.0000 0.35520  0.24770  0.92787  Biso   1.000  C
  C100     1.0000 0.64480  0.75230  0.07213  Biso   1.000  C
  C101     1.0000 0.35730  0.18650  0.89468  Biso   1.000  C
  C102     1.0000 0.64270  0.81350  0.10532  Biso   1.000  C
  C103     1.0000 0.36160  0.08880  0.89085  Biso   1.000  C
  C104     1.0000 0.63840  0.91120  0.10915  Biso   1.000  C
  C105     1.0000 0.34850  0.03740  0.85767  Biso   1.000  C
  C106     1.0000 0.65150  0.96260  0.14233  Biso   1.000  C
  C107     1.0000 0.33040  0.08440  0.82926  Biso   1.000  C
  C108     1.0000 0.66960  0.91560  0.17074  Biso   1.000  C
  C109     1.0000 0.32940  0.18160  0.83464  Biso   1.000  C
  C110     1.0000 0.67060  0.81840  0.16536  Biso   1.000  C
  C111     1.0000 0.68720  0.44630  0.90019  Biso   1.000  C
  C112     1.0000 0.31280  0.55370  0.09981  Biso   1.000  C
  C113     1.0000 0.84090  0.49720  0.89602  Biso   1.000  C
  C114     1.0000 0.15910  0.50280  0.10398  Biso   1.000  C
  C115     1.0000 0.86740  0.53510  0.86563  Biso   1.000  C
  C116     1.0000 0.13260  0.46490  0.13437  Biso   1.000  C
  C117     1.0000 0.73880  0.52030  0.83990  Biso   1.000  C
  C118     1.0000 0.26120  0.47970  0.16010  Biso   1.000  C
  C119     1.0000 0.58840  0.46770  0.84507  Biso   1.000  C
  C120     1.0000 0.41160  0.53230  0.15493  Biso   1.000  C
  C121     1.0000 0.44110  0.44820  0.82020  Biso   1.000  C
  C122     1.0000 0.55890  0.55180  0.17980  Biso   1.000  C
  C123     1.0000 0.42820  0.47690  0.78771  Biso   1.000  C
  C124     1.0000 0.57180  0.52310  0.21229  Biso   1.000  C
  C125     1.0000 0.27570  0.45700  0.76878  Biso   1.000  C
  C126     1.0000 0.72430  0.54300  0.23122  Biso   1.000  C
  C127     1.0000 0.14040  0.40940  0.78300  Biso   1.000  C
  C128     1.0000 0.85960  0.59060  0.21700  Biso   1.000  C
  C129     1.0000 0.16190  0.38160  0.81549  Biso   1.000  C
  C130     1.0000 0.83810  0.61840  0.18451  Biso   1.000  C
  C131     1.0000 0.03700  0.33380  0.83515  Biso   1.000  C
  C132     1.0000 0.96300  0.66620  0.16485  Biso   1.000  C
  C133     1.0000 0.87430  0.30170  0.82261  Biso   1.000  C
  C134     1.0000 0.12570  0.69830  0.17739  Biso   1.000  C
  C135     1.0000 0.76800  0.25860  0.84411  Biso   1.000  C
  C136     1.0000 0.23200  0.74140  0.15589  Biso   1.000  C
  C137     1.0000 0.82660  0.24990  0.87756  Biso   1.000  C
  C138     1.0000 0.17340  0.75010  0.12244  Biso   1.000  C
  C139     1.0000 0.98980  0.28400  0.88837  Biso   1.000  C
  C140     1.0000 0.01020  0.71600  0.11163  Biso   1.000  C
  C141     1.0000 0.18150  0.24950  0.07520  Biso   1.000  C
  C142     1.0000 0.81850  0.75050  0.92480  Biso   1.000  C
  C143     1.0000 0.20770  0.28690  0.04472  Biso   1.000  C
  C144     1.0000 0.79230  0.71310  0.95528  Biso   1.000  C
  C145     1.0000 0.30430  0.24900  0.02250  Biso   1.000  C
  C146     1.0000 0.69570  0.75100  0.97750  Biso   1.000  C
  C147     1.0000 0.37270  0.17760  0.03308  Biso   1.000  C
  C148     1.0000 0.62730  0.82240  0.96692  Biso   1.000  C
  C149     1.0000 0.34160  0.14510  0.06448  Biso   1.000  C
  C150     1.0000 0.65840  0.85490  0.93552  Biso   1.000  C
  C151     1.0000 0.12420  0.57510  0.69648  Biso   1.000  C
  C152     1.0000 0.87580  0.42490  0.30352  Biso   1.000  C
  C153     1.0000 0.13060  0.53420  0.72639  Biso   1.000  C
  C154     1.0000 0.86940  0.46580  0.27361  Biso   1.000  C
  C155     1.0000 0.25780  0.49420  0.73518  Biso   1.000  C
  C156     1.0000 0.74220  0.50580  0.26482  Biso   1.000  C
  C157     1.0000 0.37420  0.49810  0.71303  Biso   1.000  C
  C158     1.0000 0.62580  0.50190  0.28697  Biso   1.000  C
  C159     1.0000 0.35780  0.53890  0.68307  Biso   1.000  C
  C160     1.0000 0.64220  0.46110  0.31693  Biso   1.000  C
  O1       1.0000 0.38500  0.76580  0.66278  Biso   1.000  O
  O2       1.0000 0.61500  0.23420  0.33722  Biso   1.000  O
  O3       1.0000 0.56760  0.69850  0.64394  Biso   1.000  O
  O4       1.0000 0.43240  0.30150  0.35606  Biso   1.000  O
  O5       1.0000 0.63690  0.83780  0.67961  Biso   1.000  O
  O6       1.0000 0.36310  0.16220  0.32039  Biso   1.000  O
  O7       1.0000 0.07430  0.53560  0.60473  Biso   1.000  O
  O8       1.0000 0.92570  0.46440  0.39527  Biso   1.000  O
  O9       1.0000 0.28180  0.48080  0.59782  Biso   1.000  O
  O10      1.0000 0.71820  0.51920  0.40218  Biso   1.000  O
  O11      1.0000 0.05020  0.40260  0.56923  Biso   1.000  O
  O12      1.0000 0.94980  0.59740  0.43077  Biso   1.000  O
  O13      1.0000 0.02710  0.70930  0.64198  Biso   1.000  O
  O14      1.0000 0.97290  0.29070  0.35802  Biso   1.000  O
  O15      1.0000 0.32640  0.24420  0.15792  Biso   1.000  O
  O16      1.0000 0.67360  0.75580  0.84208  Biso   1.000  O
  O17      1.0000 0.51200  0.17370  0.14331  Biso   1.000  O
  O18      1.0000 0.48800  0.82630  0.85669  Biso   1.000  O
  O19      1.0000 0.57770  0.31800  0.17545  Biso   1.000  O
  O20      1.0000 0.42230  0.68200  0.82455  Biso   1.000  O
  O21      1.0000 0.03570  0.00420  0.09829  Biso   1.000  O
  O22      1.0000 0.96430  0.99580  0.90171  Biso   1.000  O
  O23      1.0000 0.24390  0.95650  0.09403  Biso   1.000  O
  O24      1.0000 0.75610  0.04350  0.90597  Biso   1.000  O
  O25      1.0000 0.02480  0.87460  0.06180  Biso   1.000  O
  O26      1.0000 0.97520  0.12540  0.93820  Biso   1.000  O
  O27      1.0000 0.96950  0.17420  0.13262  Biso   1.000  O
  O28      1.0000 0.03050  0.82580  0.86738  Biso   1.000  O
  O29      1.0000 0.78560  0.39430  0.74959  Biso   1.000  O
  O30      1.0000 0.21440  0.60570  0.25041  Biso   1.000  O
  O31      1.0000 0.09040  0.68720  0.82031  Biso   1.000  O
  O32      1.0000 0.90960  0.31280  0.17969  Biso   1.000  O
  O33      1.0000 0.96940  0.83410  0.69503  Biso   1.000  O
  O34      1.0000 0.03060  0.16590  0.30497  Biso   1.000  O
  O35      1.0000 0.71680  0.30830  0.95970  Biso   1.000  O
  O36      1.0000 0.28320  0.69170  0.04030  Biso   1.000  O
  O37      1.0000 0.73200  0.23360  0.96890  Biso   1.000  O
  O38      1.0000 0.26800  0.76640  0.03110  Biso   1.000  O
  O39      1.0000 0.61390  0.10230  0.96720  Biso   1.000  O
  O40      1.0000 0.38610  0.89770  0.03280  Biso   1.000  O
  N41      1.0000 0.80390  0.63110  0.57802  Biso   1.000  N
  N42      1.0000 0.19610  0.36890  0.42198  Biso   1.000  N
  N43      1.0000 0.29230  0.89030  0.76130  Biso   1.000  N
  N44      1.0000 0.70770  0.10970  0.23870  Biso   1.000  N
  N45      1.0000 0.44180  0.22090  0.75153  Biso   1.000  N
  N46      1.0000 0.55820  0.77910  0.24847  Biso   1.000  N
  N47      1.0000 0.82490  0.65690  0.74401  Biso   1.000  N
  N48      1.0000 0.17510  0.34310  0.25599  Biso   1.000  N
  N49      1.0000 0.98400  0.50040  0.99580  Biso   1.000  N
  N50      1.0000 0.01600  0.49960  0.00420  Biso   1.000  N
  C161     1.0000 0.90880  0.55480  0.52250  Biso   1.000  C
  C162     1.0000 0.09120  0.44520  0.47750  Biso   1.000  C
  C163     1.0000 0.82470  0.59440  0.55170  Biso   1.000  C
  C164     1.0000 0.17530  0.40560  0.44830  Biso   1.000  C
  C165     1.0000 0.48390  0.77350  0.75225  Biso   1.000  C
  C166     1.0000 0.51610  0.22650  0.24775  Biso   1.000  C
  C167     1.0000 0.37180  0.83710  0.75746  Biso   1.000  C
  C168     1.0000 0.62820  0.16290  0.24254  Biso   1.000  C
  O41      1.0000 0.47680  0.27440  0.72851  Biso   1.000  O
  O42      1.0000 0.52320  0.72560  0.27149  Biso   1.000  O
  O43      1.0000 0.54690  0.21920  0.77402  Biso   1.000  O
  O44      1.0000 0.45310  0.78080  0.22598  Biso   1.000  O
  O45      1.0000 0.30340  0.16700  0.75055  Biso   1.000  O
  O46      1.0000 0.69660  0.83300  0.24945  Biso   1.000  O
  O47      1.0000 0.94620  0.72620  0.75354  Biso   1.000  O
  O48      1.0000 0.05380  0.27380  0.24646  Biso   1.000  O
  O49      1.0000 0.78530  0.59210  0.76178  Biso   1.000  O
  O50      1.0000 0.21470  0.40790  0.23822  Biso   1.000  O
  O51      1.0000 0.74380  0.65180  0.71614  Biso   1.000  O
  O52      1.0000 0.25620  0.34820  0.28386  Biso   1.000  O
  O53      1.0000 0.06740  0.47050  0.01920  Biso   1.000  O
  O54      1.0000 0.93260  0.52950  0.98080  Biso   1.000  O
  O55      1.0000 0.99210  0.59280  0.00420  Biso   1.000  O
  O56      1.0000 0.00790  0.40720  0.99580  Biso   1.000  O
  O57      1.0000 0.89700  0.43670  0.97040  Biso   1.000  O
  O58      1.0000 0.10300  0.56330  0.02960  Biso   1.000  O
  N51      1.0000 0.15600  0.13700  0.53150  Biso   1.000  N
  N52      1.0000 0.84400  0.86300  0.46850  Biso   1.000  N
  O59      1.0000 0.29820  0.19780  0.54235  Biso   1.000  O
  O60      1.0000 0.70180  0.80220  0.45765  Biso   1.000  O
  O61      1.0000 0.06700  0.19200  0.51938  Biso   1.000  O
  O62      1.0000 0.93300  0.80800  0.48062  Biso   1.000  O
  O63      1.0000 0.11470  0.04010  0.53200  Biso   1.000  O
  O64      1.0000 0.88530  0.95990  0.46800  Biso   1.000  O
  N53      1.0000 0.21520  0.24410  0.52590  Biso   1.000  N
  N54      1.0000 0.78480  0.75590  0.47410  Biso   1.000  N
  O65      1.0000 0.28400  0.31620  0.51100  Biso   1.000  O
  O66      1.0000 0.71600  0.68380  0.48900  Biso   1.000  O
  O67      1.0000 0.38130  0.39310  0.53230  Biso   1.000  O
  O68      1.0000 0.61870  0.60690  0.46770  Biso   1.000  O
  N55      1.0000 0.27560  0.91740  0.95100  Biso   1.000  N
  N56      1.0000 0.72440  0.08260  0.04900  Biso   1.000  N
  O69      1.0000 0.28910  0.89140  0.91950  Biso   1.000  O
  O70      1.0000 0.71090  0.10860  0.08050  Biso   1.000  O
  O71      1.0000 0.16030  0.86620  0.96360  Biso   1.000  O
  O72      1.0000 0.83970  0.13380  0.03640  Biso   1.000  O
  O73      1.0000 0.39040  0.98840  0.96720  Biso   1.000  O
  O74      1.0000 0.60960  0.01160  0.03280  Biso   1.000  O
  N57      1.0000 0.23990  0.88710  0.93520  Biso   1.000  N
  N58      1.0000 0.76010  0.11290  0.06480  Biso   1.000  N
  C169     1.0000 0.10060  0.95780  0.98730  Biso   1.000  C
  C170     1.0000 0.89940  0.04220  0.01270  Biso   1.000  C
  C171     1.0000 0.18550  0.92140  0.95850  Biso   1.000  C
  C172     1.0000 0.81450  0.07860  0.04150  Biso   1.000  C
  O75      1.0000 0.56900  0.50190  0.52810  Biso   1.000  O
  O76      1.0000 0.43100  0.49810  0.47190  Biso   1.000  O
  H1       1.0000 0.25910  0.06140  0.36190  Biso   1.000  H
  H2       1.0000 0.74090  0.93860  0.63810  Biso   1.000  H
  H3       1.0000 0.22670  0.20240  0.39510  Biso   1.000  H
  H4       1.0000 0.77330  0.79760  0.60490  Biso   1.000  H
  H5       1.0000 0.23140  0.21070  0.45590  Biso   1.000  H
  H6       1.0000 0.76860  0.78930  0.54410  Biso   1.000  H
  H7       1.0000 0.28150  0.08000  0.48210  Biso   1.000  H
  H8       1.0000 0.71850  0.92000  0.51790  Biso   1.000  H
  H9       1.0000 0.30590  0.93400  0.50140  Biso   1.000  H
  H10      1.0000 0.69410  0.06600  0.49860  Biso   1.000  H
  H11      1.0000 0.34420  0.65900  0.46550  Biso   1.000  H
  H12      1.0000 0.65580  0.34100  0.53450  Biso   1.000  H
  H13      1.0000 0.35610  0.55740  0.41440  Biso   1.000  H
  H14      1.0000 0.64390  0.44260  0.58560  Biso   1.000  H
  H15      1.0000 0.32140  0.45880  0.35930  Biso   1.000  H
  H16      1.0000 0.67860  0.54120  0.64070  Biso   1.000  H
  H17      1.0000 0.28040  0.52880  0.30900  Biso   1.000  H
  H18      1.0000 0.71960  0.47120  0.69100  Biso   1.000  H
  H19      1.0000 0.28090  0.69470  0.31460  Biso   1.000  H
  H20      1.0000 0.71910  0.30530  0.68540  Biso   1.000  H
  H21      1.0000 0.64510  0.91470  0.41620  Biso   1.000  H
  H22      1.0000 0.35490  0.08530  0.58380  Biso   1.000  H
  H23      1.0000 0.90090  0.99460  0.40510  Biso   1.000  H
  H24      1.0000 0.09910  0.00540  0.59490  Biso   1.000  H
  H25      1.0000 0.93550  0.04760  0.35100  Biso   1.000  H
  H26      1.0000 0.06450  0.95240  0.64900  Biso   1.000  H
  H27      1.0000 0.70920  0.01880  0.30880  Biso   1.000  H
  H28      1.0000 0.29080  0.98120  0.69120  Biso   1.000  H
  H29      1.0000 0.46790  0.98600  0.27190  Biso   1.000  H
  H30      1.0000 0.53210  0.01400  0.72810  Biso   1.000  H
  H31      1.0000 0.98160  0.87840  0.26950  Biso   1.000  H
  H32      1.0000 0.01840  0.12160  0.73050  Biso   1.000  H
  H33      1.0000 0.79520  0.78160  0.29940  Biso   1.000  H
  H34      1.0000 0.20480  0.21840  0.70060  Biso   1.000  H
  H35      1.0000 0.62350  0.70550  0.33700  Biso   1.000  H
  H36      1.0000 0.37650  0.29450  0.66300  Biso   1.000  H
  H37      1.0000 0.73210  0.70040  0.39410  Biso   1.000  H
  H38      1.0000 0.26790  0.29960  0.60590  Biso   1.000  H
  H39      1.0000 0.00630  0.76730  0.41180  Biso   1.000  H
  H40      1.0000 0.99370  0.23270  0.58820  Biso   1.000  H
  H41      1.0000 0.14840  0.79860  0.59550  Biso   1.000  H
  H42      1.0000 0.85160  0.20140  0.40450  Biso   1.000  H
  H43      1.0000 0.17120  0.85300  0.54140  Biso   1.000  H
  H44      1.0000 0.82880  0.14700  0.45860  Biso   1.000  H
  H45      1.0000 0.45560  0.66840  0.51980  Biso   1.000  H
  H46      1.0000 0.54440  0.33160  0.48020  Biso   1.000  H
  H47      1.0000 0.42980  0.62330  0.57490  Biso   1.000  H
  H48      1.0000 0.57020  0.37670  0.42510  Biso   1.000  H
  H49      1.0000 0.99070  0.09350  0.18890  Biso   1.000  H
  H50      1.0000 0.00930  0.90650  0.81110  Biso   1.000  H
  H51      1.0000 0.00180  0.02710  0.24030  Biso   1.000  H
  H52      1.0000 0.99820  0.97290  0.75970  Biso   1.000  H
  H53      1.0000 0.38390  0.93100  0.21100  Biso   1.000  H
  H54      1.0000 0.61610  0.06900  0.78900  Biso   1.000  H
  H55      1.0000 0.35970  0.99670  0.16020  Biso   1.000  H
  H56      1.0000 0.64030  0.00330  0.83980  Biso   1.000  H
  H57      1.0000 0.30390  0.57760  0.86760  Biso   1.000  H
  H58      1.0000 0.69610  0.42240  0.13240  Biso   1.000  H
  H59      1.0000 0.27160  0.71530  0.90240  Biso   1.000  H
  H60      1.0000 0.72840  0.28470  0.09760  Biso   1.000  H
  H61      1.0000 0.26500  0.71530  0.96290  Biso   1.000  H
  H62      1.0000 0.73500  0.28470  0.03710  Biso   1.000  H
  H63      1.0000 0.30170  0.57670  0.98680  Biso   1.000  H
  H64      1.0000 0.69830  0.42330  0.01320  Biso   1.000  H
  H65      1.0000 0.31460  0.42500  0.00330  Biso   1.000  H
  H66      1.0000 0.68540  0.57500  0.99670  Biso   1.000  H
  H67      1.0000 0.35330  0.15270  0.96340  Biso   1.000  H
  H68      1.0000 0.64670  0.84730  0.03660  Biso   1.000  H
  H69      1.0000 0.37350  0.05760  0.91090  Biso   1.000  H
  H70      1.0000 0.62650  0.94240  0.08910  Biso   1.000  H
  H71      1.0000 0.35190  0.96990  0.85430  Biso   1.000  H
  H72      1.0000 0.64810  0.03010  0.14570  Biso   1.000  H
  H73      1.0000 0.31870  0.04930  0.80600  Biso   1.000  H
  H74      1.0000 0.68130  0.95070  0.19400  Biso   1.000  H
  H75      1.0000 0.31820  0.21360  0.81480  Biso   1.000  H
  H76      1.0000 0.68180  0.78640  0.18520  Biso   1.000  H
  H77      1.0000 0.67010  0.42110  0.92150  Biso   1.000  H
  H78      1.0000 0.32990  0.57890  0.07850  Biso   1.000  H
  H79      1.0000 0.92860  0.50610  0.91410  Biso   1.000  H
  H80      1.0000 0.07140  0.49390  0.08590  Biso   1.000  H
  H81      1.0000 0.97320  0.57110  0.86240  Biso   1.000  H
  H82      1.0000 0.02680  0.42890  0.13760  Biso   1.000  H
  H83      1.0000 0.75430  0.54650  0.81870  Biso   1.000  H
  H84      1.0000 0.24570  0.45350  0.18130  Biso   1.000  H
  H85      1.0000 0.52220  0.50970  0.77840  Biso   1.000  H
  H86      1.0000 0.47780  0.49030  0.22160  Biso   1.000  H
  H87      1.0000 0.03460  0.39620  0.77050  Biso   1.000  H
  H88      1.0000 0.96540  0.60380  0.22950  Biso   1.000  H
  H89      1.0000 0.83620  0.30910  0.79950  Biso   1.000  H
  H90      1.0000 0.16380  0.69090  0.20050  Biso   1.000  H
  H91      1.0000 0.65500  0.23510  0.83600  Biso   1.000  H
  H92      1.0000 0.34500  0.76490  0.16400  Biso   1.000  H
  H93      1.0000 0.75480  0.22080  0.89290  Biso   1.000  H
  H94      1.0000 0.24520  0.77920  0.10710  Biso   1.000  H
  H95      1.0000 0.02960  0.27830  0.91150  Biso   1.000  H
  H96      1.0000 0.97040  0.72170  0.08850  Biso   1.000  H
  H97      1.0000 0.11400  0.27510  0.09000  Biso   1.000  H
  H98      1.0000 0.88600  0.72490  0.91000  Biso   1.000  H
  H99      1.0000 0.16060  0.33790  0.03880  Biso   1.000  H
  H100     1.0000 0.83940  0.66210  0.96120  Biso   1.000  H
  H101     1.0000 0.44120  0.15070  0.01890  Biso   1.000  H
  H102     1.0000 0.55880  0.84930  0.98110  Biso   1.000  H
  H103     1.0000 0.39080  0.09610  0.07160  Biso   1.000  H
  H104     1.0000 0.60920  0.90390  0.92840  Biso   1.000  H
  H105     1.0000 0.03780  0.60420  0.69120  Biso   1.000  H
  H106     1.0000 0.96220  0.39580  0.30880  Biso   1.000  H
  H107     1.0000 0.04790  0.53330  0.74120  Biso   1.000  H
  H108     1.0000 0.95210  0.46670  0.25880  Biso   1.000  H
  H109     1.0000 0.46510  0.47290  0.71830  Biso   1.000  H
  H110     1.0000 0.53490  0.52710  0.28170  Biso   1.000  H
  H111     1.0000 0.43900  0.54070  0.66780  Biso   1.000  H
  H112     1.0000 0.56100  0.45930  0.33220  Biso   1.000  H
  H113     1.0000 0.83140  0.52520  0.50230  Biso   1.000  H
  H114     1.0000 0.16860  0.47480  0.49770  Biso   1.000  H
  H115     1.0000 0.95830  0.50640  0.53000  Biso   1.000  H
  H116     1.0000 0.04170  0.49360  0.47000  Biso   1.000  H
  H117     1.0000 0.98960  0.60780  0.51670  Biso   1.000  H
  H118     1.0000 0.01040  0.39220  0.48330  Biso   1.000  H
  H119     1.0000 0.42960  0.70700  0.75380  Biso   1.000  H
  H120     1.0000 0.57040  0.29300  0.24620  Biso   1.000  H
  H121     1.0000 0.57540  0.79660  0.76990  Biso   1.000  H
  H122     1.0000 0.42460  0.20340  0.23010  Biso   1.000  H
  H123     1.0000 0.51890  0.77610  0.72970  Biso   1.000  H
  H124     1.0000 0.48110  0.22390  0.27030  Biso   1.000  H
  H125     1.0000 0.17180  0.01500  0.00170  Biso   1.000  H
  H126     1.0000 0.82820  0.98500  0.99830  Biso   1.000  H
  H127     1.0000 0.06890  0.90730  0.00120  Biso   1.000  H
  H128     1.0000 0.93110  0.09270  0.99880  Biso   1.000  H
  H129     1.0000 0.00710  0.97440  0.97750  Biso   1.000  H
  H130     1.0000 0.99290  0.02560  0.02250  Biso   1.000  H
