data_image0
_cell_length_a       8.313
_cell_length_b       8.642
_cell_length_c       17.727
_cell_angle_alpha    90
_cell_angle_beta     90
_cell_angle_gamma    90

_symmetry_space_group_name_H-M    "P 1"
_symmetry_int_tables_number       1

loop_
  _symmetry_equiv_pos_as_xyz
  'x, y, z'

loop_
  _atom_site_label
  _atom_site_occupancy
  _atom_site_fract_x
  _atom_site_fract_y
  _atom_site_fract_z
  _atom_site_thermal_displace_type
  _atom_site_B_iso_or_equiv
  _atom_site_type_symbol
  Cu1      1.0000 0.83160  0.25000  0.29400  Biso   1.000  Cu
  Cu2      1.0000 0.66840  0.75000  0.79400  Biso   1.000  Cu
  Cu3      1.0000 0.33160  0.25000  0.20600  Biso   1.000  Cu
  Cu4      1.0000 0.16840  0.75000  0.70600  Biso   1.000  Cu
  N1       1.0000 0.66490  0.25000  0.38290  Biso   1.000  N
  N2       1.0000 0.83510  0.75000  0.88290  Biso   1.000  N
  N3       1.0000 0.16490  0.25000  0.11710  Biso   1.000  N
  N4       1.0000 0.33510  0.75000  0.61710  Biso   1.000  N
  N5       1.0000 0.81450  0.00590  0.31260  Biso   1.000  N
  N6       1.0000 0.68550  0.99410  0.81260  Biso   1.000  N
  N7       1.0000 0.31450  0.49410  0.18740  Biso   1.000  N
  N8       1.0000 0.18550  0.50590  0.68740  Biso   1.000  N
  N9       1.0000 0.18550  0.99410  0.68740  Biso   1.000  N
  N10      1.0000 0.31450  0.00590  0.18740  Biso   1.000  N
  N11      1.0000 0.68550  0.50590  0.81260  Biso   1.000  N
  N12      1.0000 0.81450  0.49410  0.31260  Biso   1.000  N
  C1       1.0000 0.68240  0.10750  0.42370  Biso   1.000  C
  C2       1.0000 0.81760  0.89250  0.92370  Biso   1.000  C
  C3       1.0000 0.18240  0.39250  0.07630  Biso   1.000  C
  C4       1.0000 0.31760  0.60750  0.57630  Biso   1.000  C
  C5       1.0000 0.31760  0.89250  0.57630  Biso   1.000  C
  C6       1.0000 0.18240  0.10750  0.07630  Biso   1.000  C
  C7       1.0000 0.81760  0.60750  0.92370  Biso   1.000  C
  C8       1.0000 0.68240  0.39250  0.42370  Biso   1.000  C
  C9       1.0000 0.69480  0.97870  0.36910  Biso   1.000  C
  C10      1.0000 0.80520  0.02130  0.86910  Biso   1.000  C
  C11      1.0000 0.19480  0.52130  0.13090  Biso   1.000  C
  C12      1.0000 0.30520  0.47870  0.63090  Biso   1.000  C
  C13      1.0000 0.30520  0.02130  0.63090  Biso   1.000  C
  C14      1.0000 0.19480  0.97870  0.13090  Biso   1.000  C
  C15      1.0000 0.80520  0.47870  0.86910  Biso   1.000  C
  C16      1.0000 0.69480  0.52130  0.36910  Biso   1.000  C
  C17      1.0000 0.69430  0.25000  0.15460  Biso   1.000  C
  C18      1.0000 0.80570  0.75000  0.65460  Biso   1.000  C
  C19      1.0000 0.19430  0.25000  0.34540  Biso   1.000  C
  C20      1.0000 0.30570  0.75000  0.84540  Biso   1.000  C
  C21      1.0000 0.67620  0.25000  0.07210  Biso   1.000  C
  C22      1.0000 0.82380  0.75000  0.57210  Biso   1.000  C
  C23      1.0000 0.17620  0.25000  0.42790  Biso   1.000  C
  C24      1.0000 0.32380  0.75000  0.92790  Biso   1.000  C
  O1       1.0000 0.83390  0.25000  0.18080  Biso   1.000  O
  O2       1.0000 0.66610  0.75000  0.68080  Biso   1.000  O
  O3       1.0000 0.33390  0.25000  0.31920  Biso   1.000  O
  O4       1.0000 0.16610  0.75000  0.81920  Biso   1.000  O
  O5       1.0000 0.57900  0.25000  0.19820  Biso   1.000  O
  O6       1.0000 0.92100  0.75000  0.69820  Biso   1.000  O
  O7       1.0000 0.07900  0.25000  0.30180  Biso   1.000  O
  O8       1.0000 0.42100  0.75000  0.80180  Biso   1.000  O
  Cl1      1.0000 0.18050  0.75000  0.36650  Biso   1.000  Cl
  Cl2      1.0000 0.31950  0.25000  0.86650  Biso   1.000  Cl
  Cl3      1.0000 0.68050  0.75000  0.13350  Biso   1.000  Cl
  Cl4      1.0000 0.81950  0.25000  0.63350  Biso   1.000  Cl
  O9       1.0000 0.12260  0.75000  0.29280  Biso   1.000  O
  O10      1.0000 0.37740  0.25000  0.79280  Biso   1.000  O
  O11      1.0000 0.62260  0.75000  0.20720  Biso   1.000  O
  O12      1.0000 0.87740  0.25000  0.70720  Biso   1.000  O
  O13      1.0000 0.06350  0.75000  0.41820  Biso   1.000  O
  O14      1.0000 0.43650  0.25000  0.91820  Biso   1.000  O
  O15      1.0000 0.56350  0.75000  0.08180  Biso   1.000  O
  O16      1.0000 0.93650  0.25000  0.58180  Biso   1.000  O
  O17      1.0000 0.27800  0.86170  0.37940  Biso   1.000  O
  O18      1.0000 0.22200  0.13830  0.87940  Biso   1.000  O
  O19      1.0000 0.77800  0.63830  0.12060  Biso   1.000  O
  O20      1.0000 0.72200  0.36170  0.62060  Biso   1.000  O
  O21      1.0000 0.72200  0.13830  0.62060  Biso   1.000  O
  O22      1.0000 0.77800  0.86170  0.12060  Biso   1.000  O
  O23      1.0000 0.22200  0.36170  0.87940  Biso   1.000  O
  O24      1.0000 0.27800  0.63830  0.37940  Biso   1.000  O
  H1       1.0000 0.59400  0.09310  0.45780  Biso   1.000  H
  H2       1.0000 0.90600  0.90690  0.95780  Biso   1.000  H
  H3       1.0000 0.09400  0.40690  0.04220  Biso   1.000  H
  H4       1.0000 0.40600  0.59310  0.54220  Biso   1.000  H
  H5       1.0000 0.40600  0.90690  0.54220  Biso   1.000  H
  H6       1.0000 0.09400  0.09310  0.04220  Biso   1.000  H
  H7       1.0000 0.90600  0.59310  0.95780  Biso   1.000  H
  H8       1.0000 0.59400  0.40690  0.45780  Biso   1.000  H
  H9       1.0000 0.77990  0.11280  0.45260  Biso   1.000  H
  H10      1.0000 0.72010  0.88720  0.95260  Biso   1.000  H
  H11      1.0000 0.27990  0.38720  0.04740  Biso   1.000  H
  H12      1.0000 0.22010  0.61280  0.54740  Biso   1.000  H
  H13      1.0000 0.22010  0.88720  0.54740  Biso   1.000  H
  H14      1.0000 0.27990  0.11280  0.04740  Biso   1.000  H
  H15      1.0000 0.72010  0.61280  0.95260  Biso   1.000  H
  H16      1.0000 0.77990  0.38720  0.45260  Biso   1.000  H
  H17      1.0000 0.72420  0.88550  0.39520  Biso   1.000  H
  H18      1.0000 0.77580  0.11450  0.89520  Biso   1.000  H
  H19      1.0000 0.22420  0.61450  0.10480  Biso   1.000  H
  H20      1.0000 0.27580  0.38550  0.60480  Biso   1.000  H
  H21      1.0000 0.27580  0.11450  0.60480  Biso   1.000  H
  H22      1.0000 0.22420  0.88550  0.10480  Biso   1.000  H
  H23      1.0000 0.77580  0.38550  0.89520  Biso   1.000  H
  H24      1.0000 0.72420  0.61450  0.39520  Biso   1.000  H
  H25      1.0000 0.59120  0.96320  0.34640  Biso   1.000  H
  H26      1.0000 0.90880  0.03680  0.84640  Biso   1.000  H
  H27      1.0000 0.09120  0.53680  0.15360  Biso   1.000  H
  H28      1.0000 0.40880  0.46320  0.65360  Biso   1.000  H
  H29      1.0000 0.40880  0.03680  0.65360  Biso   1.000  H
  H30      1.0000 0.09120  0.96320  0.15360  Biso   1.000  H
  H31      1.0000 0.90880  0.46320  0.84640  Biso   1.000  H
  H32      1.0000 0.59120  0.53680  0.34640  Biso   1.000  H
  H33      1.0000 0.78060  0.25000  0.04900  Biso   1.000  H
  H34      1.0000 0.71940  0.75000  0.54900  Biso   1.000  H
  H35      1.0000 0.28060  0.25000  0.45100  Biso   1.000  H
  H36      1.0000 0.21940  0.75000  0.95100  Biso   1.000  H
  H37      1.0000 0.61810  0.15930  0.05670  Biso   1.000  H
  H38      1.0000 0.88190  0.84070  0.55670  Biso   1.000  H
  H39      1.0000 0.11810  0.34070  0.44330  Biso   1.000  H
  H40      1.0000 0.38190  0.65930  0.94330  Biso   1.000  H
  H41      1.0000 0.38190  0.84070  0.94330  Biso   1.000  H
  H42      1.0000 0.11810  0.15930  0.44330  Biso   1.000  H
  H43      1.0000 0.88190  0.65930  0.55670  Biso   1.000  H
  H44      1.0000 0.61810  0.34070  0.05670  Biso   1.000  H
