data_image0
_cell_length_a       9.9657
_cell_length_b       10.6695
_cell_length_c       13.7934
_cell_angle_alpha    72.822
_cell_angle_beta     75.231
_cell_angle_gamma    89.53

_symmetry_space_group_name_H-M    "P 1"
_symmetry_int_tables_number       1

loop_
  _symmetry_equiv_pos_as_xyz
  'x, y, z'

loop_
  _atom_site_label
  _atom_site_occupancy
  _atom_site_fract_x
  _atom_site_fract_y
  _atom_site_fract_z
  _atom_site_thermal_displace_type
  _atom_site_B_iso_or_equiv
  _atom_site_type_symbol
  Cu1      1.0000 0.00000  0.00000  0.00000  Biso   1.000  Cu
  Br1      1.0000 0.83495  0.14459  0.37388  Biso   1.000  Br
  Br2      1.0000 0.16505  0.85541  0.62612  Biso   1.000  Br
  O1       1.0000 0.02360  0.13460  0.06690  Biso   1.000  O
  O2       1.0000 0.97640  0.86540  0.93310  Biso   1.000  O
  O3       1.0000 0.80200  0.15490  0.14580  Biso   1.000  O
  O4       1.0000 0.19800  0.84510  0.85420  Biso   1.000  O
  N1       1.0000 0.07310  0.13590  0.85840  Biso   1.000  N
  N2       1.0000 0.92690  0.86410  0.14160  Biso   1.000  N
  C1       1.0000 0.02300  0.13830  0.77670  Biso   1.000  C
  C2       1.0000 0.97700  0.86170  0.22330  Biso   1.000  C
  H1       1.0000 0.95060  0.07690  0.78790  Biso   1.000  H
  H2       1.0000 0.04940  0.92310  0.21210  Biso   1.000  H
  C3       1.0000 0.07090  0.22520  0.67720  Biso   1.000  C
  C4       1.0000 0.92910  0.77480  0.32280  Biso   1.000  C
  C5       1.0000 0.17780  0.31700  0.66270  Biso   1.000  C
  C6       1.0000 0.82220  0.68300  0.33730  Biso   1.000  C
  H3       1.0000 0.21490  0.37770  0.59700  Biso   1.000  H
  H4       1.0000 0.78510  0.62230  0.40300  Biso   1.000  H
  C7       1.0000 0.22850  0.31730  0.74670  Biso   1.000  C
  C8       1.0000 0.77150  0.68270  0.25330  Biso   1.000  C
  H5       1.0000 0.29890  0.37940  0.73830  Biso   1.000  H
  H6       1.0000 0.70110  0.62060  0.26170  Biso   1.000  H
  C9       1.0000 0.17470  0.22560  0.84270  Biso   1.000  C
  C10      1.0000 0.82530  0.77440  0.15730  Biso   1.000  C
  H7       1.0000 0.21040  0.22620  0.89870  Biso   1.000  H
  H8       1.0000 0.78960  0.77380  0.10130  Biso   1.000  H
  C11      1.0000 0.01330  0.21850  0.58930  Biso   1.000  C
  C12      1.0000 0.98670  0.78150  0.41070  Biso   1.000  C
  H9       1.0000 0.96190  0.29410  0.56970  Biso   1.000  H
  H10      1.0000 0.03810  0.70590  0.43030  Biso   1.000  H
  H11      1.0000 0.95270  0.14000  0.61150  Biso   1.000  H
  H12      1.0000 0.04730  0.86000  0.38850  Biso   1.000  H
  H13      1.0000 0.08820  0.21690  0.53010  Biso   1.000  H
  H14      1.0000 0.91180  0.78310  0.46990  Biso   1.000  H
  C13      1.0000 0.92850  0.18140  0.12320  Biso   1.000  C
  C14      1.0000 0.07150  0.81860  0.87680  Biso   1.000  C
  C15      1.0000 0.98100  0.28560  0.16300  Biso   1.000  C
  C16      1.0000 0.01900  0.71440  0.83700  Biso   1.000  C
  C17      1.0000 0.94240  0.28640  0.26600  Biso   1.000  C
  C18      1.0000 0.05760  0.71360  0.73400  Biso   1.000  C
  C19      1.0000 0.99420  0.38680  0.29630  Biso   1.000  C
  C20      1.0000 0.00580  0.61320  0.70370  Biso   1.000  C
  H15      1.0000 0.96980  0.38430  0.36660  Biso   1.000  H
  H16      1.0000 0.03020  0.61570  0.63340  Biso   1.000  H
  C21      1.0000 0.08120  0.48880  0.22180  Biso   1.000  C
  C22      1.0000 0.91880  0.51120  0.77820  Biso   1.000  C
  H17      1.0000 0.11320  0.55700  0.24120  Biso   1.000  H
  H18      1.0000 0.88680  0.44300  0.75880  Biso   1.000  H
  C23      1.0000 0.12000  0.48960  0.12030  Biso   1.000  C
  C24      1.0000 0.88000  0.51040  0.87970  Biso   1.000  C
  H19      1.0000 0.17930  0.55840  0.07000  Biso   1.000  H
  H20      1.0000 0.82070  0.44160  0.93000  Biso   1.000  H
  C25      1.0000 0.07250  0.38950  0.09070  Biso   1.000  C
  C26      1.0000 0.92750  0.61050  0.90930  Biso   1.000  C
  H21      1.0000 0.10220  0.39090  0.02070  Biso   1.000  H
  H22      1.0000 0.89780  0.60910  0.97930  Biso   1.000  H
  Cu2      1.0000 0.50000  0.00000  0.00000  Biso   1.000  Cu
  Br3      1.0000 0.67803  0.39852  0.61614  Biso   1.000  Br
  Br4      1.0000 0.32197  0.60148  0.38386  Biso   1.000  Br
  O5       1.0000 0.48090  0.18820  0.93340  Biso   1.000  O
  O6       1.0000 0.51910  0.81180  0.06660  Biso   1.000  O
  O7       1.0000 0.70290  0.25010  0.84390  Biso   1.000  O
  O8       1.0000 0.29710  0.74990  0.15610  Biso   1.000  O
  N3       1.0000 0.43130  0.02850  0.14060  Biso   1.000  N
  N4       1.0000 0.56870  0.97150  0.85940  Biso   1.000  N
  C27      1.0000 0.49330  0.96870  0.21830  Biso   1.000  C
  C28      1.0000 0.50670  0.03130  0.78170  Biso   1.000  C
  H23      1.0000 0.56880  0.91970  0.20270  Biso   1.000  H
  H24      1.0000 0.43120  0.08030  0.79730  Biso   1.000  H
  C29      1.0000 0.44850  0.97810  0.31870  Biso   1.000  C
  C30      1.0000 0.55150  0.02190  0.68130  Biso   1.000  C
  C31      1.0000 0.33800  0.05220  0.33980  Biso   1.000  C
  C32      1.0000 0.66200  0.94780  0.66020  Biso   1.000  C
  H25      1.0000 0.30520  0.06100  0.40670  Biso   1.000  H
  H26      1.0000 0.69480  0.93900  0.59330  Biso   1.000  H
  C33      1.0000 0.27580  0.11360  0.26130  Biso   1.000  C
  C34      1.0000 0.72420  0.88640  0.73870  Biso   1.000  C
  H27      1.0000 0.20050  0.16370  0.27520  Biso   1.000  H
  H28      1.0000 0.79950  0.83630  0.72480  Biso   1.000  H
  C35      1.0000 0.32530  0.10040  0.16330  Biso   1.000  C
  C36      1.0000 0.67470  0.89960  0.83670  Biso   1.000  C
  H29      1.0000 0.28340  0.14320  0.11070  Biso   1.000  H
  H30      1.0000 0.71660  0.85680  0.88930  Biso   1.000  H
  C37      1.0000 0.52120  0.90470  0.40050  Biso   1.000  C
  C38      1.0000 0.47880  0.09530  0.59950  Biso   1.000  C
  H31      1.0000 0.54030  0.96190  0.43830  Biso   1.000  H
  H32      1.0000 0.45970  0.03810  0.56170  Biso   1.000  H
  H33      1.0000 0.60690  0.87600  0.36640  Biso   1.000  H
  H34      1.0000 0.39310  0.12400  0.63360  Biso   1.000  H
  H35      1.0000 0.46230  0.82970  0.44870  Biso   1.000  H
  H36      1.0000 0.53770  0.17030  0.55130  Biso   1.000  H
  C39      1.0000 0.58010  0.27050  0.86940  Biso   1.000  C
  C40      1.0000 0.41990  0.72950  0.13060  Biso   1.000  C
  C41      1.0000 0.53270  0.40550  0.82260  Biso   1.000  C
  C42      1.0000 0.46730  0.59450  0.17740  Biso   1.000  C
  C43      1.0000 0.57090  0.47320  0.71660  Biso   1.000  C
  C44      1.0000 0.42910  0.52680  0.28340  Biso   1.000  C
  C45      1.0000 0.52270  0.59710  0.67970  Biso   1.000  C
  C46      1.0000 0.47730  0.40290  0.32030  Biso   1.000  C
  H37      1.0000 0.54700  0.64190  0.60800  Biso   1.000  H
  H38      1.0000 0.45300  0.35810  0.39200  Biso   1.000  H
  C47      1.0000 0.44060  0.65160  0.74840  Biso   1.000  C
  C48      1.0000 0.55940  0.34840  0.25160  Biso   1.000  C
  H39      1.0000 0.40950  0.73440  0.72330  Biso   1.000  H
  H40      1.0000 0.59050  0.26560  0.27670  Biso   1.000  H
  C49      1.0000 0.40240  0.58710  0.85450  Biso   1.000  C
  C50      1.0000 0.59760  0.41290  0.14550  Biso   1.000  C
  H41      1.0000 0.34740  0.62600  0.90150  Biso   1.000  H
  H42      1.0000 0.65260  0.37400  0.09850  Biso   1.000  H
  C51      1.0000 0.44730  0.46390  0.88960  Biso   1.000  C
  C52      1.0000 0.55270  0.53610  0.11040  Biso   1.000  C
  H43      1.0000 0.41910  0.41840  0.96110  Biso   1.000  H
  H44      1.0000 0.58090  0.58160  0.03890  Biso   1.000  H
  O9       1.0000 0.24800  0.95350  0.99880  Biso   1.000  O
  O10      1.0000 0.75200  0.04650  0.00120  Biso   1.000  O
  H45      1.0000 0.24800  0.92500  0.94700  Biso   1.000  H
  H46      1.0000 0.75200  0.07500  0.05300  Biso   1.000  H
  H47      1.0000 0.26600  0.90700  0.05500  Biso   1.000  H
  H48      1.0000 0.73400  0.09300  0.94500  Biso   1.000  H
