data_image0
_cell_length_a       14.92
_cell_length_b       7.0207
_cell_length_c       21.312
_cell_angle_alpha    90
_cell_angle_beta     90
_cell_angle_gamma    90

_symmetry_space_group_name_H-M    "P 1"
_symmetry_int_tables_number       1

loop_
  _symmetry_equiv_pos_as_xyz
  'x, y, z'

loop_
  _atom_site_label
  _atom_site_occupancy
  _atom_site_fract_x
  _atom_site_fract_y
  _atom_site_fract_z
  _atom_site_thermal_displace_type
  _atom_site_B_iso_or_equiv
  _atom_site_type_symbol
  Cu1      1.0000 0.55873  0.42978  0.18001  Biso   1.000  Cu
  Cu2      1.0000 0.44127  0.57022  0.68001  Biso   1.000  Cu
  Cu3      1.0000 0.05873  0.57022  0.18001  Biso   1.000  Cu
  Cu4      1.0000 0.94127  0.42978  0.68001  Biso   1.000  Cu
  Cu5      1.0000 0.68321  0.07661  0.30763  Biso   1.000  Cu
  Cu6      1.0000 0.31679  0.92339  0.80763  Biso   1.000  Cu
  Cu7      1.0000 0.18321  0.92339  0.30763  Biso   1.000  Cu
  Cu8      1.0000 0.81679  0.07661  0.80763  Biso   1.000  Cu
  S1       1.0000 0.56766  0.44364  0.29036  Biso   1.000  S
  S2       1.0000 0.43234  0.55636  0.79036  Biso   1.000  S
  S3       1.0000 0.06766  0.55636  0.29036  Biso   1.000  S
  S4       1.0000 0.93234  0.44364  0.79036  Biso   1.000  S
  S5       1.0000 0.41359  0.31756  0.18062  Biso   1.000  S
  S6       1.0000 0.58641  0.68244  0.68062  Biso   1.000  S
  S7       1.0000 0.91359  0.68244  0.18062  Biso   1.000  S
  S8       1.0000 0.08641  0.31756  0.68062  Biso   1.000  S
  S9       1.0000 0.67417  0.06138  0.19740  Biso   1.000  S
  S10      1.0000 0.32583  0.93862  0.69740  Biso   1.000  S
  S11      1.0000 0.17417  0.93862  0.19740  Biso   1.000  S
  S12      1.0000 0.82583  0.06138  0.69740  Biso   1.000  S
  S13      1.0000 0.82917  0.18503  0.30715  Biso   1.000  S
  S14      1.0000 0.17083  0.81497  0.80715  Biso   1.000  S
  S15      1.0000 0.32917  0.81497  0.30715  Biso   1.000  S
  S16      1.0000 0.67083  0.18503  0.80715  Biso   1.000  S
  O1       1.0000 0.24318  0.28940  0.30555  Biso   1.000  O
  O2       1.0000 0.75682  0.71060  0.80555  Biso   1.000  O
  O3       1.0000 0.74318  0.71060  0.30555  Biso   1.000  O
  O4       1.0000 0.25682  0.28940  0.80555  Biso   1.000  O
  O5       1.0000 0.39420  0.39810  0.41205  Biso   1.000  O
  O6       1.0000 0.60580  0.60190  0.91205  Biso   1.000  O
  O7       1.0000 0.89420  0.60190  0.41205  Biso   1.000  O
  O8       1.0000 0.10580  0.39810  0.91205  Biso   1.000  O
  O9       1.0000 0.99990  0.20630  0.18190  Biso   1.000  O
  O10      1.0000 0.00010  0.79370  0.68190  Biso   1.000  O
  O11      1.0000 0.49990  0.79370  0.18190  Biso   1.000  O
  O12      1.0000 0.50010  0.20630  0.68190  Biso   1.000  O
  O13      1.0000 0.84880  0.09880  0.07553  Biso   1.000  O
  O14      1.0000 0.15120  0.90120  0.57553  Biso   1.000  O
  O15      1.0000 0.34880  0.90120  0.07553  Biso   1.000  O
  O16      1.0000 0.65120  0.09880  0.57553  Biso   1.000  O
  N1       1.0000 0.67700  0.56730  0.17190  Biso   1.000  N
  N2       1.0000 0.32300  0.43270  0.67190  Biso   1.000  N
  N3       1.0000 0.17700  0.43270  0.17190  Biso   1.000  N
  N4       1.0000 0.82300  0.56730  0.67190  Biso   1.000  N
  H1       1.0000 0.67650  0.67560  0.19620  Biso   1.000  H
  H2       1.0000 0.32350  0.32440  0.69620  Biso   1.000  H
  H3       1.0000 0.17650  0.32440  0.19620  Biso   1.000  H
  H4       1.0000 0.82350  0.67560  0.69620  Biso   1.000  H
  H5       1.0000 0.72280  0.49000  0.18560  Biso   1.000  H
  H6       1.0000 0.27720  0.51000  0.68560  Biso   1.000  H
  H7       1.0000 0.22280  0.51000  0.18560  Biso   1.000  H
  H8       1.0000 0.77720  0.49000  0.68560  Biso   1.000  H
  N5       1.0000 0.56480  0.41350  0.08150  Biso   1.000  N
  N6       1.0000 0.43520  0.58650  0.58150  Biso   1.000  N
  N7       1.0000 0.06480  0.58650  0.08150  Biso   1.000  N
  N8       1.0000 0.93520  0.41350  0.58150  Biso   1.000  N
  N9       1.0000 0.56520  0.93930  0.31590  Biso   1.000  N
  N10      1.0000 0.43480  0.06070  0.81590  Biso   1.000  N
  N11      1.0000 0.06520  0.06070  0.31590  Biso   1.000  N
  N12      1.0000 0.93480  0.93930  0.81590  Biso   1.000  N
  H9       1.0000 0.51940  0.01630  0.30200  Biso   1.000  H
  H10      1.0000 0.48060  0.98370  0.80200  Biso   1.000  H
  H11      1.0000 0.01940  0.98370  0.30200  Biso   1.000  H
  H12      1.0000 0.98060  0.01630  0.80200  Biso   1.000  H
  H13      1.0000 0.56570  0.83070  0.29180  Biso   1.000  H
  H14      1.0000 0.43430  0.16930  0.79180  Biso   1.000  H
  H15      1.0000 0.06570  0.16930  0.29180  Biso   1.000  H
  H16      1.0000 0.93430  0.83070  0.79180  Biso   1.000  H
  N13      1.0000 0.67710  0.10020  0.40600  Biso   1.000  N
  N14      1.0000 0.32290  0.89980  0.90600  Biso   1.000  N
  N15      1.0000 0.17710  0.89980  0.40600  Biso   1.000  N
  N16      1.0000 0.82290  0.10020  0.90600  Biso   1.000  N
  C1       1.0000 0.45950  0.38440  0.30440  Biso   1.000  C
  C2       1.0000 0.54050  0.61560  0.80440  Biso   1.000  C
  C3       1.0000 0.95950  0.61560  0.30440  Biso   1.000  C
  C4       1.0000 0.04050  0.38440  0.80440  Biso   1.000  C
  C5       1.0000 0.39550  0.33410  0.25920  Biso   1.000  C
  C6       1.0000 0.60450  0.66590  0.75920  Biso   1.000  C
  C7       1.0000 0.89550  0.66590  0.25920  Biso   1.000  C
  C8       1.0000 0.10450  0.33410  0.75920  Biso   1.000  C
  C9       1.0000 0.32310  0.32130  0.30650  Biso   1.000  C
  C10      1.0000 0.67690  0.67870  0.80650  Biso   1.000  C
  C11      1.0000 0.82310  0.67870  0.30650  Biso   1.000  C
  C12      1.0000 0.17690  0.32130  0.80650  Biso   1.000  C
  C13      1.0000 0.39400  0.37320  0.35580  Biso   1.000  C
  C14      1.0000 0.60600  0.62680  0.85580  Biso   1.000  C
  C15      1.0000 0.89400  0.62680  0.35580  Biso   1.000  C
  C16      1.0000 0.10600  0.37320  0.85580  Biso   1.000  C
  C17      1.0000 0.78260  0.11660  0.18400  Biso   1.000  C
  C18      1.0000 0.21740  0.88340  0.68400  Biso   1.000  C
  C19      1.0000 0.28260  0.88340  0.18400  Biso   1.000  C
  C20      1.0000 0.71740  0.11660  0.68400  Biso   1.000  C
  C21      1.0000 0.84640  0.16670  0.22910  Biso   1.000  C
  C22      1.0000 0.15360  0.83330  0.72910  Biso   1.000  C
  C23      1.0000 0.34640  0.83330  0.22910  Biso   1.000  C
  C24      1.0000 0.65360  0.16670  0.72910  Biso   1.000  C
  C25      1.0000 0.91940  0.17560  0.18180  Biso   1.000  C
  C26      1.0000 0.08060  0.82440  0.68180  Biso   1.000  C
  C27      1.0000 0.41940  0.82440  0.18180  Biso   1.000  C
  C28      1.0000 0.58060  0.17560  0.68180  Biso   1.000  C
  C29      1.0000 0.84940  0.12410  0.13210  Biso   1.000  C
  C30      1.0000 0.15060  0.87590  0.63210  Biso   1.000  C
  C31      1.0000 0.34940  0.87590  0.13210  Biso   1.000  C
  C32      1.0000 0.65060  0.12410  0.63210  Biso   1.000  C
  C33      1.0000 0.69150  0.61820  0.10590  Biso   1.000  C
  C34      1.0000 0.30850  0.38180  0.60590  Biso   1.000  C
  C35      1.0000 0.19150  0.38180  0.10590  Biso   1.000  C
  C36      1.0000 0.80850  0.61820  0.60590  Biso   1.000  C
  H17      1.0000 0.75620  0.63840  0.09810  Biso   1.000  H
  H18      1.0000 0.24380  0.36160  0.59810  Biso   1.000  H
  H19      1.0000 0.25620  0.36160  0.09810  Biso   1.000  H
  H20      1.0000 0.74380  0.63840  0.59810  Biso   1.000  H
  H21      1.0000 0.65940  0.73800  0.09600  Biso   1.000  H
  H22      1.0000 0.34060  0.26200  0.59600  Biso   1.000  H
  H23      1.0000 0.15940  0.26200  0.09600  Biso   1.000  H
  H24      1.0000 0.84060  0.73800  0.59600  Biso   1.000  H
  C37      1.0000 0.65780  0.46320  0.06540  Biso   1.000  C
  C38      1.0000 0.34220  0.53680  0.56540  Biso   1.000  C
  C39      1.0000 0.15780  0.53680  0.06540  Biso   1.000  C
  C40      1.0000 0.84220  0.46320  0.56540  Biso   1.000  C
  H25      1.0000 0.66080  0.50370  0.02090  Biso   1.000  H
  H26      1.0000 0.33920  0.49630  0.52090  Biso   1.000  H
  H27      1.0000 0.16080  0.49630  0.02090  Biso   1.000  H
  H28      1.0000 0.83920  0.50370  0.52090  Biso   1.000  H
  H29      1.0000 0.69650  0.34960  0.07040  Biso   1.000  H
  H30      1.0000 0.30350  0.65040  0.57040  Biso   1.000  H
  H31      1.0000 0.19650  0.65040  0.07040  Biso   1.000  H
  H32      1.0000 0.80350  0.34960  0.57040  Biso   1.000  H
  C41      1.0000 0.49680  0.53470  0.05150  Biso   1.000  C
  C42      1.0000 0.50320  0.46530  0.55150  Biso   1.000  C
  C43      1.0000 0.99680  0.46530  0.05150  Biso   1.000  C
  C44      1.0000 0.00320  0.53470  0.55150  Biso   1.000  C
  H33      1.0000 0.43690  0.49400  0.06500  Biso   1.000  H
  H34      1.0000 0.56310  0.50600  0.56500  Biso   1.000  H
  H35      1.0000 0.93690  0.50600  0.06500  Biso   1.000  H
  H36      1.0000 0.06310  0.49400  0.56500  Biso   1.000  H
  H37      1.0000 0.50160  0.52320  0.00580  Biso   1.000  H
  H38      1.0000 0.49840  0.47680  0.50580  Biso   1.000  H
  H39      1.0000 0.00160  0.47680  0.00580  Biso   1.000  H
  H40      1.0000 0.99840  0.52320  0.50580  Biso   1.000  H
  H41      1.0000 0.50640  0.66760  0.06380  Biso   1.000  H
  H42      1.0000 0.49360  0.33240  0.56380  Biso   1.000  H
  H43      1.0000 0.00640  0.33240  0.06380  Biso   1.000  H
  H44      1.0000 0.99360  0.66760  0.56380  Biso   1.000  H
  C45      1.0000 0.54960  0.21660  0.05700  Biso   1.000  C
  C46      1.0000 0.45040  0.78340  0.55700  Biso   1.000  C
  C47      1.0000 0.04960  0.78340  0.05700  Biso   1.000  C
  C48      1.0000 0.95040  0.21660  0.55700  Biso   1.000  C
  H45      1.0000 0.59370  0.12980  0.07550  Biso   1.000  H
  H46      1.0000 0.40630  0.87020  0.57550  Biso   1.000  H
  H47      1.0000 0.09370  0.87020  0.07550  Biso   1.000  H
  H48      1.0000 0.90630  0.12980  0.57550  Biso   1.000  H
  H49      1.0000 0.55610  0.21650  0.01120  Biso   1.000  H
  H50      1.0000 0.44390  0.78350  0.51120  Biso   1.000  H
  H51      1.0000 0.05610  0.78350  0.01120  Biso   1.000  H
  H52      1.0000 0.94390  0.21650  0.51120  Biso   1.000  H
  H53      1.0000 0.48910  0.17460  0.06820  Biso   1.000  H
  H54      1.0000 0.51090  0.82540  0.56820  Biso   1.000  H
  H55      1.0000 0.98910  0.82540  0.06820  Biso   1.000  H
  H56      1.0000 0.01090  0.17460  0.56820  Biso   1.000  H
  C49      1.0000 0.55050  0.88900  0.38260  Biso   1.000  C
  C50      1.0000 0.44950  0.11100  0.88260  Biso   1.000  C
  C51      1.0000 0.05050  0.11100  0.38260  Biso   1.000  C
  C52      1.0000 0.94950  0.88900  0.88260  Biso   1.000  C
  H57      1.0000 0.58440  0.77230  0.39350  Biso   1.000  H
  H58      1.0000 0.41560  0.22770  0.89350  Biso   1.000  H
  H59      1.0000 0.08440  0.22770  0.39350  Biso   1.000  H
  H60      1.0000 0.91560  0.77230  0.89350  Biso   1.000  H
  H61      1.0000 0.48600  0.86540  0.39050  Biso   1.000  H
  H62      1.0000 0.51400  0.13460  0.89050  Biso   1.000  H
  H63      1.0000 0.98600  0.13460  0.39050  Biso   1.000  H
  H64      1.0000 0.01400  0.86540  0.89050  Biso   1.000  H
  C53      1.0000 0.58320  0.05670  0.42200  Biso   1.000  C
  C54      1.0000 0.41680  0.94330  0.92200  Biso   1.000  C
  C55      1.0000 0.08320  0.94330  0.42200  Biso   1.000  C
  C56      1.0000 0.91680  0.05670  0.92200  Biso   1.000  C
  H65      1.0000 0.54520  0.16960  0.41380  Biso   1.000  H
  H66      1.0000 0.45480  0.83040  0.91380  Biso   1.000  H
  H67      1.0000 0.04520  0.83040  0.41380  Biso   1.000  H
  H68      1.0000 0.95480  0.16960  0.91380  Biso   1.000  H
  H69      1.0000 0.57850  0.02490  0.46710  Biso   1.000  H
  H70      1.0000 0.42150  0.97510  0.96710  Biso   1.000  H
  H71      1.0000 0.07850  0.97510  0.46710  Biso   1.000  H
  H72      1.0000 0.92150  0.02490  0.96710  Biso   1.000  H
  C57      1.0000 0.73850  0.96320  0.43530  Biso   1.000  C
  C58      1.0000 0.26150  0.03680  0.93530  Biso   1.000  C
  C59      1.0000 0.23850  0.03680  0.43530  Biso   1.000  C
  C60      1.0000 0.76150  0.96320  0.93530  Biso   1.000  C
  H73      1.0000 0.80030  0.99420  0.42350  Biso   1.000  H
  H74      1.0000 0.19970  0.00580  0.92350  Biso   1.000  H
  H75      1.0000 0.30030  0.00580  0.42350  Biso   1.000  H
  H76      1.0000 0.69970  0.99420  0.92350  Biso   1.000  H
  H77      1.0000 0.72400  0.83430  0.42080  Biso   1.000  H
  H78      1.0000 0.27600  0.16570  0.92080  Biso   1.000  H
  H79      1.0000 0.22400  0.16570  0.42080  Biso   1.000  H
  H80      1.0000 0.77600  0.83430  0.92080  Biso   1.000  H
  H81      1.0000 0.73230  0.96950  0.48100  Biso   1.000  H
  H82      1.0000 0.26770  0.03050  0.98100  Biso   1.000  H
  H83      1.0000 0.23230  0.03050  0.48100  Biso   1.000  H
  H84      1.0000 0.76770  0.96950  0.98100  Biso   1.000  H
  C61      1.0000 0.69880  0.29510  0.42920  Biso   1.000  C
  C62      1.0000 0.30120  0.70490  0.92920  Biso   1.000  C
  C63      1.0000 0.19880  0.70490  0.42920  Biso   1.000  C
  C64      1.0000 0.80120  0.29510  0.92920  Biso   1.000  C
  H85      1.0000 0.65820  0.38750  0.40980  Biso   1.000  H
  H86      1.0000 0.34180  0.61250  0.90980  Biso   1.000  H
  H87      1.0000 0.15820  0.61250  0.40980  Biso   1.000  H
  H88      1.0000 0.84180  0.38750  0.90980  Biso   1.000  H
  H89      1.0000 0.76080  0.32660  0.41810  Biso   1.000  H
  H90      1.0000 0.23920  0.67340  0.91810  Biso   1.000  H
  H91      1.0000 0.26080  0.67340  0.41810  Biso   1.000  H
  H92      1.0000 0.73920  0.32660  0.91810  Biso   1.000  H
  H93      1.0000 0.69180  0.29930  0.47490  Biso   1.000  H
  H94      1.0000 0.30820  0.70070  0.97490  Biso   1.000  H
  H95      1.0000 0.19180  0.70070  0.47490  Biso   1.000  H
  H96      1.0000 0.80820  0.29930  0.97490  Biso   1.000  H
