data_image0
_cell_length_a       9.9062
_cell_length_b       10.7649
_cell_length_c       13.3772
_cell_angle_alpha    99.364
_cell_angle_beta     102.253
_cell_angle_gamma    90.278

_symmetry_space_group_name_H-M    "P 1"
_symmetry_int_tables_number       1

loop_
  _symmetry_equiv_pos_as_xyz
  'x, y, z'

loop_
  _atom_site_label
  _atom_site_occupancy
  _atom_site_fract_x
  _atom_site_fract_y
  _atom_site_fract_z
  _atom_site_thermal_displace_type
  _atom_site_B_iso_or_equiv
  _atom_site_type_symbol
  Cu1      1.0000 0.00000  0.00000  0.00000  Biso   1.000  Cu
  Cu2      1.0000 0.50000  0.00000  0.00000  Biso   1.000  Cu
  Br1      1.0000 0.55972  0.34640  0.36323  Biso   1.000  Br
  Br2      1.0000 0.44028  0.65360  0.63677  Biso   1.000  Br
  Br3      1.0000 0.06827  0.86592  0.38774  Biso   1.000  Br
  Br4      1.0000 0.93173  0.13408  0.61226  Biso   1.000  Br
  O1       1.0000 0.06530  0.86110  0.07620  Biso   1.000  O
  O2       1.0000 0.93470  0.13890  0.92380  Biso   1.000  O
  O3       1.0000 0.56270  0.17570  0.06220  Biso   1.000  O
  O4       1.0000 0.43730  0.82430  0.93780  Biso   1.000  O
  O5       1.0000 0.89250  0.84550  0.15740  Biso   1.000  O
  O6       1.0000 0.10750  0.15450  0.84260  Biso   1.000  O
  O7       1.0000 0.38550  0.24150  0.13300  Biso   1.000  O
  O8       1.0000 0.61450  0.75850  0.86700  Biso   1.000  O
  N1       1.0000 0.02090  0.11870  0.13340  Biso   1.000  N
  N2       1.0000 0.97910  0.88130  0.86660  Biso   1.000  N
  N3       1.0000 0.52210  0.95470  0.14250  Biso   1.000  N
  N4       1.0000 0.47790  0.04530  0.85750  Biso   1.000  N
  C1       1.0000 0.92180  0.19850  0.14950  Biso   1.000  C
  C2       1.0000 0.07820  0.80150  0.85050  Biso   1.000  C
  H1       1.0000 0.84550  0.20120  0.09580  Biso   1.000  H
  H2       1.0000 0.15450  0.79880  0.90420  Biso   1.000  H
  C3       1.0000 0.92890  0.27710  0.24320  Biso   1.000  C
  C4       1.0000 0.07110  0.72290  0.75680  Biso   1.000  C
  H3       1.0000 0.85870  0.33250  0.25120  Biso   1.000  H
  H4       1.0000 0.14130  0.66750  0.74880  Biso   1.000  H
  C5       1.0000 0.03880  0.27390  0.32450  Biso   1.000  C
  C6       1.0000 0.96120  0.72610  0.67550  Biso   1.000  C
  C7       1.0000 0.14210  0.19470  0.30630  Biso   1.000  C
  C8       1.0000 0.85790  0.80530  0.69370  Biso   1.000  C
  H5       1.0000 0.22110  0.19300  0.35800  Biso   1.000  H
  H6       1.0000 0.77890  0.80700  0.64200  Biso   1.000  H
  C9       1.0000 0.12920  0.11800  0.21210  Biso   1.000  C
  C10      1.0000 0.87080  0.88200  0.78790  Biso   1.000  C
  H7       1.0000 0.19910  0.06290  0.20260  Biso   1.000  H
  H8       1.0000 0.80090  0.93710  0.79740  Biso   1.000  H
  C11      1.0000 0.04630  0.35830  0.42810  Biso   1.000  C
  C12      1.0000 0.95370  0.64170  0.57190  Biso   1.000  C
  H9       1.0000 0.13800  0.39550  0.45340  Biso   1.000  H
  H10      1.0000 0.86200  0.60450  0.54660  Biso   1.000  H
  H11      1.0000 0.02450  0.30920  0.47680  Biso   1.000  H
  H12      1.0000 0.97550  0.69080  0.52320  Biso   1.000  H
  H13      1.0000 0.98130  0.42360  0.41960  Biso   1.000  H
  H14      1.0000 0.01870  0.57640  0.58040  Biso   1.000  H
  C13      1.0000 0.00490  0.81700  0.13840  Biso   1.000  C
  C14      1.0000 0.99510  0.18300  0.86160  Biso   1.000  C
  C15      1.0000 0.08370  0.71670  0.19070  Biso   1.000  C
  C16      1.0000 0.91630  0.28330  0.80930  Biso   1.000  C
  C17      1.0000 0.11530  0.72600  0.29840  Biso   1.000  C
  C18      1.0000 0.88470  0.27400  0.70160  Biso   1.000  C
  C19      1.0000 0.19290  0.63120  0.34320  Biso   1.000  C
  C20      1.0000 0.80710  0.36880  0.65680  Biso   1.000  C
  H15      1.0000 0.21660  0.63710  0.41500  Biso   1.000  H
  H16      1.0000 0.78340  0.36290  0.58500  Biso   1.000  H
  C21      1.0000 0.23280  0.53090  0.28110  Biso   1.000  C
  C22      1.0000 0.76720  0.46910  0.71890  Biso   1.000  C
  H17      1.0000 0.28310  0.46850  0.31100  Biso   1.000  H
  H18      1.0000 0.71690  0.53150  0.68900  Biso   1.000  H
  C23      1.0000 0.20010  0.52110  0.17630  Biso   1.000  C
  C24      1.0000 0.79990  0.47890  0.82370  Biso   1.000  C
  H19      1.0000 0.22560  0.45090  0.13500  Biso   1.000  H
  H20      1.0000 0.77440  0.54910  0.86500  Biso   1.000  H
  C25      1.0000 0.12840  0.61570  0.13000  Biso   1.000  C
  C26      1.0000 0.87160  0.38430  0.87000  Biso   1.000  C
  H21      1.0000 0.11080  0.61070  0.05830  Biso   1.000  H
  H22      1.0000 0.88920  0.38930  0.94170  Biso   1.000  H
  C27      1.0000 0.62880  0.99860  0.21950  Biso   1.000  C
  C28      1.0000 0.37120  0.00140  0.78050  Biso   1.000  C
  H23      1.0000 0.69440  0.05230  0.20650  Biso   1.000  H
  H24      1.0000 0.30560  0.94770  0.79350  Biso   1.000  H
  C29      1.0000 0.64660  0.96810  0.31760  Biso   1.000  C
  C30      1.0000 0.35340  0.03190  0.68240  Biso   1.000  C
  H25      1.0000 0.72230  0.00200  0.36900  Biso   1.000  H
  H26      1.0000 0.27770  0.99800  0.63100  Biso   1.000  H
  C31      1.0000 0.55320  0.88820  0.33940  Biso   1.000  C
  C32      1.0000 0.44680  0.11180  0.66060  Biso   1.000  C
  C33      1.0000 0.44090  0.84310  0.25940  Biso   1.000  C
  C34      1.0000 0.55910  0.15690  0.74060  Biso   1.000  C
  H27      1.0000 0.37360  0.78990  0.27100  Biso   1.000  H
  H28      1.0000 0.62640  0.21010  0.72900  Biso   1.000  H
  C35      1.0000 0.42910  0.87700  0.16350  Biso   1.000  C
  C36      1.0000 0.57090  0.12300  0.83650  Biso   1.000  C
  H29      1.0000 0.35380  0.84490  0.11100  Biso   1.000  H
  H30      1.0000 0.64620  0.15510  0.88900  Biso   1.000  H
  C37      1.0000 0.56920  0.84780  0.44420  Biso   1.000  C
  C38      1.0000 0.43080  0.15220  0.55580  Biso   1.000  C
  H31      1.0000 0.56610  0.92020  0.49590  Biso   1.000  H
  H32      1.0000 0.43390  0.07980  0.50410  Biso   1.000  H
  H33      1.0000 0.65620  0.80890  0.46090  Biso   1.000  H
  H34      1.0000 0.34380  0.19110  0.53910  Biso   1.000  H
  H35      1.0000 0.49530  0.78870  0.44210  Biso   1.000  H
  H36      1.0000 0.50470  0.21130  0.55790  Biso   1.000  H
  C39      1.0000 0.50200  0.25550  0.11510  Biso   1.000  C
  C40      1.0000 0.49800  0.74450  0.88490  Biso   1.000  C
  C41      1.0000 0.58100  0.37890  0.15890  Biso   1.000  C
  C42      1.0000 0.41900  0.62110  0.84110  Biso   1.000  C
  C43      1.0000 0.60870  0.43300  0.26170  Biso   1.000  C
  C44      1.0000 0.39130  0.56700  0.73830  Biso   1.000  C
  C45      1.0000 0.68090  0.54810  0.29810  Biso   1.000  C
  C46      1.0000 0.31910  0.45190  0.70190  Biso   1.000  C
  H37      1.0000 0.70020  0.58170  0.36840  Biso   1.000  H
  H38      1.0000 0.29980  0.41830  0.63160  Biso   1.000  H
  C47      1.0000 0.72380  0.61210  0.22730  Biso   1.000  C
  C48      1.0000 0.27620  0.38790  0.77270  Biso   1.000  C
  H39      1.0000 0.76870  0.69100  0.24960  Biso   1.000  H
  H40      1.0000 0.23130  0.30900  0.75040  Biso   1.000  H
  C49      1.0000 0.70030  0.55960  0.12650  Biso   1.000  C
  C50      1.0000 0.29970  0.44040  0.87350  Biso   1.000  C
  H41      1.0000 0.73250  0.60170  0.08020  Biso   1.000  H
  H42      1.0000 0.26750  0.39830  0.91980  Biso   1.000  H
  C51      1.0000 0.62940  0.44450  0.09010  Biso   1.000  C
  C52      1.0000 0.37060  0.55550  0.90990  Biso   1.000  C
  H43      1.0000 0.61370  0.41060  0.01990  Biso   1.000  H
  H44      1.0000 0.38630  0.58940  0.98010  Biso   1.000  H
  O9       1.0000 0.25180  0.04500  0.99790  Biso   1.000  O
  O10      1.0000 0.74820  0.95500  0.00210  Biso   1.000  O
  H45      1.0000 0.21100  0.08000  0.94700  Biso   1.000  H
  H46      1.0000 0.78900  0.92000  0.05300  Biso   1.000  H
  H47      1.0000 0.28700  0.10800  0.04400  Biso   1.000  H
  H48      1.0000 0.71300  0.89200  0.95600  Biso   1.000  H
