data_image0
_cell_length_a       10.4296
_cell_length_b       22.179
_cell_length_c       7.0837
_cell_angle_alpha    90
_cell_angle_beta     92.797
_cell_angle_gamma    90

_symmetry_space_group_name_H-M    "P 1"
_symmetry_int_tables_number       1

loop_
  _symmetry_equiv_pos_as_xyz
  'x, y, z'

loop_
  _atom_site_label
  _atom_site_occupancy
  _atom_site_fract_x
  _atom_site_fract_y
  _atom_site_fract_z
  _atom_site_thermal_displace_type
  _atom_site_B_iso_or_equiv
  _atom_site_type_symbol
  Cu1      1.0000 0.24237  0.18167  0.50084  Biso   1.000  Cu
  Cu2      1.0000 0.75763  0.68167  0.99916  Biso   1.000  Cu
  Cu3      1.0000 0.75763  0.81833  0.49916  Biso   1.000  Cu
  Cu4      1.0000 0.24237  0.31833  0.00084  Biso   1.000  Cu
  Cl1      1.0000 0.28080  0.22158  0.81150  Biso   1.000  Cl
  Cl2      1.0000 0.71920  0.72158  0.68850  Biso   1.000  Cl
  Cl3      1.0000 0.71920  0.77842  0.18850  Biso   1.000  Cl
  Cl4      1.0000 0.28080  0.27842  0.31150  Biso   1.000  Cl
  S1       1.0000 0.46320  0.17556  0.49270  Biso   1.000  S
  S2       1.0000 0.53680  0.67556  0.00730  Biso   1.000  S
  S3       1.0000 0.53680  0.82444  0.50730  Biso   1.000  S
  S4       1.0000 0.46320  0.32444  0.99270  Biso   1.000  S
  N1       1.0000 0.05280  0.19670  0.51920  Biso   1.000  N
  N2       1.0000 0.94720  0.69670  0.98080  Biso   1.000  N
  N3       1.0000 0.94720  0.80330  0.48080  Biso   1.000  N
  N4       1.0000 0.05280  0.30330  0.01920  Biso   1.000  N
  N5       1.0000 0.22670  0.09970  0.36270  Biso   1.000  N
  N6       1.0000 0.77330  0.59970  0.13730  Biso   1.000  N
  N7       1.0000 0.77330  0.90030  0.63730  Biso   1.000  N
  N8       1.0000 0.22670  0.40030  0.86270  Biso   1.000  N
  C1       1.0000 0.27730  0.10660  0.16980  Biso   1.000  C
  C2       1.0000 0.72270  0.60660  0.33020  Biso   1.000  C
  C3       1.0000 0.72270  0.89340  0.83020  Biso   1.000  C
  C4       1.0000 0.27730  0.39340  0.66980  Biso   1.000  C
  C5       1.0000 0.42390  0.10720  0.16060  Biso   1.000  C
  C6       1.0000 0.57610  0.60720  0.33940  Biso   1.000  C
  C7       1.0000 0.57610  0.89280  0.83940  Biso   1.000  C
  C8       1.0000 0.42390  0.39280  0.66060  Biso   1.000  C
  C9       1.0000 0.49370  0.16180  0.24700  Biso   1.000  C
  C10      1.0000 0.50630  0.66180  0.25300  Biso   1.000  C
  C11      1.0000 0.50630  0.83820  0.75300  Biso   1.000  C
  C12      1.0000 0.49370  0.33820  0.74700  Biso   1.000  C
  C13      1.0000 0.49930  0.10210  0.59840  Biso   1.000  C
  C14      1.0000 0.50070  0.60210  0.90160  Biso   1.000  C
  C15      1.0000 0.50070  0.89790  0.40160  Biso   1.000  C
  C16      1.0000 0.49930  0.39790  0.09840  Biso   1.000  C
  C17      1.0000 0.37940  0.06620  0.64140  Biso   1.000  C
  C18      1.0000 0.62060  0.56620  0.85860  Biso   1.000  C
  C19      1.0000 0.62060  0.93380  0.35860  Biso   1.000  C
  C20      1.0000 0.37940  0.43380  0.14140  Biso   1.000  C
  C21      1.0000 0.28850  0.04790  0.47180  Biso   1.000  C
  C22      1.0000 0.71150  0.54790  0.02820  Biso   1.000  C
  C23      1.0000 0.71150  0.95210  0.52820  Biso   1.000  C
  C24      1.0000 0.28850  0.45210  0.97180  Biso   1.000  C
  C25      1.0000 0.08800  0.08400  0.32900  Biso   1.000  C
  C26      1.0000 0.91200  0.58400  0.17100  Biso   1.000  C
  C27      1.0000 0.91200  0.91600  0.67100  Biso   1.000  C
  C28      1.0000 0.08800  0.41600  0.82900  Biso   1.000  C
  C29      1.0000 0.00760  0.08950  0.50570  Biso   1.000  C
  C30      1.0000 0.99240  0.58950  0.99430  Biso   1.000  C
  C31      1.0000 0.99240  0.91050  0.49430  Biso   1.000  C
  C32      1.0000 0.00760  0.41050  0.00570  Biso   1.000  C
  C33      1.0000 0.96370  0.15240  0.53830  Biso   1.000  C
  C34      1.0000 0.03630  0.65240  0.96170  Biso   1.000  C
  C35      1.0000 0.03630  0.84760  0.46170  Biso   1.000  C
  C36      1.0000 0.96370  0.34760  0.03830  Biso   1.000  C
  C37      1.0000 0.84070  0.16560  0.58140  Biso   1.000  C
  C38      1.0000 0.15930  0.66560  0.91860  Biso   1.000  C
  C39      1.0000 0.15930  0.83440  0.41860  Biso   1.000  C
  C40      1.0000 0.84070  0.33440  0.08140  Biso   1.000  C
  C41      1.0000 0.80420  0.22460  0.60390  Biso   1.000  C
  C42      1.0000 0.19580  0.72460  0.89610  Biso   1.000  C
  C43      1.0000 0.19580  0.77540  0.39610  Biso   1.000  C
  C44      1.0000 0.80420  0.27540  0.10390  Biso   1.000  C
  C45      1.0000 0.89130  0.27050  0.58010  Biso   1.000  C
  C46      1.0000 0.10870  0.77050  0.91990  Biso   1.000  C
  C47      1.0000 0.10870  0.72950  0.41990  Biso   1.000  C
  C48      1.0000 0.89130  0.22950  0.08010  Biso   1.000  C
  C49      1.0000 0.01420  0.25490  0.54000  Biso   1.000  C
  C50      1.0000 0.98580  0.75490  0.96000  Biso   1.000  C
  C51      1.0000 0.98580  0.74510  0.46000  Biso   1.000  C
  C52      1.0000 0.01420  0.24510  0.04000  Biso   1.000  C
  H1       1.0000 0.24050  0.07350  0.09570  Biso   1.000  H
  H2       1.0000 0.75950  0.57350  0.40430  Biso   1.000  H
  H3       1.0000 0.75950  0.92650  0.90430  Biso   1.000  H
  H4       1.0000 0.24050  0.42650  0.59570  Biso   1.000  H
  H5       1.0000 0.24280  0.14440  0.12090  Biso   1.000  H
  H6       1.0000 0.75720  0.64440  0.37910  Biso   1.000  H
  H7       1.0000 0.75720  0.85560  0.87910  Biso   1.000  H
  H8       1.0000 0.24280  0.35560  0.62090  Biso   1.000  H
  H9       1.0000 0.45490  0.07180  0.22910  Biso   1.000  H
  H10      1.0000 0.54510  0.57180  0.27090  Biso   1.000  H
  H11      1.0000 0.54510  0.92820  0.77090  Biso   1.000  H
  H12      1.0000 0.45490  0.42820  0.72910  Biso   1.000  H
  H13      1.0000 0.44340  0.10350  0.02860  Biso   1.000  H
  H14      1.0000 0.55660  0.60350  0.47140  Biso   1.000  H
  H15      1.0000 0.55660  0.89650  0.97140  Biso   1.000  H
  H16      1.0000 0.44340  0.39650  0.52860  Biso   1.000  H
  H17      1.0000 0.46600  0.19350  0.15990  Biso   1.000  H
  H18      1.0000 0.53400  0.69350  0.34010  Biso   1.000  H
  H19      1.0000 0.53400  0.80650  0.84010  Biso   1.000  H
  H20      1.0000 0.46600  0.30650  0.65990  Biso   1.000  H
  H21      1.0000 0.58260  0.15270  0.22370  Biso   1.000  H
  H22      1.0000 0.41740  0.65270  0.27630  Biso   1.000  H
  H23      1.0000 0.41740  0.84730  0.77630  Biso   1.000  H
  H24      1.0000 0.58260  0.34730  0.72370  Biso   1.000  H
  H25      1.0000 0.54540  0.07460  0.51970  Biso   1.000  H
  H26      1.0000 0.45460  0.57460  0.98030  Biso   1.000  H
  H27      1.0000 0.45460  0.92540  0.48030  Biso   1.000  H
  H28      1.0000 0.54540  0.42540  0.01970  Biso   1.000  H
  H29      1.0000 0.54540  0.10410  0.72060  Biso   1.000  H
  H30      1.0000 0.45460  0.60410  0.77940  Biso   1.000  H
  H31      1.0000 0.45460  0.89590  0.27940  Biso   1.000  H
  H32      1.0000 0.54540  0.39590  0.22060  Biso   1.000  H
  H33      1.0000 0.40670  0.02890  0.70210  Biso   1.000  H
  H34      1.0000 0.59330  0.52890  0.79790  Biso   1.000  H
  H35      1.0000 0.59330  0.97110  0.29790  Biso   1.000  H
  H36      1.0000 0.40670  0.47110  0.20210  Biso   1.000  H
  H37      1.0000 0.32900  0.08950  0.72710  Biso   1.000  H
  H38      1.0000 0.67100  0.58950  0.77290  Biso   1.000  H
  H39      1.0000 0.67100  0.91050  0.27290  Biso   1.000  H
  H40      1.0000 0.32900  0.41050  0.22710  Biso   1.000  H
  H41      1.0000 0.21740  0.02440  0.51580  Biso   1.000  H
  H42      1.0000 0.78260  0.52440  0.98420  Biso   1.000  H
  H43      1.0000 0.78260  0.97560  0.48420  Biso   1.000  H
  H44      1.0000 0.21740  0.47560  0.01580  Biso   1.000  H
  H45      1.0000 0.33560  0.02400  0.38370  Biso   1.000  H
  H46      1.0000 0.66440  0.52400  0.11630  Biso   1.000  H
  H47      1.0000 0.66440  0.97600  0.61630  Biso   1.000  H
  H48      1.0000 0.33560  0.47600  0.88370  Biso   1.000  H
  H49      1.0000 0.05160  0.11130  0.23390  Biso   1.000  H
  H50      1.0000 0.94840  0.61130  0.26610  Biso   1.000  H
  H51      1.0000 0.94840  0.88870  0.76610  Biso   1.000  H
  H52      1.0000 0.05160  0.38870  0.73390  Biso   1.000  H
  H53      1.0000 0.08310  0.04300  0.28170  Biso   1.000  H
  H54      1.0000 0.91690  0.54300  0.21830  Biso   1.000  H
  H55      1.0000 0.91690  0.95700  0.71830  Biso   1.000  H
  H56      1.0000 0.08310  0.45700  0.78170  Biso   1.000  H
  H57      1.0000 0.93110  0.06460  0.49670  Biso   1.000  H
  H58      1.0000 0.06890  0.56460  0.00330  Biso   1.000  H
  H59      1.0000 0.06890  0.93540  0.50330  Biso   1.000  H
  H60      1.0000 0.93110  0.43540  0.99670  Biso   1.000  H
  H61      1.0000 0.06020  0.07770  0.61630  Biso   1.000  H
  H62      1.0000 0.93980  0.57770  0.88370  Biso   1.000  H
  H63      1.0000 0.93980  0.92230  0.38370  Biso   1.000  H
  H64      1.0000 0.06020  0.42230  0.11630  Biso   1.000  H
  H65      1.0000 0.78220  0.13450  0.59580  Biso   1.000  H
  H66      1.0000 0.21780  0.63450  0.90420  Biso   1.000  H
  H67      1.0000 0.21780  0.86550  0.40420  Biso   1.000  H
  H68      1.0000 0.78220  0.36550  0.09580  Biso   1.000  H
  H69      1.0000 0.72080  0.23320  0.63640  Biso   1.000  H
  H70      1.0000 0.27920  0.73320  0.86360  Biso   1.000  H
  H71      1.0000 0.27920  0.76680  0.36360  Biso   1.000  H
  H72      1.0000 0.72080  0.26680  0.13640  Biso   1.000  H
  H73      1.0000 0.86730  0.31070  0.59250  Biso   1.000  H
  H74      1.0000 0.13270  0.81070  0.90750  Biso   1.000  H
  H75      1.0000 0.13270  0.68930  0.40750  Biso   1.000  H
  H76      1.0000 0.86730  0.18930  0.09250  Biso   1.000  H
  H77      1.0000 0.07380  0.28530  0.52100  Biso   1.000  H
  H78      1.0000 0.92620  0.78530  0.97900  Biso   1.000  H
  H79      1.0000 0.92620  0.71470  0.47900  Biso   1.000  H
  H80      1.0000 0.07380  0.21470  0.02100  Biso   1.000  H
  F1       1.0000 0.25180  0.91890  0.77770  Biso   1.000  F
  F2       1.0000 0.74820  0.41890  0.72230  Biso   1.000  F
  F3       1.0000 0.74820  0.08110  0.22230  Biso   1.000  F
  F4       1.0000 0.25180  0.58110  0.27770  Biso   1.000  F
  F5       1.0000 0.13750  0.92040  0.04570  Biso   1.000  F
  F6       1.0000 0.86250  0.42040  0.45430  Biso   1.000  F
  F7       1.0000 0.86250  0.07960  0.95430  Biso   1.000  F
  F8       1.0000 0.13750  0.57960  0.54570  Biso   1.000  F
  F9       1.0000 0.15710  0.00020  0.87070  Biso   1.000  F
  F10      1.0000 0.84290  0.50020  0.62930  Biso   1.000  F
  F11      1.0000 0.84290  0.99980  0.12930  Biso   1.000  F
  F12      1.0000 0.15710  0.49980  0.37070  Biso   1.000  F
  F13      1.0000 0.33340  0.96620  0.04590  Biso   1.000  F
  F14      1.0000 0.66660  0.46620  0.45410  Biso   1.000  F
  F15      1.0000 0.66660  0.03380  0.95410  Biso   1.000  F
  F16      1.0000 0.33340  0.53380  0.54590  Biso   1.000  F
  B1       1.0000 0.22860  0.94500  0.94400  Biso   1.000  B
  B2       1.0000 0.77140  0.44500  0.55600  Biso   1.000  B
  B3       1.0000 0.77140  0.05500  0.05600  Biso   1.000  B
  B4       1.0000 0.22860  0.55500  0.44400  Biso   1.000  B
