data_image0
_cell_length_a       16.627
_cell_length_b       13.14
_cell_length_c       13.425
_cell_angle_alpha    90
_cell_angle_beta     90
_cell_angle_gamma    90

_symmetry_space_group_name_H-M    "P 1"
_symmetry_int_tables_number       1

loop_
  _symmetry_equiv_pos_as_xyz
  'x, y, z'

loop_
  _atom_site_label
  _atom_site_occupancy
  _atom_site_fract_x
  _atom_site_fract_y
  _atom_site_fract_z
  _atom_site_thermal_displace_type
  _atom_site_B_iso_or_equiv
  _atom_site_type_symbol
  Cu1      1.0000 0.11758  0.17394  0.01011  Biso   1.000  Cu
  Cu2      1.0000 0.88242  0.82606  0.51011  Biso   1.000  Cu
  Cu3      1.0000 0.61758  0.82606  0.01011  Biso   1.000  Cu
  Cu4      1.0000 0.38242  0.17394  0.51011  Biso   1.000  Cu
  Cu5      1.0000 0.25702  0.36441  0.09773  Biso   1.000  Cu
  Cu6      1.0000 0.74298  0.63559  0.59773  Biso   1.000  Cu
  Cu7      1.0000 0.75702  0.63559  0.09773  Biso   1.000  Cu
  Cu8      1.0000 0.24298  0.36441  0.59773  Biso   1.000  Cu
  Cl1      1.0000 0.16350  0.38940  0.85200  Biso   1.000  Cl
  Cl2      1.0000 0.83650  0.61060  0.35200  Biso   1.000  Cl
  Cl3      1.0000 0.66350  0.61060  0.85200  Biso   1.000  Cl
  Cl4      1.0000 0.33650  0.38940  0.35200  Biso   1.000  Cl
  Cl5      1.0000 0.10400  0.90120  0.06900  Biso   1.000  Cl
  Cl6      1.0000 0.89600  0.09880  0.56900  Biso   1.000  Cl
  Cl7      1.0000 0.60400  0.09880  0.06900  Biso   1.000  Cl
  Cl8      1.0000 0.39600  0.90120  0.56900  Biso   1.000  Cl
  O1       1.0000 0.11190  0.24160  0.14130  Biso   1.000  O
  O2       1.0000 0.88810  0.75840  0.64130  Biso   1.000  O
  O3       1.0000 0.61190  0.75840  0.14130  Biso   1.000  O
  O4       1.0000 0.38810  0.24160  0.64130  Biso   1.000  O
  O5       1.0000 0.28700  0.23140  0.05980  Biso   1.000  O
  O6       1.0000 0.71300  0.76860  0.55980  Biso   1.000  O
  O7       1.0000 0.78700  0.76860  0.05980  Biso   1.000  O
  O8       1.0000 0.21300  0.23140  0.55980  Biso   1.000  O
  O9       1.0000 0.23650  0.41180  0.90520  Biso   1.000  O
  O10      1.0000 0.76350  0.58820  0.40520  Biso   1.000  O
  O11      1.0000 0.73650  0.58820  0.90520  Biso   1.000  O
  O12      1.0000 0.26350  0.41180  0.40520  Biso   1.000  O
  O13      1.0000 0.10900  0.34270  0.92020  Biso   1.000  O
  O14      1.0000 0.89100  0.65730  0.42020  Biso   1.000  O
  O15      1.0000 0.60900  0.65730  0.92020  Biso   1.000  O
  O16      1.0000 0.39100  0.34270  0.42020  Biso   1.000  O
  O17      1.0000 0.18010  0.31990  0.77610  Biso   1.000  O
  O18      1.0000 0.81990  0.68010  0.27610  Biso   1.000  O
  O19      1.0000 0.68010  0.68010  0.77610  Biso   1.000  O
  O20      1.0000 0.31990  0.31990  0.27610  Biso   1.000  O
  O21      1.0000 0.13220  0.48000  0.81420  Biso   1.000  O
  O22      1.0000 0.86780  0.52000  0.31420  Biso   1.000  O
  O23      1.0000 0.63220  0.52000  0.81420  Biso   1.000  O
  O24      1.0000 0.36780  0.48000  0.31420  Biso   1.000  O
  O25      1.0000 0.13020  0.99960  0.09970  Biso   1.000  O
  O26      1.0000 0.86980  0.00040  0.59970  Biso   1.000  O
  O27      1.0000 0.63020  0.00040  0.09970  Biso   1.000  O
  O28      1.0000 0.36980  0.99960  0.59970  Biso   1.000  O
  O29      1.0000 0.12690  0.88380  0.96840  Biso   1.000  O
  O30      1.0000 0.87310  0.11620  0.46840  Biso   1.000  O
  O31      1.0000 0.62690  0.11620  0.96840  Biso   1.000  O
  O32      1.0000 0.37310  0.88380  0.46840  Biso   1.000  O
  O33      1.0000 0.02020  0.89420  0.07830  Biso   1.000  O
  O34      1.0000 0.97980  0.10580  0.57830  Biso   1.000  O
  O35      1.0000 0.52020  0.10580  0.07830  Biso   1.000  O
  O36      1.0000 0.47980  0.89420  0.57830  Biso   1.000  O
  O37      1.0000 0.13960  0.82510  0.13150  Biso   1.000  O
  O38      1.0000 0.86040  0.17490  0.63150  Biso   1.000  O
  O39      1.0000 0.63960  0.17490  0.13150  Biso   1.000  O
  O40      1.0000 0.36040  0.82510  0.63150  Biso   1.000  O
  N1       1.0000 0.99580  0.15780  0.01820  Biso   1.000  N
  N2       1.0000 0.00420  0.84220  0.51820  Biso   1.000  N
  N3       1.0000 0.49580  0.84220  0.01820  Biso   1.000  N
  N4       1.0000 0.50420  0.15780  0.51820  Biso   1.000  N
  N5       1.0000 0.13100  0.10960  0.88070  Biso   1.000  N
  N6       1.0000 0.86900  0.89040  0.38070  Biso   1.000  N
  N7       1.0000 0.63100  0.89040  0.88070  Biso   1.000  N
  N8       1.0000 0.36900  0.10960  0.38070  Biso   1.000  N
  N9       1.0000 0.23410  0.18580  0.99730  Biso   1.000  N
  N10      1.0000 0.76590  0.81420  0.49730  Biso   1.000  N
  N11      1.0000 0.73410  0.81420  0.99730  Biso   1.000  N
  N12      1.0000 0.26590  0.18580  0.49730  Biso   1.000  N
  N13      1.0000 0.36870  0.41230  0.06960  Biso   1.000  N
  N14      1.0000 0.63130  0.58770  0.56960  Biso   1.000  N
  N15      1.0000 0.86870  0.58770  0.06960  Biso   1.000  N
  N16      1.0000 0.13130  0.41230  0.56960  Biso   1.000  N
  N17      1.0000 0.22520  0.49900  0.15420  Biso   1.000  N
  N18      1.0000 0.77480  0.50100  0.65420  Biso   1.000  N
  N19      1.0000 0.72520  0.50100  0.15420  Biso   1.000  N
  N20      1.0000 0.27480  0.49900  0.65420  Biso   1.000  N
  N21      1.0000 0.14790  0.33020  0.15180  Biso   1.000  N
  N22      1.0000 0.85210  0.66980  0.65180  Biso   1.000  N
  N23      1.0000 0.64790  0.66980  0.15180  Biso   1.000  N
  N24      1.0000 0.35210  0.33020  0.65180  Biso   1.000  N
  C1       1.0000 0.97000  0.14800  0.12700  Biso   1.000  C
  C2       1.0000 0.03000  0.85200  0.62700  Biso   1.000  C
  C3       1.0000 0.47000  0.85200  0.12700  Biso   1.000  C
  C4       1.0000 0.53000  0.14800  0.62700  Biso   1.000  C
  H1       1.0000 0.01000  0.14400  0.17900  Biso   1.000  H
  H2       1.0000 0.99000  0.85600  0.67900  Biso   1.000  H
  H3       1.0000 0.51000  0.85600  0.17900  Biso   1.000  H
  H4       1.0000 0.49000  0.14400  0.67900  Biso   1.000  H
  C5       1.0000 0.88300  0.14500  0.15000  Biso   1.000  C
  C6       1.0000 0.11700  0.85500  0.65000  Biso   1.000  C
  C7       1.0000 0.38300  0.85500  0.15000  Biso   1.000  C
  C8       1.0000 0.61700  0.14500  0.65000  Biso   1.000  C
  H5       1.0000 0.85800  0.15100  0.21500  Biso   1.000  H
  H6       1.0000 0.14200  0.84900  0.71500  Biso   1.000  H
  H7       1.0000 0.35800  0.84900  0.21500  Biso   1.000  H
  H8       1.0000 0.64200  0.15100  0.71500  Biso   1.000  H
  C9       1.0000 0.84000  0.13700  0.06000  Biso   1.000  C
  C10      1.0000 0.16000  0.86300  0.56000  Biso   1.000  C
  C11      1.0000 0.34000  0.86300  0.06000  Biso   1.000  C
  C12      1.0000 0.66000  0.13700  0.56000  Biso   1.000  C
  H9       1.0000 0.78400  0.12100  0.06900  Biso   1.000  H
  H10      1.0000 0.21600  0.87900  0.56900  Biso   1.000  H
  H11      1.0000 0.28400  0.87900  0.06900  Biso   1.000  H
  H12      1.0000 0.71600  0.12100  0.56900  Biso   1.000  H
  C13      1.0000 0.85700  0.14200  0.95900  Biso   1.000  C
  C14      1.0000 0.14300  0.85800  0.45900  Biso   1.000  C
  C15      1.0000 0.35700  0.85800  0.95900  Biso   1.000  C
  C16      1.0000 0.64300  0.14200  0.45900  Biso   1.000  C
  H13      1.0000 0.82100  0.14100  0.90300  Biso   1.000  H
  H14      1.0000 0.17900  0.85900  0.40300  Biso   1.000  H
  H15      1.0000 0.32100  0.85900  0.90300  Biso   1.000  H
  H16      1.0000 0.67900  0.14100  0.40300  Biso   1.000  H
  C17      1.0000 0.94900  0.15300  0.95900  Biso   1.000  C
  C18      1.0000 0.05100  0.84700  0.45900  Biso   1.000  C
  C19      1.0000 0.44900  0.84700  0.95900  Biso   1.000  C
  C20      1.0000 0.55100  0.15300  0.45900  Biso   1.000  C
  C21      1.0000 0.98450  0.15500  0.85300  Biso   1.000  C
  C22      1.0000 0.01550  0.84500  0.35300  Biso   1.000  C
  C23      1.0000 0.48450  0.84500  0.85300  Biso   1.000  C
  C24      1.0000 0.51550  0.15500  0.35300  Biso   1.000  C
  H17      1.0000 0.99900  0.22500  0.83900  Biso   1.000  H
  H18      1.0000 0.00100  0.77500  0.33900  Biso   1.000  H
  H19      1.0000 0.49900  0.77500  0.83900  Biso   1.000  H
  H20      1.0000 0.50100  0.22500  0.33900  Biso   1.000  H
  H21      1.0000 0.94290  0.13700  0.80700  Biso   1.000  H
  H22      1.0000 0.05710  0.86300  0.30700  Biso   1.000  H
  H23      1.0000 0.44290  0.86300  0.80700  Biso   1.000  H
  H24      1.0000 0.55710  0.13700  0.30700  Biso   1.000  H
  C25      1.0000 0.06210  0.08470  0.82130  Biso   1.000  C
  C26      1.0000 0.93790  0.91530  0.32130  Biso   1.000  C
  C27      1.0000 0.56210  0.91530  0.82130  Biso   1.000  C
  C28      1.0000 0.43790  0.08470  0.32130  Biso   1.000  C
  H25      1.0000 0.04810  0.01460  0.83200  Biso   1.000  H
  H26      1.0000 0.95190  0.98540  0.33200  Biso   1.000  H
  H27      1.0000 0.54810  0.98540  0.83200  Biso   1.000  H
  H28      1.0000 0.45190  0.01460  0.33200  Biso   1.000  H
  H29      1.0000 0.07490  0.09260  0.75200  Biso   1.000  H
  H30      1.0000 0.92510  0.90740  0.25200  Biso   1.000  H
  H31      1.0000 0.57490  0.90740  0.75200  Biso   1.000  H
  H32      1.0000 0.42510  0.09260  0.25200  Biso   1.000  H
  C29      1.0000 0.20180  0.09830  0.85070  Biso   1.000  C
  C30      1.0000 0.79820  0.90170  0.35070  Biso   1.000  C
  C31      1.0000 0.70180  0.90170  0.85070  Biso   1.000  C
  C32      1.0000 0.29820  0.09830  0.35070  Biso   1.000  C
  C33      1.0000 0.26500  0.14140  0.92280  Biso   1.000  C
  C34      1.0000 0.73500  0.85860  0.42280  Biso   1.000  C
  C35      1.0000 0.76500  0.85860  0.92280  Biso   1.000  C
  C36      1.0000 0.23500  0.14140  0.42280  Biso   1.000  C
  C37      1.0000 0.22720  0.06310  0.75210  Biso   1.000  C
  C38      1.0000 0.77280  0.93690  0.25210  Biso   1.000  C
  C39      1.0000 0.72720  0.93690  0.75210  Biso   1.000  C
  C40      1.0000 0.27280  0.06310  0.25210  Biso   1.000  C
  H33      1.0000 0.18150  0.03980  0.71480  Biso   1.000  H
  H34      1.0000 0.81850  0.96020  0.21480  Biso   1.000  H
  H35      1.0000 0.68150  0.96020  0.71480  Biso   1.000  H
  H36      1.0000 0.31850  0.03980  0.21480  Biso   1.000  H
  H37      1.0000 0.25380  0.11640  0.71600  Biso   1.000  H
  H38      1.0000 0.74620  0.88360  0.21600  Biso   1.000  H
  H39      1.0000 0.75380  0.88360  0.71600  Biso   1.000  H
  H40      1.0000 0.24620  0.11640  0.21600  Biso   1.000  H
  H41      1.0000 0.26380  0.00770  0.76230  Biso   1.000  H
  H42      1.0000 0.73620  0.99230  0.26230  Biso   1.000  H
  H43      1.0000 0.76380  0.99230  0.76230  Biso   1.000  H
  H44      1.0000 0.23620  0.00770  0.26230  Biso   1.000  H
  C41      1.0000 0.34900  0.13370  0.90580  Biso   1.000  C
  C42      1.0000 0.65100  0.86630  0.40580  Biso   1.000  C
  C43      1.0000 0.84900  0.86630  0.90580  Biso   1.000  C
  C44      1.0000 0.15100  0.13370  0.40580  Biso   1.000  C
  H45      1.0000 0.37770  0.16420  0.96020  Biso   1.000  H
  H46      1.0000 0.62230  0.83580  0.46020  Biso   1.000  H
  H47      1.0000 0.87770  0.83580  0.96020  Biso   1.000  H
  H48      1.0000 0.12230  0.16420  0.46020  Biso   1.000  H
  H49      1.0000 0.36450  0.06360  0.89960  Biso   1.000  H
  H50      1.0000 0.63550  0.93640  0.39960  Biso   1.000  H
  H51      1.0000 0.86450  0.93640  0.89960  Biso   1.000  H
  H52      1.0000 0.13550  0.06360  0.39960  Biso   1.000  H
  H53      1.0000 0.36160  0.16920  0.84530  Biso   1.000  H
  H54      1.0000 0.63840  0.83080  0.34530  Biso   1.000  H
  H55      1.0000 0.86160  0.83080  0.84530  Biso   1.000  H
  H56      1.0000 0.13840  0.16920  0.34530  Biso   1.000  H
  C45      1.0000 0.42960  0.34740  0.07720  Biso   1.000  C
  C46      1.0000 0.57040  0.65260  0.57720  Biso   1.000  C
  C47      1.0000 0.92960  0.65260  0.07720  Biso   1.000  C
  C48      1.0000 0.07040  0.34740  0.57720  Biso   1.000  C
  H57      1.0000 0.41670  0.27950  0.09810  Biso   1.000  H
  H58      1.0000 0.58330  0.72050  0.59810  Biso   1.000  H
  H59      1.0000 0.91670  0.72050  0.09810  Biso   1.000  H
  H60      1.0000 0.08330  0.27950  0.59810  Biso   1.000  H
  C49      1.0000 0.50690  0.36790  0.05650  Biso   1.000  C
  C50      1.0000 0.49310  0.63210  0.55650  Biso   1.000  C
  C51      1.0000 0.00690  0.63210  0.05650  Biso   1.000  C
  C52      1.0000 0.99310  0.36790  0.55650  Biso   1.000  C
  H61      1.0000 0.54760  0.31630  0.06010  Biso   1.000  H
  H62      1.0000 0.45240  0.68370  0.56010  Biso   1.000  H
  H63      1.0000 0.04760  0.68370  0.06010  Biso   1.000  H
  H64      1.0000 0.95240  0.31630  0.56010  Biso   1.000  H
  C53      1.0000 0.52740  0.46540  0.03070  Biso   1.000  C
  C54      1.0000 0.47260  0.53460  0.53070  Biso   1.000  C
  C55      1.0000 0.02740  0.53460  0.03070  Biso   1.000  C
  C56      1.0000 0.97260  0.46540  0.53070  Biso   1.000  C
  H65      1.0000 0.58140  0.48290  0.01240  Biso   1.000  H
  H66      1.0000 0.41860  0.51710  0.51240  Biso   1.000  H
  H67      1.0000 0.08140  0.51710  0.01240  Biso   1.000  H
  H68      1.0000 0.91860  0.48290  0.51240  Biso   1.000  H
  C57      1.0000 0.46570  0.53900  0.02950  Biso   1.000  C
  C58      1.0000 0.53430  0.46100  0.52950  Biso   1.000  C
  C59      1.0000 0.96570  0.46100  0.02950  Biso   1.000  C
  C60      1.0000 0.03430  0.53900  0.52950  Biso   1.000  C
  H69      1.0000 0.47810  0.60930  0.01770  Biso   1.000  H
  H70      1.0000 0.52190  0.39070  0.51770  Biso   1.000  H
  H71      1.0000 0.97810  0.39070  0.01770  Biso   1.000  H
  H72      1.0000 0.02190  0.60930  0.51770  Biso   1.000  H
  C61      1.0000 0.38730  0.50960  0.04660  Biso   1.000  C
  C62      1.0000 0.61270  0.49040  0.54660  Biso   1.000  C
  C63      1.0000 0.88730  0.49040  0.04660  Biso   1.000  C
  C64      1.0000 0.11270  0.50960  0.54660  Biso   1.000  C
  C65      1.0000 0.32020  0.58670  0.04410  Biso   1.000  C
  C66      1.0000 0.67980  0.41330  0.54410  Biso   1.000  C
  C67      1.0000 0.82020  0.41330  0.04410  Biso   1.000  C
  C68      1.0000 0.17980  0.58670  0.54410  Biso   1.000  C
  H73      1.0000 0.28520  0.57000  0.98970  Biso   1.000  H
  H74      1.0000 0.71480  0.43000  0.48970  Biso   1.000  H
  H75      1.0000 0.78520  0.43000  0.98970  Biso   1.000  H
  H76      1.0000 0.21480  0.57000  0.48970  Biso   1.000  H
  H77      1.0000 0.34270  0.65260  0.03080  Biso   1.000  H
  H78      1.0000 0.65730  0.34740  0.53080  Biso   1.000  H
  H79      1.0000 0.84270  0.34740  0.03080  Biso   1.000  H
  H80      1.0000 0.15730  0.65260  0.53080  Biso   1.000  H
  C69      1.0000 0.26850  0.59290  0.14110  Biso   1.000  C
  C70      1.0000 0.73150  0.40710  0.64110  Biso   1.000  C
  C71      1.0000 0.76850  0.40710  0.14110  Biso   1.000  C
  C72      1.0000 0.23150  0.59290  0.64110  Biso   1.000  C
  H81      1.0000 0.30300  0.60340  0.19760  Biso   1.000  H
  H82      1.0000 0.69700  0.39660  0.69760  Biso   1.000  H
  H83      1.0000 0.80300  0.39660  0.19760  Biso   1.000  H
  H84      1.0000 0.19700  0.60340  0.69760  Biso   1.000  H
  H85      1.0000 0.23170  0.64900  0.13700  Biso   1.000  H
  H86      1.0000 0.76830  0.35100  0.63700  Biso   1.000  H
  H87      1.0000 0.73170  0.35100  0.13700  Biso   1.000  H
  H88      1.0000 0.26830  0.64900  0.63700  Biso   1.000  H
  C73      1.0000 0.16330  0.49050  0.21260  Biso   1.000  C
  C74      1.0000 0.83670  0.50950  0.71260  Biso   1.000  C
  C75      1.0000 0.66330  0.50950  0.21260  Biso   1.000  C
  C76      1.0000 0.33670  0.49050  0.71260  Biso   1.000  C
  C77      1.0000 0.11880  0.39540  0.21220  Biso   1.000  C
  C78      1.0000 0.88120  0.60460  0.71220  Biso   1.000  C
  C79      1.0000 0.61880  0.60460  0.21220  Biso   1.000  C
  C80      1.0000 0.38120  0.39540  0.71220  Biso   1.000  C
  C81      1.0000 0.13070  0.58560  0.27000  Biso   1.000  C
  C82      1.0000 0.86930  0.41440  0.77000  Biso   1.000  C
  C83      1.0000 0.63070  0.41440  0.27000  Biso   1.000  C
  C84      1.0000 0.36930  0.58560  0.77000  Biso   1.000  C
  H89      1.0000 0.16790  0.64110  0.26260  Biso   1.000  H
  H90      1.0000 0.83210  0.35890  0.76260  Biso   1.000  H
  H91      1.0000 0.66790  0.35890  0.26260  Biso   1.000  H
  H92      1.0000 0.33210  0.64110  0.76260  Biso   1.000  H
  H93      1.0000 0.07910  0.60540  0.24440  Biso   1.000  H
  H94      1.0000 0.92090  0.39460  0.74440  Biso   1.000  H
  H95      1.0000 0.57910  0.39460  0.24440  Biso   1.000  H
  H96      1.0000 0.42090  0.60540  0.74440  Biso   1.000  H
  H97      1.0000 0.12580  0.56840  0.33920  Biso   1.000  H
  H98      1.0000 0.87420  0.43160  0.83920  Biso   1.000  H
  H99      1.0000 0.62580  0.43160  0.33920  Biso   1.000  H
  H100     1.0000 0.37420  0.56840  0.83920  Biso   1.000  H
  C85      1.0000 0.04770  0.37510  0.27500  Biso   1.000  C
  C86      1.0000 0.95230  0.62490  0.77500  Biso   1.000  C
  C87      1.0000 0.54770  0.62490  0.27500  Biso   1.000  C
  C88      1.0000 0.45230  0.37510  0.77500  Biso   1.000  C
  H101     1.0000 0.02830  0.30790  0.26020  Biso   1.000  H
  H102     1.0000 0.97170  0.69210  0.76020  Biso   1.000  H
  H103     1.0000 0.52830  0.69210  0.26020  Biso   1.000  H
  H104     1.0000 0.47170  0.30790  0.76020  Biso   1.000  H
  H105     1.0000 0.06310  0.37870  0.34380  Biso   1.000  H
  H106     1.0000 0.93690  0.62130  0.84380  Biso   1.000  H
  H107     1.0000 0.56310  0.62130  0.34380  Biso   1.000  H
  H108     1.0000 0.43690  0.37870  0.84380  Biso   1.000  H
  H109     1.0000 0.00600  0.42380  0.26200  Biso   1.000  H
  H110     1.0000 0.99400  0.57620  0.76200  Biso   1.000  H
  H111     1.0000 0.50600  0.57620  0.26200  Biso   1.000  H
  H112     1.0000 0.49400  0.42380  0.76200  Biso   1.000  H
  C89      1.0000 0.95410  0.14800  0.08100  Biso   1.000  C
  C90      1.0000 0.04590  0.85200  0.58100  Biso   1.000  C
  C91      1.0000 0.45410  0.85200  0.08100  Biso   1.000  C
  C92      1.0000 0.54590  0.14800  0.58100  Biso   1.000  C
  H113     1.0000 0.98210  0.15100  0.14400  Biso   1.000  H
  H114     1.0000 0.01790  0.84900  0.64400  Biso   1.000  H
  H115     1.0000 0.48210  0.84900  0.14400  Biso   1.000  H
  H116     1.0000 0.51790  0.15100  0.64400  Biso   1.000  H
  C93      1.0000 0.87400  0.13800  0.09200  Biso   1.000  C
  C94      1.0000 0.12600  0.86200  0.59200  Biso   1.000  C
  C95      1.0000 0.37400  0.86200  0.09200  Biso   1.000  C
  C96      1.0000 0.62600  0.13800  0.59200  Biso   1.000  C
  H117     1.0000 0.84500  0.13400  0.15400  Biso   1.000  H
  H118     1.0000 0.15500  0.86600  0.65400  Biso   1.000  H
  H119     1.0000 0.34500  0.86600  0.15400  Biso   1.000  H
  H120     1.0000 0.65500  0.13400  0.65400  Biso   1.000  H
  C97      1.0000 0.83800  0.13300  0.00800  Biso   1.000  C
  C98      1.0000 0.16200  0.86700  0.50800  Biso   1.000  C
  C99      1.0000 0.33800  0.86700  0.00800  Biso   1.000  C
  C100     1.0000 0.66200  0.13300  0.50800  Biso   1.000  C
  H121     1.0000 0.78100  0.12100  0.01300  Biso   1.000  H
  H122     1.0000 0.21900  0.87900  0.51300  Biso   1.000  H
  H123     1.0000 0.28100  0.87900  0.01300  Biso   1.000  H
  H124     1.0000 0.71900  0.12100  0.51300  Biso   1.000  H
  C101     1.0000 0.87200  0.14700  0.89700  Biso   1.000  C
  C102     1.0000 0.12800  0.85300  0.39700  Biso   1.000  C
  C103     1.0000 0.37200  0.85300  0.89700  Biso   1.000  C
  C104     1.0000 0.62800  0.14700  0.39700  Biso   1.000  C
  H125     1.0000 0.84100  0.15000  0.83700  Biso   1.000  H
  H126     1.0000 0.15900  0.85000  0.33700  Biso   1.000  H
  H127     1.0000 0.34100  0.85000  0.83700  Biso   1.000  H
  H128     1.0000 0.65900  0.15000  0.33700  Biso   1.000  H
  C105     1.0000 0.95800  0.15200  0.90900  Biso   1.000  C
  C106     1.0000 0.04200  0.84800  0.40900  Biso   1.000  C
  C107     1.0000 0.45800  0.84800  0.90900  Biso   1.000  C
  C108     1.0000 0.54200  0.15200  0.40900  Biso   1.000  C
  C109     1.0000 0.00500  0.16900  0.81200  Biso   1.000  C
  C110     1.0000 0.99500  0.83100  0.31200  Biso   1.000  C
  C111     1.0000 0.50500  0.83100  0.81200  Biso   1.000  C
  C112     1.0000 0.49500  0.16900  0.31200  Biso   1.000  C
  H129     1.0000 0.03200  0.23300  0.81600  Biso   1.000  H
  H130     1.0000 0.96800  0.76700  0.31600  Biso   1.000  H
  H131     1.0000 0.53200  0.76700  0.81600  Biso   1.000  H
  H132     1.0000 0.46800  0.23300  0.31600  Biso   1.000  H
  H133     1.0000 0.97200  0.16700  0.75300  Biso   1.000  H
  H134     1.0000 0.02800  0.83300  0.25300  Biso   1.000  H
  H135     1.0000 0.47200  0.83300  0.75300  Biso   1.000  H
  H136     1.0000 0.52800  0.16700  0.25300  Biso   1.000  H
  H137     1.0000 0.03360  0.02960  0.85230  Biso   1.000  H
  H138     1.0000 0.96640  0.97040  0.35230  Biso   1.000  H
  H139     1.0000 0.53360  0.97040  0.85230  Biso   1.000  H
  H140     1.0000 0.46640  0.02960  0.35230  Biso   1.000  H
  H141     1.0000 0.07820  0.06280  0.75610  Biso   1.000  H
  H142     1.0000 0.92180  0.93720  0.25610  Biso   1.000  H
  H143     1.0000 0.57820  0.93720  0.75610  Biso   1.000  H
  H144     1.0000 0.42180  0.06280  0.25610  Biso   1.000  H
