data_image0
_cell_length_a       30.399
_cell_length_b       9.695
_cell_length_c       24.918
_cell_angle_alpha    90
_cell_angle_beta     125.895
_cell_angle_gamma    90

_symmetry_space_group_name_H-M    "P 1"
_symmetry_int_tables_number       1

loop_
  _symmetry_equiv_pos_as_xyz
  'x, y, z'

loop_
  _atom_site_label
  _atom_site_occupancy
  _atom_site_fract_x
  _atom_site_fract_y
  _atom_site_fract_z
  _atom_site_thermal_displace_type
  _atom_site_B_iso_or_equiv
  _atom_site_type_symbol
  Cu1      1.0000 0.75000  0.75000  0.50000  Biso   1.000  Cu
  Cu2      1.0000 0.25000  0.25000  0.50000  Biso   1.000  Cu
  Cu3      1.0000 0.25000  0.75000  0.00000  Biso   1.000  Cu
  Cu4      1.0000 0.75000  0.25000  0.00000  Biso   1.000  Cu
  O1       1.0000 0.81861  0.63770  0.58559  Biso   1.000  O
  O2       1.0000 0.31861  0.13770  0.58559  Biso   1.000  O
  O3       1.0000 0.18139  0.63770  0.91441  Biso   1.000  O
  O4       1.0000 0.68139  0.13770  0.91441  Biso   1.000  O
  O5       1.0000 0.18139  0.36230  0.41441  Biso   1.000  O
  O6       1.0000 0.68139  0.86230  0.41441  Biso   1.000  O
  O7       1.0000 0.81861  0.36230  0.08559  Biso   1.000  O
  O8       1.0000 0.31861  0.86230  0.08559  Biso   1.000  O
  C1       1.0000 0.87130  0.44840  0.64410  Biso   1.000  C
  C2       1.0000 0.37130  0.94840  0.64410  Biso   1.000  C
  C3       1.0000 0.12870  0.44840  0.85590  Biso   1.000  C
  C4       1.0000 0.62870  0.94840  0.85590  Biso   1.000  C
  C5       1.0000 0.12870  0.55160  0.35590  Biso   1.000  C
  C6       1.0000 0.62870  0.05160  0.35590  Biso   1.000  C
  C7       1.0000 0.87130  0.55160  0.14410  Biso   1.000  C
  C8       1.0000 0.37130  0.05160  0.14410  Biso   1.000  C
  F1       1.0000 0.86907  0.31940  0.65870  Biso   1.000  F
  F2       1.0000 0.36907  0.81940  0.65870  Biso   1.000  F
  F3       1.0000 0.13093  0.31940  0.84130  Biso   1.000  F
  F4       1.0000 0.63093  0.81940  0.84130  Biso   1.000  F
  F5       1.0000 0.13093  0.68060  0.34130  Biso   1.000  F
  F6       1.0000 0.63093  0.18060  0.34130  Biso   1.000  F
  F7       1.0000 0.86907  0.68060  0.15870  Biso   1.000  F
  F8       1.0000 0.36907  0.18060  0.15870  Biso   1.000  F
  F9       1.0000 0.90010  0.51830  0.69960  Biso   1.000  F
  F10      1.0000 0.40010  0.01830  0.69960  Biso   1.000  F
  F11      1.0000 0.09990  0.51830  0.80040  Biso   1.000  F
  F12      1.0000 0.59990  0.01830  0.80040  Biso   1.000  F
  F13      1.0000 0.09990  0.48170  0.30040  Biso   1.000  F
  F14      1.0000 0.59990  0.98170  0.30040  Biso   1.000  F
  F15      1.0000 0.90010  0.48170  0.19960  Biso   1.000  F
  F16      1.0000 0.40010  0.98170  0.19960  Biso   1.000  F
  F17      1.0000 0.89980  0.44690  0.61910  Biso   1.000  F
  F18      1.0000 0.39980  0.94690  0.61910  Biso   1.000  F
  F19      1.0000 0.10020  0.44690  0.88090  Biso   1.000  F
  F20      1.0000 0.60020  0.94690  0.88090  Biso   1.000  F
  F21      1.0000 0.10020  0.55310  0.38090  Biso   1.000  F
  F22      1.0000 0.60020  0.05310  0.38090  Biso   1.000  F
  F23      1.0000 0.89980  0.55310  0.11910  Biso   1.000  F
  F24      1.0000 0.39980  0.05310  0.11910  Biso   1.000  F
  C9       1.0000 0.81650  0.51400  0.59580  Biso   1.000  C
  C10      1.0000 0.31650  0.01400  0.59580  Biso   1.000  C
  C11      1.0000 0.18350  0.51400  0.90420  Biso   1.000  C
  C12      1.0000 0.68350  0.01400  0.90420  Biso   1.000  C
  C13      1.0000 0.18350  0.48600  0.40420  Biso   1.000  C
  C14      1.0000 0.68350  0.98600  0.40420  Biso   1.000  C
  C15      1.0000 0.81650  0.48600  0.09580  Biso   1.000  C
  C16      1.0000 0.31650  0.98600  0.09580  Biso   1.000  C
  C17      1.0000 0.77000  0.43620  0.56930  Biso   1.000  C
  C18      1.0000 0.27000  0.93620  0.56930  Biso   1.000  C
  C19      1.0000 0.23000  0.43620  0.93070  Biso   1.000  C
  C20      1.0000 0.73000  0.93620  0.93070  Biso   1.000  C
  C21      1.0000 0.23000  0.56380  0.43070  Biso   1.000  C
  C22      1.0000 0.73000  0.06380  0.43070  Biso   1.000  C
  C23      1.0000 0.77000  0.56380  0.06930  Biso   1.000  C
  C24      1.0000 0.27000  0.06380  0.06930  Biso   1.000  C
  H1       1.0000 0.77400  0.34700  0.57900  Biso   1.000  H
  H2       1.0000 0.27400  0.84700  0.57900  Biso   1.000  H
  H3       1.0000 0.22600  0.34700  0.92100  Biso   1.000  H
  H4       1.0000 0.72600  0.84700  0.92100  Biso   1.000  H
  H5       1.0000 0.22600  0.65300  0.42100  Biso   1.000  H
  H6       1.0000 0.72600  0.15300  0.42100  Biso   1.000  H
  H7       1.0000 0.77400  0.65300  0.07900  Biso   1.000  H
  H8       1.0000 0.27400  0.15300  0.07900  Biso   1.000  H
  C25      1.0000 0.71810  0.48260  0.52280  Biso   1.000  C
  C26      1.0000 0.21810  0.98260  0.52280  Biso   1.000  C
  C27      1.0000 0.28190  0.48260  0.97720  Biso   1.000  C
  C28      1.0000 0.78190  0.98260  0.97720  Biso   1.000  C
  C29      1.0000 0.28190  0.51740  0.47720  Biso   1.000  C
  C30      1.0000 0.78190  0.01740  0.47720  Biso   1.000  C
  C31      1.0000 0.71810  0.51740  0.02280  Biso   1.000  C
  C32      1.0000 0.21810  0.01740  0.02280  Biso   1.000  C
  C33      1.0000 0.67050  0.38790  0.50080  Biso   1.000  C
  C34      1.0000 0.17050  0.88790  0.50080  Biso   1.000  C
  C35      1.0000 0.32950  0.38790  0.99920  Biso   1.000  C
  C36      1.0000 0.82950  0.88790  0.99920  Biso   1.000  C
  C37      1.0000 0.32950  0.61210  0.49920  Biso   1.000  C
  C38      1.0000 0.82950  0.11210  0.49920  Biso   1.000  C
  C39      1.0000 0.67050  0.61210  0.00080  Biso   1.000  C
  C40      1.0000 0.17050  0.11210  0.00080  Biso   1.000  C
  F25      1.0000 0.62950  0.40420  0.43920  Biso   1.000  F
  F26      1.0000 0.12950  0.90420  0.43920  Biso   1.000  F
  F27      1.0000 0.37050  0.40420  0.06080  Biso   1.000  F
  F28      1.0000 0.87050  0.90420  0.06080  Biso   1.000  F
  F29      1.0000 0.37050  0.59580  0.56080  Biso   1.000  F
  F30      1.0000 0.87050  0.09580  0.56080  Biso   1.000  F
  F31      1.0000 0.62950  0.59580  0.93920  Biso   1.000  F
  F32      1.0000 0.12950  0.09580  0.93920  Biso   1.000  F
  F33      1.0000 0.66000  0.39430  0.54720  Biso   1.000  F
  F34      1.0000 0.16000  0.89430  0.54720  Biso   1.000  F
  F35      1.0000 0.34000  0.39430  0.95280  Biso   1.000  F
  F36      1.0000 0.84000  0.89430  0.95280  Biso   1.000  F
  F37      1.0000 0.34000  0.60570  0.45280  Biso   1.000  F
  F38      1.0000 0.84000  0.10570  0.45280  Biso   1.000  F
  F39      1.0000 0.66000  0.60570  0.04720  Biso   1.000  F
  F40      1.0000 0.16000  0.10570  0.04720  Biso   1.000  F
  F41      1.0000 0.68260  0.25310  0.50480  Biso   1.000  F
  F42      1.0000 0.18260  0.75310  0.50480  Biso   1.000  F
  F43      1.0000 0.31740  0.25310  0.99520  Biso   1.000  F
  F44      1.0000 0.81740  0.75310  0.99520  Biso   1.000  F
  F45      1.0000 0.31740  0.74690  0.49520  Biso   1.000  F
  F46      1.0000 0.81740  0.24690  0.49520  Biso   1.000  F
  F47      1.0000 0.68260  0.74690  0.00480  Biso   1.000  F
  F48      1.0000 0.18260  0.24690  0.00480  Biso   1.000  F
  O9       1.0000 0.70341  0.59890  0.49694  Biso   1.000  O
  O10      1.0000 0.20341  0.09890  0.49694  Biso   1.000  O
  O11      1.0000 0.29659  0.59890  0.00306  Biso   1.000  O
  O12      1.0000 0.79659  0.09890  0.00306  Biso   1.000  O
  O13      1.0000 0.29659  0.40110  0.50306  Biso   1.000  O
  O14      1.0000 0.79659  0.90110  0.50306  Biso   1.000  O
  O15      1.0000 0.70341  0.40110  0.99694  Biso   1.000  O
  O16      1.0000 0.20341  0.90110  0.99694  Biso   1.000  O
  Cu5      1.0000 0.00000  0.00000  0.50000  Biso   1.000  Cu
  Cu6      1.0000 0.50000  0.50000  0.50000  Biso   1.000  Cu
  Cu7      1.0000 0.00000  0.00000  0.00000  Biso   1.000  Cu
  Cu8      1.0000 0.50000  0.50000  0.00000  Biso   1.000  Cu
  O17      1.0000 0.95013  0.15700  0.45385  Biso   1.000  O
  O18      1.0000 0.45013  0.65700  0.45385  Biso   1.000  O
  O19      1.0000 0.04987  0.15700  0.04615  Biso   1.000  O
  O20      1.0000 0.54987  0.65700  0.04615  Biso   1.000  O
  O21      1.0000 0.04987  0.84300  0.54615  Biso   1.000  O
  O22      1.0000 0.54987  0.34300  0.54615  Biso   1.000  O
  O23      1.0000 0.95013  0.84300  0.95385  Biso   1.000  O
  O24      1.0000 0.45013  0.34300  0.95385  Biso   1.000  O
  C41      1.0000 0.91760  0.38120  0.43820  Biso   1.000  C
  C42      1.0000 0.41760  0.88120  0.43820  Biso   1.000  C
  C43      1.0000 0.08240  0.38120  0.06180  Biso   1.000  C
  C44      1.0000 0.58240  0.88120  0.06180  Biso   1.000  C
  C45      1.0000 0.08240  0.61880  0.56180  Biso   1.000  C
  C46      1.0000 0.58240  0.11880  0.56180  Biso   1.000  C
  C47      1.0000 0.91760  0.61880  0.93820  Biso   1.000  C
  C48      1.0000 0.41760  0.11880  0.93820  Biso   1.000  C
  F49      1.0000 0.92900  0.40050  0.38670  Biso   1.000  F
  F50      1.0000 0.42900  0.90050  0.38670  Biso   1.000  F
  F51      1.0000 0.07100  0.40050  0.11330  Biso   1.000  F
  F52      1.0000 0.57100  0.90050  0.11330  Biso   1.000  F
  F53      1.0000 0.07100  0.59950  0.61330  Biso   1.000  F
  F54      1.0000 0.57100  0.09950  0.61330  Biso   1.000  F
  F55      1.0000 0.92900  0.59950  0.88670  Biso   1.000  F
  F56      1.0000 0.42900  0.09950  0.88670  Biso   1.000  F
  F57      1.0000 0.86850  0.38200  0.41700  Biso   1.000  F
  F58      1.0000 0.36850  0.88200  0.41700  Biso   1.000  F
  F59      1.0000 0.13150  0.38200  0.08300  Biso   1.000  F
  F60      1.0000 0.63150  0.88200  0.08300  Biso   1.000  F
  F61      1.0000 0.13150  0.61800  0.58300  Biso   1.000  F
  F62      1.0000 0.63150  0.11800  0.58300  Biso   1.000  F
  F63      1.0000 0.86850  0.61800  0.91700  Biso   1.000  F
  F64      1.0000 0.36850  0.11800  0.91700  Biso   1.000  F
  F65      1.0000 0.93590  0.50730  0.46430  Biso   1.000  F
  F66      1.0000 0.43590  0.00730  0.46430  Biso   1.000  F
  F67      1.0000 0.06410  0.50730  0.03570  Biso   1.000  F
  F68      1.0000 0.56410  0.00730  0.03570  Biso   1.000  F
  F69      1.0000 0.06410  0.49270  0.53570  Biso   1.000  F
  F70      1.0000 0.56410  0.99270  0.53570  Biso   1.000  F
  F71      1.0000 0.93590  0.49270  0.96430  Biso   1.000  F
  F72      1.0000 0.43590  0.99270  0.96430  Biso   1.000  F
  C49      1.0000 0.95160  0.26330  0.48300  Biso   1.000  C
  C50      1.0000 0.45160  0.76330  0.48300  Biso   1.000  C
  C51      1.0000 0.04840  0.26330  0.01700  Biso   1.000  C
  C52      1.0000 0.54840  0.76330  0.01700  Biso   1.000  C
  C53      1.0000 0.04840  0.73670  0.51700  Biso   1.000  C
  C54      1.0000 0.54840  0.23670  0.51700  Biso   1.000  C
  C55      1.0000 0.95160  0.73670  0.98300  Biso   1.000  C
  C56      1.0000 0.45160  0.23670  0.98300  Biso   1.000  C
  C57      1.0000 0.97980  0.28430  0.55090  Biso   1.000  C
  C58      1.0000 0.47980  0.78430  0.55090  Biso   1.000  C
  C59      1.0000 0.02020  0.28430  0.94910  Biso   1.000  C
  C60      1.0000 0.52020  0.78430  0.94910  Biso   1.000  C
  C61      1.0000 0.02020  0.71570  0.44910  Biso   1.000  C
  C62      1.0000 0.52020  0.21570  0.44910  Biso   1.000  C
  C63      1.0000 0.97980  0.71570  0.05090  Biso   1.000  C
  C64      1.0000 0.47980  0.21570  0.05090  Biso   1.000  C
  H9       1.0000 0.97900  0.36100  0.56500  Biso   1.000  H
  H10      1.0000 0.47900  0.86100  0.56500  Biso   1.000  H
  H11      1.0000 0.02100  0.36100  0.93500  Biso   1.000  H
  H12      1.0000 0.52100  0.86100  0.93500  Biso   1.000  H
  H13      1.0000 0.02100  0.63900  0.43500  Biso   1.000  H
  H14      1.0000 0.52100  0.13900  0.43500  Biso   1.000  H
  H15      1.0000 0.97900  0.63900  0.06500  Biso   1.000  H
  H16      1.0000 0.47900  0.13900  0.06500  Biso   1.000  H
  C65      1.0000 0.01320  0.18610  0.59660  Biso   1.000  C
  C66      1.0000 0.51320  0.68610  0.59660  Biso   1.000  C
  C67      1.0000 0.98680  0.18610  0.90340  Biso   1.000  C
  C68      1.0000 0.48680  0.68610  0.90340  Biso   1.000  C
  C69      1.0000 0.98680  0.81390  0.40340  Biso   1.000  C
  C70      1.0000 0.48680  0.31390  0.40340  Biso   1.000  C
  C71      1.0000 0.01320  0.81390  0.09660  Biso   1.000  C
  C72      1.0000 0.51320  0.31390  0.09660  Biso   1.000  C
  C73      1.0000 0.04400  0.22280  0.67050  Biso   1.000  C
  C74      1.0000 0.54400  0.72280  0.67050  Biso   1.000  C
  C75      1.0000 0.95600  0.22280  0.82950  Biso   1.000  C
  C76      1.0000 0.45600  0.72280  0.82950  Biso   1.000  C
  C77      1.0000 0.95600  0.77720  0.32950  Biso   1.000  C
  C78      1.0000 0.45600  0.27720  0.32950  Biso   1.000  C
  C79      1.0000 0.04400  0.77720  0.17050  Biso   1.000  C
  C80      1.0000 0.54400  0.27720  0.17050  Biso   1.000  C
  F73      1.0000 0.02620  0.33200  0.68250  Biso   1.000  F
  F74      1.0000 0.52620  0.83200  0.68250  Biso   1.000  F
  F75      1.0000 0.97380  0.33200  0.81750  Biso   1.000  F
  F76      1.0000 0.47380  0.83200  0.81750  Biso   1.000  F
  F77      1.0000 0.97380  0.66800  0.31750  Biso   1.000  F
  F78      1.0000 0.47380  0.16800  0.31750  Biso   1.000  F
  F79      1.0000 0.02620  0.66800  0.18250  Biso   1.000  F
  F80      1.0000 0.52620  0.16800  0.18250  Biso   1.000  F
  F81      1.0000 0.09470  0.22900  0.69890  Biso   1.000  F
  F82      1.0000 0.59470  0.72900  0.69890  Biso   1.000  F
  F83      1.0000 0.90530  0.22900  0.80110  Biso   1.000  F
  F84      1.0000 0.40530  0.72900  0.80110  Biso   1.000  F
  F85      1.0000 0.90530  0.77100  0.30110  Biso   1.000  F
  F86      1.0000 0.40530  0.27100  0.30110  Biso   1.000  F
  F87      1.0000 0.09470  0.77100  0.19890  Biso   1.000  F
  F88      1.0000 0.59470  0.27100  0.19890  Biso   1.000  F
  F89      1.0000 0.02580  0.13000  0.69480  Biso   1.000  F
  F90      1.0000 0.52580  0.63000  0.69480  Biso   1.000  F
  F91      1.0000 0.97420  0.13000  0.80520  Biso   1.000  F
  F92      1.0000 0.47420  0.63000  0.80520  Biso   1.000  F
  F93      1.0000 0.97420  0.87000  0.30520  Biso   1.000  F
  F94      1.0000 0.47420  0.37000  0.30520  Biso   1.000  F
  F95      1.0000 0.02580  0.87000  0.19480  Biso   1.000  F
  F96      1.0000 0.52580  0.37000  0.19480  Biso   1.000  F
  O25      1.0000 0.02477  0.07000  0.58708  Biso   1.000  O
  O26      1.0000 0.52477  0.57000  0.58708  Biso   1.000  O
  O27      1.0000 0.97523  0.07000  0.91292  Biso   1.000  O
  O28      1.0000 0.47523  0.57000  0.91292  Biso   1.000  O
  O29      1.0000 0.97523  0.93000  0.41292  Biso   1.000  O
  O30      1.0000 0.47523  0.43000  0.41292  Biso   1.000  O
  O31      1.0000 0.02477  0.93000  0.08708  Biso   1.000  O
  O32      1.0000 0.52477  0.43000  0.08708  Biso   1.000  O
  O33      1.0000 0.76912  0.61830  0.45323  Biso   1.000  O
  O34      1.0000 0.26912  0.11830  0.45323  Biso   1.000  O
  O35      1.0000 0.23088  0.61830  0.04677  Biso   1.000  O
  O36      1.0000 0.73088  0.11830  0.04677  Biso   1.000  O
  O37      1.0000 0.23088  0.38170  0.54677  Biso   1.000  O
  O38      1.0000 0.73088  0.88170  0.54677  Biso   1.000  O
  O39      1.0000 0.76912  0.38170  0.95323  Biso   1.000  O
  O40      1.0000 0.26912  0.88170  0.95323  Biso   1.000  O
  N1       1.0000 0.76004  0.64340  0.39641  Biso   1.000  N
  N2       1.0000 0.26004  0.14340  0.39641  Biso   1.000  N
  N3       1.0000 0.23996  0.64340  0.10359  Biso   1.000  N
  N4       1.0000 0.73996  0.14340  0.10359  Biso   1.000  N
  N5       1.0000 0.23996  0.35660  0.60359  Biso   1.000  N
  N6       1.0000 0.73996  0.85660  0.60359  Biso   1.000  N
  N7       1.0000 0.76004  0.35660  0.89641  Biso   1.000  N
  N8       1.0000 0.26004  0.85660  0.89641  Biso   1.000  N
  C81      1.0000 0.71296  0.57980  0.33320  Biso   1.000  C
  C82      1.0000 0.21296  0.07980  0.33320  Biso   1.000  C
  C83      1.0000 0.28704  0.57980  0.16680  Biso   1.000  C
  C84      1.0000 0.78704  0.07980  0.16680  Biso   1.000  C
  C85      1.0000 0.28704  0.42020  0.66680  Biso   1.000  C
  C86      1.0000 0.78704  0.92020  0.66680  Biso   1.000  C
  C87      1.0000 0.71296  0.42020  0.83320  Biso   1.000  C
  C88      1.0000 0.21296  0.92020  0.83320  Biso   1.000  C
  C89      1.0000 0.66140  0.58820  0.32960  Biso   1.000  C
  C90      1.0000 0.16140  0.08820  0.32960  Biso   1.000  C
  C91      1.0000 0.33860  0.58820  0.17040  Biso   1.000  C
  C92      1.0000 0.83860  0.08820  0.17040  Biso   1.000  C
  C93      1.0000 0.33860  0.41180  0.67040  Biso   1.000  C
  C94      1.0000 0.83860  0.91180  0.67040  Biso   1.000  C
  C95      1.0000 0.66140  0.41180  0.82960  Biso   1.000  C
  C96      1.0000 0.16140  0.91180  0.82960  Biso   1.000  C
  H17      1.0000 0.66200  0.52300  0.36400  Biso   1.000  H
  H18      1.0000 0.16200  0.02300  0.36400  Biso   1.000  H
  H19      1.0000 0.33800  0.52300  0.13600  Biso   1.000  H
  H20      1.0000 0.83800  0.02300  0.13600  Biso   1.000  H
  H21      1.0000 0.33800  0.47700  0.63600  Biso   1.000  H
  H22      1.0000 0.83800  0.97700  0.63600  Biso   1.000  H
  H23      1.0000 0.66200  0.47700  0.86400  Biso   1.000  H
  H24      1.0000 0.16200  0.97700  0.86400  Biso   1.000  H
  H25      1.0000 0.63400  0.55300  0.29400  Biso   1.000  H
  H26      1.0000 0.13400  0.05300  0.29400  Biso   1.000  H
  H27      1.0000 0.36600  0.55300  0.20600  Biso   1.000  H
  H28      1.0000 0.86600  0.05300  0.20600  Biso   1.000  H
  H29      1.0000 0.36600  0.44700  0.70600  Biso   1.000  H
  H30      1.0000 0.86600  0.94700  0.70600  Biso   1.000  H
  H31      1.0000 0.63400  0.44700  0.79400  Biso   1.000  H
  H32      1.0000 0.13400  0.94700  0.79400  Biso   1.000  H
  H33      1.0000 0.65600  0.68000  0.33700  Biso   1.000  H
  H34      1.0000 0.15600  0.18000  0.33700  Biso   1.000  H
  H35      1.0000 0.34400  0.68000  0.16300  Biso   1.000  H
  H36      1.0000 0.84400  0.18000  0.16300  Biso   1.000  H
  H37      1.0000 0.34400  0.32000  0.66300  Biso   1.000  H
  H38      1.0000 0.84400  0.82000  0.66300  Biso   1.000  H
  H39      1.0000 0.65600  0.32000  0.83700  Biso   1.000  H
  H40      1.0000 0.15600  0.82000  0.83700  Biso   1.000  H
  C97      1.0000 0.72870  0.42930  0.33520  Biso   1.000  C
  C98      1.0000 0.22870  0.92930  0.33520  Biso   1.000  C
  C99      1.0000 0.27130  0.42930  0.16480  Biso   1.000  C
  C100     1.0000 0.77130  0.92930  0.16480  Biso   1.000  C
  C101     1.0000 0.27130  0.57070  0.66480  Biso   1.000  C
  C102     1.0000 0.77130  0.07070  0.66480  Biso   1.000  C
  C103     1.0000 0.72870  0.57070  0.83520  Biso   1.000  C
  C104     1.0000 0.22870  0.07070  0.83520  Biso   1.000  C
  H41      1.0000 0.73500  0.39100  0.37500  Biso   1.000  H
  H42      1.0000 0.23500  0.89100  0.37500  Biso   1.000  H
  H43      1.0000 0.26500  0.39100  0.12500  Biso   1.000  H
  H44      1.0000 0.76500  0.89100  0.12500  Biso   1.000  H
  H45      1.0000 0.26500  0.60900  0.62500  Biso   1.000  H
  H46      1.0000 0.76500  0.10900  0.62500  Biso   1.000  H
  H47      1.0000 0.73500  0.60900  0.87500  Biso   1.000  H
  H48      1.0000 0.23500  0.10900  0.87500  Biso   1.000  H
  H49      1.0000 0.75600  0.42400  0.33400  Biso   1.000  H
  H50      1.0000 0.25600  0.92400  0.33400  Biso   1.000  H
  H51      1.0000 0.24400  0.42400  0.16600  Biso   1.000  H
  H52      1.0000 0.74400  0.92400  0.16600  Biso   1.000  H
  H53      1.0000 0.24400  0.57600  0.66600  Biso   1.000  H
  H54      1.0000 0.74400  0.07600  0.66600  Biso   1.000  H
  H55      1.0000 0.75600  0.57600  0.83400  Biso   1.000  H
  H56      1.0000 0.25600  0.07600  0.83400  Biso   1.000  H
  H57      1.0000 0.69800  0.37800  0.29800  Biso   1.000  H
  H58      1.0000 0.19800  0.87800  0.29800  Biso   1.000  H
  H59      1.0000 0.30200  0.37800  0.20200  Biso   1.000  H
  H60      1.0000 0.80200  0.87800  0.20200  Biso   1.000  H
  H61      1.0000 0.30200  0.62200  0.70200  Biso   1.000  H
  H62      1.0000 0.80200  0.12200  0.70200  Biso   1.000  H
  H63      1.0000 0.69800  0.62200  0.79800  Biso   1.000  H
  H64      1.0000 0.19800  0.12200  0.79800  Biso   1.000  H
  C105     1.0000 0.71402  0.66740  0.28250  Biso   1.000  C
  C106     1.0000 0.21402  0.16740  0.28250  Biso   1.000  C
  C107     1.0000 0.28598  0.66740  0.21750  Biso   1.000  C
  C108     1.0000 0.78598  0.16740  0.21750  Biso   1.000  C
  C109     1.0000 0.28598  0.33260  0.71750  Biso   1.000  C
  C110     1.0000 0.78598  0.83260  0.71750  Biso   1.000  C
  C111     1.0000 0.71402  0.33260  0.78250  Biso   1.000  C
  C112     1.0000 0.21402  0.83260  0.78250  Biso   1.000  C
  C113     1.0000 0.68360  0.80450  0.26640  Biso   1.000  C
  C114     1.0000 0.18360  0.30450  0.26640  Biso   1.000  C
  C115     1.0000 0.31640  0.80450  0.23360  Biso   1.000  C
  C116     1.0000 0.81640  0.30450  0.23360  Biso   1.000  C
  C117     1.0000 0.31640  0.19550  0.73360  Biso   1.000  C
  C118     1.0000 0.81640  0.69550  0.73360  Biso   1.000  C
  C119     1.0000 0.68360  0.19550  0.76640  Biso   1.000  C
  C120     1.0000 0.18360  0.69550  0.76640  Biso   1.000  C
  H65      1.0000 0.69200  0.85000  0.23800  Biso   1.000  H
  H66      1.0000 0.19200  0.35000  0.23800  Biso   1.000  H
  H67      1.0000 0.30800  0.85000  0.26200  Biso   1.000  H
  H68      1.0000 0.80800  0.35000  0.26200  Biso   1.000  H
  H69      1.0000 0.30800  0.15000  0.76200  Biso   1.000  H
  H70      1.0000 0.80800  0.65000  0.76200  Biso   1.000  H
  H71      1.0000 0.69200  0.15000  0.73800  Biso   1.000  H
  H72      1.0000 0.19200  0.65000  0.73800  Biso   1.000  H
  H73      1.0000 0.69700  0.85000  0.31100  Biso   1.000  H
  H74      1.0000 0.19700  0.35000  0.31100  Biso   1.000  H
  H75      1.0000 0.30300  0.85000  0.18900  Biso   1.000  H
  H76      1.0000 0.80300  0.35000  0.18900  Biso   1.000  H
  H77      1.0000 0.30300  0.15000  0.68900  Biso   1.000  H
  H78      1.0000 0.80300  0.65000  0.68900  Biso   1.000  H
  H79      1.0000 0.69700  0.15000  0.81100  Biso   1.000  H
  H80      1.0000 0.19700  0.65000  0.81100  Biso   1.000  H
  H81      1.0000 0.63900  0.78300  0.23100  Biso   1.000  H
  H82      1.0000 0.13900  0.28300  0.23100  Biso   1.000  H
  H83      1.0000 0.36100  0.78300  0.26900  Biso   1.000  H
  H84      1.0000 0.86100  0.28300  0.26900  Biso   1.000  H
  H85      1.0000 0.36100  0.21700  0.76900  Biso   1.000  H
  H86      1.0000 0.86100  0.71700  0.76900  Biso   1.000  H
  H87      1.0000 0.63900  0.21700  0.73100  Biso   1.000  H
  H88      1.0000 0.13900  0.71700  0.73100  Biso   1.000  H
  C121     1.0000 0.69710  0.59460  0.21880  Biso   1.000  C
  C122     1.0000 0.19710  0.09460  0.21880  Biso   1.000  C
  C123     1.0000 0.30290  0.59460  0.28120  Biso   1.000  C
  C124     1.0000 0.80290  0.09460  0.28120  Biso   1.000  C
  C125     1.0000 0.30290  0.40540  0.78120  Biso   1.000  C
  C126     1.0000 0.80290  0.90540  0.78120  Biso   1.000  C
  C127     1.0000 0.69710  0.40540  0.71880  Biso   1.000  C
  C128     1.0000 0.19710  0.90540  0.71880  Biso   1.000  C
  H89      1.0000 0.70300  0.65100  0.19000  Biso   1.000  H
  H90      1.0000 0.20300  0.15100  0.19000  Biso   1.000  H
  H91      1.0000 0.29700  0.65100  0.31000  Biso   1.000  H
  H92      1.0000 0.79700  0.15100  0.31000  Biso   1.000  H
  H93      1.0000 0.29700  0.34900  0.81000  Biso   1.000  H
  H94      1.0000 0.79700  0.84900  0.81000  Biso   1.000  H
  H95      1.0000 0.70300  0.34900  0.69000  Biso   1.000  H
  H96      1.0000 0.20300  0.84900  0.69000  Biso   1.000  H
  H97      1.0000 0.66200  0.58600  0.19700  Biso   1.000  H
  H98      1.0000 0.16200  0.08600  0.19700  Biso   1.000  H
  H99      1.0000 0.33800  0.58600  0.30300  Biso   1.000  H
  H100     1.0000 0.83800  0.08600  0.30300  Biso   1.000  H
  H101     1.0000 0.33800  0.41400  0.80300  Biso   1.000  H
  H102     1.0000 0.83800  0.91400  0.80300  Biso   1.000  H
  H103     1.0000 0.66200  0.41400  0.69700  Biso   1.000  H
  H104     1.0000 0.16200  0.91400  0.69700  Biso   1.000  H
  H105     1.0000 0.72000  0.52200  0.23200  Biso   1.000  H
  H106     1.0000 0.22000  0.02200  0.23200  Biso   1.000  H
  H107     1.0000 0.28000  0.52200  0.26800  Biso   1.000  H
  H108     1.0000 0.78000  0.02200  0.26800  Biso   1.000  H
  H109     1.0000 0.28000  0.47800  0.76800  Biso   1.000  H
  H110     1.0000 0.78000  0.97800  0.76800  Biso   1.000  H
  H111     1.0000 0.72000  0.47800  0.73200  Biso   1.000  H
  H112     1.0000 0.22000  0.97800  0.73200  Biso   1.000  H
  N9       1.0000 0.77284  0.70310  0.32278  Biso   1.000  N
  N10      1.0000 0.27284  0.20310  0.32278  Biso   1.000  N
  N11      1.0000 0.22716  0.70310  0.17722  Biso   1.000  N
  N12      1.0000 0.72716  0.20310  0.17722  Biso   1.000  N
  N13      1.0000 0.22716  0.29690  0.67722  Biso   1.000  N
  N14      1.0000 0.72716  0.79690  0.67722  Biso   1.000  N
  N15      1.0000 0.77284  0.29690  0.82278  Biso   1.000  N
  N16      1.0000 0.27284  0.79690  0.82278  Biso   1.000  N
  O41      1.0000 0.79626  0.74680  0.29718  Biso   1.000  O
  O42      1.0000 0.29626  0.24680  0.29718  Biso   1.000  O
  O43      1.0000 0.20374  0.74680  0.20282  Biso   1.000  O
  O44      1.0000 0.70374  0.24680  0.20282  Biso   1.000  O
  O45      1.0000 0.20374  0.25320  0.70282  Biso   1.000  O
  O46      1.0000 0.70374  0.75320  0.70282  Biso   1.000  O
  O47      1.0000 0.79626  0.25320  0.79718  Biso   1.000  O
  O48      1.0000 0.29626  0.75320  0.79718  Biso   1.000  O
  C129     1.0000 0.79580  0.70070  0.38841  Biso   1.000  C
  C130     1.0000 0.29580  0.20070  0.38841  Biso   1.000  C
  C131     1.0000 0.20420  0.70070  0.11159  Biso   1.000  C
  C132     1.0000 0.70420  0.20070  0.11159  Biso   1.000  C
  C133     1.0000 0.20420  0.29930  0.61159  Biso   1.000  C
  C134     1.0000 0.70420  0.79930  0.61159  Biso   1.000  C
  C135     1.0000 0.79580  0.29930  0.88841  Biso   1.000  C
  C136     1.0000 0.29580  0.79930  0.88841  Biso   1.000  C
  C137     1.0000 0.84922  0.74790  0.43980  Biso   1.000  C
  C138     1.0000 0.34922  0.24790  0.43980  Biso   1.000  C
  C139     1.0000 0.15078  0.74790  0.06020  Biso   1.000  C
  C140     1.0000 0.65078  0.24790  0.06020  Biso   1.000  C
  C141     1.0000 0.15078  0.25210  0.56020  Biso   1.000  C
  C142     1.0000 0.65078  0.75210  0.56020  Biso   1.000  C
  C143     1.0000 0.84922  0.25210  0.93980  Biso   1.000  C
  C144     1.0000 0.34922  0.75210  0.93980  Biso   1.000  C
  C145     1.0000 0.88472  0.82570  0.43340  Biso   1.000  C
  C146     1.0000 0.38472  0.32570  0.43340  Biso   1.000  C
  C147     1.0000 0.11528  0.82570  0.06660  Biso   1.000  C
  C148     1.0000 0.61528  0.32570  0.06660  Biso   1.000  C
  C149     1.0000 0.11528  0.17430  0.56660  Biso   1.000  C
  C150     1.0000 0.61528  0.67430  0.56660  Biso   1.000  C
  C151     1.0000 0.88472  0.17430  0.93340  Biso   1.000  C
  C152     1.0000 0.38472  0.67430  0.93340  Biso   1.000  C
  H113     1.0000 0.87890  0.86100  0.39600  Biso   1.000  H
  H114     1.0000 0.37890  0.36100  0.39600  Biso   1.000  H
  H115     1.0000 0.12110  0.86100  0.10400  Biso   1.000  H
  H116     1.0000 0.62110  0.36100  0.10400  Biso   1.000  H
  H117     1.0000 0.12110  0.13900  0.60400  Biso   1.000  H
  H118     1.0000 0.62110  0.63900  0.60400  Biso   1.000  H
  H119     1.0000 0.87890  0.13900  0.89600  Biso   1.000  H
  H120     1.0000 0.37890  0.63900  0.89600  Biso   1.000  H
  N17      1.0000 0.93082  0.85070  0.49118  Biso   1.000  N
  N18      1.0000 0.43082  0.35070  0.49118  Biso   1.000  N
  N19      1.0000 0.06918  0.85070  0.00882  Biso   1.000  N
  N20      1.0000 0.56918  0.35070  0.00882  Biso   1.000  N
  N21      1.0000 0.06918  0.14930  0.50882  Biso   1.000  N
  N22      1.0000 0.56918  0.64930  0.50882  Biso   1.000  N
  N23      1.0000 0.93082  0.14930  0.99118  Biso   1.000  N
  N24      1.0000 0.43082  0.64930  0.99118  Biso   1.000  N
  N25      1.0000 0.92608  0.78710  0.53657  Biso   1.000  N
  N26      1.0000 0.42608  0.28710  0.53657  Biso   1.000  N
  N27      1.0000 0.07392  0.78710  0.96343  Biso   1.000  N
  N28      1.0000 0.57392  0.28710  0.96343  Biso   1.000  N
  N29      1.0000 0.07392  0.21290  0.46343  Biso   1.000  N
  N30      1.0000 0.57392  0.71290  0.46343  Biso   1.000  N
  N31      1.0000 0.92608  0.21290  0.03657  Biso   1.000  N
  N32      1.0000 0.42608  0.71290  0.03657  Biso   1.000  N
  C153     1.0000 0.97170  0.78150  0.60660  Biso   1.000  C
  C154     1.0000 0.47170  0.28150  0.60660  Biso   1.000  C
  C155     1.0000 0.02830  0.78150  0.89340  Biso   1.000  C
  C156     1.0000 0.52830  0.28150  0.89340  Biso   1.000  C
  C157     1.0000 0.02830  0.21850  0.39340  Biso   1.000  C
  C158     1.0000 0.52830  0.71850  0.39340  Biso   1.000  C
  C159     1.0000 0.97170  0.21850  0.10660  Biso   1.000  C
  C160     1.0000 0.47170  0.71850  0.10660  Biso   1.000  C
  H121     1.0000 0.99500  0.81000  0.61300  Biso   1.000  H
  H122     1.0000 0.49500  0.31000  0.61300  Biso   1.000  H
  H123     1.0000 0.00500  0.81000  0.88700  Biso   1.000  H
  H124     1.0000 0.50500  0.31000  0.88700  Biso   1.000  H
  H125     1.0000 0.00500  0.19000  0.38700  Biso   1.000  H
  H126     1.0000 0.50500  0.69000  0.38700  Biso   1.000  H
  H127     1.0000 0.99500  0.19000  0.11300  Biso   1.000  H
  H128     1.0000 0.49500  0.69000  0.11300  Biso   1.000  H
  C161     1.0000 0.95780  0.79710  0.65300  Biso   1.000  C
  C162     1.0000 0.45780  0.29710  0.65300  Biso   1.000  C
  C163     1.0000 0.04220  0.79710  0.84700  Biso   1.000  C
  C164     1.0000 0.54220  0.29710  0.84700  Biso   1.000  C
  C165     1.0000 0.04220  0.20290  0.34700  Biso   1.000  C
  C166     1.0000 0.54220  0.70290  0.34700  Biso   1.000  C
  C167     1.0000 0.95780  0.20290  0.15300  Biso   1.000  C
  C168     1.0000 0.45780  0.70290  0.15300  Biso   1.000  C
  H129     1.0000 0.92800  0.76600  0.64200  Biso   1.000  H
  H130     1.0000 0.42800  0.26600  0.64200  Biso   1.000  H
  H131     1.0000 0.07200  0.76600  0.85800  Biso   1.000  H
  H132     1.0000 0.57200  0.26600  0.85800  Biso   1.000  H
  H133     1.0000 0.07200  0.23400  0.35800  Biso   1.000  H
  H134     1.0000 0.57200  0.73400  0.35800  Biso   1.000  H
  H135     1.0000 0.92800  0.23400  0.14200  Biso   1.000  H
  H136     1.0000 0.42800  0.73400  0.14200  Biso   1.000  H
  H137     1.0000 0.94100  0.89200  0.65100  Biso   1.000  H
  H138     1.0000 0.44100  0.39200  0.65100  Biso   1.000  H
  H139     1.0000 0.05900  0.89200  0.84900  Biso   1.000  H
  H140     1.0000 0.55900  0.39200  0.84900  Biso   1.000  H
  H141     1.0000 0.05900  0.10800  0.34900  Biso   1.000  H
  H142     1.0000 0.55900  0.60800  0.34900  Biso   1.000  H
  H143     1.0000 0.94100  0.10800  0.15100  Biso   1.000  H
  H144     1.0000 0.44100  0.60800  0.15100  Biso   1.000  H
  C169     1.0000 0.00530  0.79590  0.72480  Biso   1.000  C
  C170     1.0000 0.50530  0.29590  0.72480  Biso   1.000  C
  C171     1.0000 0.99470  0.79590  0.77520  Biso   1.000  C
  C172     1.0000 0.49470  0.29590  0.77520  Biso   1.000  C
  C173     1.0000 0.99470  0.20410  0.27520  Biso   1.000  C
  C174     1.0000 0.49470  0.70410  0.27520  Biso   1.000  C
  C175     1.0000 0.00530  0.20410  0.22480  Biso   1.000  C
  C176     1.0000 0.50530  0.70410  0.22480  Biso   1.000  C
  H145     1.0000 0.02700  0.76000  0.72700  Biso   1.000  H
  H146     1.0000 0.52700  0.26000  0.72700  Biso   1.000  H
  H147     1.0000 0.97300  0.76000  0.77300  Biso   1.000  H
  H148     1.0000 0.47300  0.26000  0.77300  Biso   1.000  H
  H149     1.0000 0.97300  0.24000  0.27300  Biso   1.000  H
  H150     1.0000 0.47300  0.74000  0.27300  Biso   1.000  H
  H151     1.0000 0.02700  0.24000  0.22700  Biso   1.000  H
  H152     1.0000 0.52700  0.74000  0.22700  Biso   1.000  H
  H153     1.0000 0.02400  0.88600  0.73200  Biso   1.000  H
  H154     1.0000 0.52400  0.38600  0.73200  Biso   1.000  H
  H155     1.0000 0.97600  0.88600  0.76800  Biso   1.000  H
  H156     1.0000 0.47600  0.38600  0.76800  Biso   1.000  H
  H157     1.0000 0.97600  0.11400  0.26800  Biso   1.000  H
  H158     1.0000 0.47600  0.61400  0.26800  Biso   1.000  H
  H159     1.0000 0.02400  0.11400  0.23200  Biso   1.000  H
  H160     1.0000 0.52400  0.61400  0.23200  Biso   1.000  H
  C177     1.0000 0.87843  0.72590  0.50730  Biso   1.000  C
  C178     1.0000 0.37843  0.22590  0.50730  Biso   1.000  C
  C179     1.0000 0.12157  0.72590  0.99270  Biso   1.000  C
  C180     1.0000 0.62157  0.22590  0.99270  Biso   1.000  C
  C181     1.0000 0.12157  0.27410  0.49270  Biso   1.000  C
  C182     1.0000 0.62157  0.77410  0.49270  Biso   1.000  C
  C183     1.0000 0.87843  0.27410  0.00730  Biso   1.000  C
  C184     1.0000 0.37843  0.77410  0.00730  Biso   1.000  C
  H161     1.0000 0.87050  0.67500  0.52800  Biso   1.000  H
  H162     1.0000 0.37050  0.17500  0.52800  Biso   1.000  H
  H163     1.0000 0.12950  0.67500  0.97200  Biso   1.000  H
  H164     1.0000 0.62950  0.17500  0.97200  Biso   1.000  H
  H165     1.0000 0.12950  0.32500  0.47200  Biso   1.000  H
  H166     1.0000 0.62950  0.82500  0.47200  Biso   1.000  H
  H167     1.0000 0.87050  0.32500  0.02800  Biso   1.000  H
  H168     1.0000 0.37050  0.82500  0.02800  Biso   1.000  H
  F97      1.0000 0.67020  0.30700  0.46900  Biso   1.000  F
  F98      1.0000 0.17020  0.80700  0.46900  Biso   1.000  F
  F99      1.0000 0.32980  0.30700  0.03100  Biso   1.000  F
  F100     1.0000 0.82980  0.80700  0.03100  Biso   1.000  F
  F101     1.0000 0.32980  0.69300  0.53100  Biso   1.000  F
  F102     1.0000 0.82980  0.19300  0.53100  Biso   1.000  F
  F103     1.0000 0.67020  0.69300  0.96900  Biso   1.000  F
  F104     1.0000 0.17020  0.19300  0.96900  Biso   1.000  F
  F105     1.0000 0.67280  0.30900  0.53200  Biso   1.000  F
  F106     1.0000 0.17280  0.80900  0.53200  Biso   1.000  F
  F107     1.0000 0.32720  0.30900  0.96800  Biso   1.000  F
  F108     1.0000 0.82720  0.80900  0.96800  Biso   1.000  F
  F109     1.0000 0.32720  0.69100  0.46800  Biso   1.000  F
  F110     1.0000 0.82720  0.19100  0.46800  Biso   1.000  F
  F111     1.0000 0.67280  0.69100  0.03200  Biso   1.000  F
  F112     1.0000 0.17280  0.19100  0.03200  Biso   1.000  F
  F113     1.0000 0.62750  0.43270  0.47700  Biso   1.000  F
  F114     1.0000 0.12750  0.93270  0.47700  Biso   1.000  F
  F115     1.0000 0.37250  0.43270  0.02300  Biso   1.000  F
  F116     1.0000 0.87250  0.93270  0.02300  Biso   1.000  F
  F117     1.0000 0.37250  0.56730  0.52300  Biso   1.000  F
  F118     1.0000 0.87250  0.06730  0.52300  Biso   1.000  F
  F119     1.0000 0.62750  0.56730  0.97700  Biso   1.000  F
  F120     1.0000 0.12750  0.06730  0.97700  Biso   1.000  F
  F121     1.0000 0.92160  0.39900  0.39930  Biso   1.000  F
  F122     1.0000 0.42160  0.89900  0.39930  Biso   1.000  F
  F123     1.0000 0.07840  0.39900  0.10070  Biso   1.000  F
  F124     1.0000 0.57840  0.89900  0.10070  Biso   1.000  F
  F125     1.0000 0.07840  0.60100  0.60070  Biso   1.000  F
  F126     1.0000 0.57840  0.10100  0.60070  Biso   1.000  F
  F127     1.0000 0.92160  0.60100  0.89930  Biso   1.000  F
  F128     1.0000 0.42160  0.10100  0.89930  Biso   1.000  F
  F129     1.0000 0.86720  0.34300  0.39510  Biso   1.000  F
  F130     1.0000 0.36720  0.84300  0.39510  Biso   1.000  F
  F131     1.0000 0.13280  0.34300  0.10490  Biso   1.000  F
  F132     1.0000 0.63280  0.84300  0.10490  Biso   1.000  F
  F133     1.0000 0.13280  0.65700  0.60490  Biso   1.000  F
  F134     1.0000 0.63280  0.15700  0.60490  Biso   1.000  F
  F135     1.0000 0.86720  0.65700  0.89510  Biso   1.000  F
  F136     1.0000 0.36720  0.15700  0.89510  Biso   1.000  F
  F137     1.0000 0.92040  0.48530  0.46750  Biso   1.000  F
  F138     1.0000 0.42040  0.98530  0.46750  Biso   1.000  F
  F139     1.0000 0.07960  0.48530  0.03250  Biso   1.000  F
  F140     1.0000 0.57960  0.98530  0.03250  Biso   1.000  F
  F141     1.0000 0.07960  0.51470  0.53250  Biso   1.000  F
  F142     1.0000 0.57960  0.01470  0.53250  Biso   1.000  F
  F143     1.0000 0.92040  0.51470  0.96750  Biso   1.000  F
  F144     1.0000 0.42040  0.01470  0.96750  Biso   1.000  F
  F145     1.0000 0.02200  0.18400  0.69270  Biso   1.000  F
  F146     1.0000 0.52200  0.68400  0.69270  Biso   1.000  F
  F147     1.0000 0.97800  0.18400  0.80730  Biso   1.000  F
  F148     1.0000 0.47800  0.68400  0.80730  Biso   1.000  F
  F149     1.0000 0.97800  0.81600  0.30730  Biso   1.000  F
  F150     1.0000 0.47800  0.31600  0.30730  Biso   1.000  F
  F151     1.0000 0.02200  0.81600  0.19270  Biso   1.000  F
  F152     1.0000 0.52200  0.31600  0.19270  Biso   1.000  F
  F153     1.0000 0.04970  0.34900  0.68010  Biso   1.000  F
  F154     1.0000 0.54970  0.84900  0.68010  Biso   1.000  F
  F155     1.0000 0.95030  0.34900  0.81990  Biso   1.000  F
  F156     1.0000 0.45030  0.84900  0.81990  Biso   1.000  F
  F157     1.0000 0.95030  0.65100  0.31990  Biso   1.000  F
  F158     1.0000 0.45030  0.15100  0.31990  Biso   1.000  F
  F159     1.0000 0.04970  0.65100  0.18010  Biso   1.000  F
  F160     1.0000 0.54970  0.15100  0.18010  Biso   1.000  F
  F161     1.0000 0.07910  0.15600  0.70780  Biso   1.000  F
  F162     1.0000 0.57910  0.65600  0.70780  Biso   1.000  F
  F163     1.0000 0.92090  0.15600  0.79220  Biso   1.000  F
  F164     1.0000 0.42090  0.65600  0.79220  Biso   1.000  F
  F165     1.0000 0.92090  0.84400  0.29220  Biso   1.000  F
  F166     1.0000 0.42090  0.34400  0.29220  Biso   1.000  F
  F167     1.0000 0.07910  0.84400  0.20780  Biso   1.000  F
  F168     1.0000 0.57910  0.34400  0.20780  Biso   1.000  F
  H169     1.0000 0.96500  0.65000  0.68700  Biso   1.000  H
  H170     1.0000 0.46500  0.15000  0.68700  Biso   1.000  H
  H171     1.0000 0.03500  0.65000  0.81300  Biso   1.000  H
  H172     1.0000 0.53500  0.15000  0.81300  Biso   1.000  H
  H173     1.0000 0.03500  0.35000  0.31300  Biso   1.000  H
  H174     1.0000 0.53500  0.85000  0.31300  Biso   1.000  H
  H175     1.0000 0.96500  0.35000  0.18700  Biso   1.000  H
  H176     1.0000 0.46500  0.85000  0.18700  Biso   1.000  H
