data_image0
_cell_length_a       9.18
_cell_length_b       9.75
_cell_length_c       8.94
_cell_angle_alpha    90
_cell_angle_beta     90
_cell_angle_gamma    90

_symmetry_space_group_name_H-M    "P 1"
_symmetry_int_tables_number       1

loop_
  _symmetry_equiv_pos_as_xyz
  'x, y, z'

loop_
  _atom_site_label
  _atom_site_occupancy
  _atom_site_fract_x
  _atom_site_fract_y
  _atom_site_fract_z
  _atom_site_thermal_displace_type
  _atom_site_B_iso_or_equiv
  _atom_site_type_symbol
  Cu1      1.0000 0.08290  0.82240  0.10310  Biso   1.000  Cu
  Cu2      1.0000 0.58290  0.67760  0.89690  Biso   1.000  Cu
  Cu3      1.0000 0.91710  0.32240  0.39690  Biso   1.000  Cu
  Cu4      1.0000 0.41710  0.17760  0.60310  Biso   1.000  Cu
  O1       1.0000 0.00820  0.21920  0.17820  Biso   1.000  O
  O2       1.0000 0.50820  0.28080  0.82180  Biso   1.000  O
  O3       1.0000 0.99180  0.71920  0.32180  Biso   1.000  O
  O4       1.0000 0.49180  0.78080  0.67820  Biso   1.000  O
  O5       1.0000 0.90020  0.77020  0.98900  Biso   1.000  O
  O6       1.0000 0.40020  0.72980  0.01100  Biso   1.000  O
  O7       1.0000 0.09980  0.27020  0.51100  Biso   1.000  O
  O8       1.0000 0.59980  0.22980  0.48900  Biso   1.000  O
  O9       1.0000 0.67880  0.85230  0.94210  Biso   1.000  O
  O10      1.0000 0.17880  0.64770  0.05790  Biso   1.000  O
  O11      1.0000 0.32120  0.35230  0.55790  Biso   1.000  O
  O12      1.0000 0.82120  0.14770  0.44210  Biso   1.000  O
  O13      1.0000 0.98290  0.43370  0.97670  Biso   1.000  O
  O14      1.0000 0.48290  0.06630  0.02330  Biso   1.000  O
  O15      1.0000 0.01710  0.93370  0.52330  Biso   1.000  O
  O16      1.0000 0.51710  0.56630  0.47670  Biso   1.000  O
  N1       1.0000 0.24100  0.91840  0.21760  Biso   1.000  N
  N2       1.0000 0.74100  0.58160  0.78240  Biso   1.000  N
  N3       1.0000 0.75900  0.41840  0.28240  Biso   1.000  N
  N4       1.0000 0.25900  0.08160  0.71760  Biso   1.000  N
  N5       1.0000 0.00030  0.00070  0.08850  Biso   1.000  N
  N6       1.0000 0.50030  0.49930  0.91150  Biso   1.000  N
  N7       1.0000 0.99970  0.50070  0.41150  Biso   1.000  N
  N8       1.0000 0.49970  0.99930  0.58850  Biso   1.000  N
  C1       1.0000 0.20010  0.06420  0.24170  Biso   1.000  C
  C2       1.0000 0.70010  0.43580  0.75830  Biso   1.000  C
  C3       1.0000 0.79990  0.56420  0.25830  Biso   1.000  C
  C4       1.0000 0.29990  0.93580  0.74170  Biso   1.000  C
  C5       1.0000 0.05970  0.10210  0.16670  Biso   1.000  C
  C6       1.0000 0.55970  0.39790  0.83330  Biso   1.000  C
  C7       1.0000 0.94030  0.60210  0.33330  Biso   1.000  C
  C8       1.0000 0.44030  0.89790  0.66670  Biso   1.000  C
  C9       1.0000 0.86190  0.01350  0.01440  Biso   1.000  C
  C10      1.0000 0.36190  0.48650  0.98560  Biso   1.000  C
  C11      1.0000 0.13810  0.51350  0.48560  Biso   1.000  C
  C12      1.0000 0.63810  0.98650  0.51440  Biso   1.000  C
  C13      1.0000 0.81000  0.86670  0.98100  Biso   1.000  C
  C14      1.0000 0.31000  0.63330  0.01900  Biso   1.000  C
  C15      1.0000 0.19000  0.36670  0.51900  Biso   1.000  C
  C16      1.0000 0.69000  0.13330  0.48100  Biso   1.000  C
  C17      1.0000 0.87010  0.09070  0.86430  Biso   1.000  C
  C18      1.0000 0.37010  0.40930  0.13570  Biso   1.000  C
  C19      1.0000 0.12990  0.59070  0.63570  Biso   1.000  C
  C20      1.0000 0.62990  0.90930  0.36430  Biso   1.000  C
  H1       1.0000 0.32940  0.91430  0.16230  Biso   1.000  H
  H2       1.0000 0.82940  0.58570  0.83770  Biso   1.000  H
  H3       1.0000 0.67060  0.41430  0.33770  Biso   1.000  H
  H4       1.0000 0.17060  0.08570  0.66230  Biso   1.000  H
  H5       1.0000 0.25410  0.87470  0.31150  Biso   1.000  H
  H6       1.0000 0.75410  0.62530  0.68850  Biso   1.000  H
  H7       1.0000 0.74590  0.37470  0.18850  Biso   1.000  H
  H8       1.0000 0.24590  0.12530  0.81150  Biso   1.000  H
  H9       1.0000 0.28340  0.12700  0.19900  Biso   1.000  H
  H10      1.0000 0.78340  0.37300  0.80100  Biso   1.000  H
  H11      1.0000 0.71660  0.62700  0.30100  Biso   1.000  H
  H12      1.0000 0.21660  0.87300  0.69900  Biso   1.000  H
  H13      1.0000 0.18930  0.08160  0.35710  Biso   1.000  H
  H14      1.0000 0.68930  0.41840  0.64290  Biso   1.000  H
  H15      1.0000 0.81070  0.58160  0.14290  Biso   1.000  H
  H16      1.0000 0.31070  0.91840  0.85710  Biso   1.000  H
  H17      1.0000 0.78680  0.06360  0.08420  Biso   1.000  H
  H18      1.0000 0.28680  0.43640  0.91580  Biso   1.000  H
  H19      1.0000 0.21320  0.56360  0.41580  Biso   1.000  H
  H20      1.0000 0.71320  0.93640  0.58420  Biso   1.000  H
  H21      1.0000 0.92900  0.03190  0.78670  Biso   1.000  H
  H22      1.0000 0.42900  0.46810  0.21330  Biso   1.000  H
  H23      1.0000 0.07100  0.53190  0.71330  Biso   1.000  H
  H24      1.0000 0.57100  0.96810  0.28670  Biso   1.000  H
  H25      1.0000 0.92270  0.18530  0.88020  Biso   1.000  H
  H26      1.0000 0.42270  0.31470  0.11980  Biso   1.000  H
  H27      1.0000 0.07730  0.68530  0.61980  Biso   1.000  H
  H28      1.0000 0.57730  0.81470  0.38020  Biso   1.000  H
  H29      1.0000 0.76430  0.10770  0.82360  Biso   1.000  H
  H30      1.0000 0.26430  0.39230  0.17640  Biso   1.000  H
  H31      1.0000 0.23570  0.60770  0.67640  Biso   1.000  H
  H32      1.0000 0.73570  0.89230  0.32360  Biso   1.000  H
