data_image0
_cell_length_a       19.04
_cell_length_b       6.943
_cell_length_c       12.201
_cell_angle_alpha    90
_cell_angle_beta     103.89
_cell_angle_gamma    90

_symmetry_space_group_name_H-M    "P 1"
_symmetry_int_tables_number       1

loop_
  _symmetry_equiv_pos_as_xyz
  'x, y, z'

loop_
  _atom_site_label
  _atom_site_occupancy
  _atom_site_fract_x
  _atom_site_fract_y
  _atom_site_fract_z
  _atom_site_thermal_displace_type
  _atom_site_B_iso_or_equiv
  _atom_site_type_symbol
  Cu1      1.0000 0.20362  0.50000  0.22525  Biso   1.000  Cu
  Cu2      1.0000 0.70362  0.00000  0.22525  Biso   1.000  Cu
  Cu3      1.0000 0.79638  0.50000  0.77475  Biso   1.000  Cu
  Cu4      1.0000 0.29638  0.00000  0.77475  Biso   1.000  Cu
  O1       1.0000 0.31650  0.41870  0.99030  Biso   1.000  O
  O2       1.0000 0.81650  0.91870  0.99030  Biso   1.000  O
  O3       1.0000 0.68350  0.41870  0.00970  Biso   1.000  O
  O4       1.0000 0.18350  0.91870  0.00970  Biso   1.000  O
  O5       1.0000 0.35910  0.16560  0.27100  Biso   1.000  O
  O6       1.0000 0.85910  0.66560  0.27100  Biso   1.000  O
  O7       1.0000 0.64090  0.16560  0.72900  Biso   1.000  O
  O8       1.0000 0.14090  0.66560  0.72900  Biso   1.000  O
  O9       1.0000 0.61470  0.97520  0.28360  Biso   1.000  O
  O10      1.0000 0.11470  0.47520  0.28360  Biso   1.000  O
  O11      1.0000 0.38530  0.97520  0.71640  Biso   1.000  O
  O12      1.0000 0.88530  0.47520  0.71640  Biso   1.000  O
  O13      1.0000 0.59860  0.28100  0.23530  Biso   1.000  O
  O14      1.0000 0.09860  0.78100  0.23530  Biso   1.000  O
  O15      1.0000 0.40140  0.28100  0.76470  Biso   1.000  O
  O16      1.0000 0.90140  0.78100  0.76470  Biso   1.000  O
  N1       1.0000 0.14820  0.52120  0.06460  Biso   1.000  N
  N2       1.0000 0.64820  0.02120  0.06460  Biso   1.000  N
  N3       1.0000 0.85180  0.52120  0.93540  Biso   1.000  N
  N4       1.0000 0.35180  0.02120  0.93540  Biso   1.000  N
  N5       1.0000 0.28630  0.48670  0.15720  Biso   1.000  N
  N6       1.0000 0.78630  0.98670  0.15720  Biso   1.000  N
  N7       1.0000 0.71370  0.48670  0.84280  Biso   1.000  N
  N8       1.0000 0.21370  0.98670  0.84280  Biso   1.000  N
  N9       1.0000 0.26410  0.53320  0.37820  Biso   1.000  N
  N10      1.0000 0.76410  0.03320  0.37820  Biso   1.000  N
  N11      1.0000 0.73590  0.53320  0.62180  Biso   1.000  N
  N12      1.0000 0.23590  0.03320  0.62180  Biso   1.000  N
  N13      1.0000 0.30600  0.52430  0.56120  Biso   1.000  N
  N14      1.0000 0.80600  0.02430  0.56120  Biso   1.000  N
  N15      1.0000 0.69400  0.52430  0.43880  Biso   1.000  N
  N16      1.0000 0.19400  0.02430  0.43880  Biso   1.000  N
  N17      1.0000 0.46690  0.29880  0.27770  Biso   1.000  N
  N18      1.0000 0.96690  0.79880  0.27770  Biso   1.000  N
  N19      1.0000 0.53310  0.29880  0.72230  Biso   1.000  N
  N20      1.0000 0.03310  0.79880  0.72230  Biso   1.000  N
  C1       1.0000 0.19100  0.43700  0.99120  Biso   1.000  C
  C2       1.0000 0.69100  0.93700  0.99120  Biso   1.000  C
  C3       1.0000 0.80900  0.43700  0.00880  Biso   1.000  C
  C4       1.0000 0.30900  0.93700  0.00880  Biso   1.000  C
  C5       1.0000 0.27180  0.44830  0.04790  Biso   1.000  C
  C6       1.0000 0.77180  0.94830  0.04790  Biso   1.000  C
  C7       1.0000 0.72820  0.44830  0.95210  Biso   1.000  C
  C8       1.0000 0.22820  0.94830  0.95210  Biso   1.000  C
  C9       1.0000 0.36290  0.49980  0.21590  Biso   1.000  C
  C10      1.0000 0.86290  0.99980  0.21590  Biso   1.000  C
  C11      1.0000 0.63710  0.49980  0.78410  Biso   1.000  C
  C12      1.0000 0.13710  0.99980  0.78410  Biso   1.000  C
  C13      1.0000 0.37300  0.64330  0.31390  Biso   1.000  C
  C14      1.0000 0.87300  0.14330  0.31390  Biso   1.000  C
  C15      1.0000 0.62700  0.64330  0.68610  Biso   1.000  C
  C16      1.0000 0.12700  0.14330  0.68610  Biso   1.000  C
  C17      1.0000 0.33660  0.58380  0.40340  Biso   1.000  C
  C18      1.0000 0.83660  0.08380  0.40340  Biso   1.000  C
  C19      1.0000 0.66340  0.58380  0.59660  Biso   1.000  C
  C20      1.0000 0.16340  0.08380  0.59660  Biso   1.000  C
  C21      1.0000 0.36210  0.57520  0.51840  Biso   1.000  C
  C22      1.0000 0.86210  0.07520  0.51840  Biso   1.000  C
  C23      1.0000 0.63790  0.57520  0.48160  Biso   1.000  C
  C24      1.0000 0.13790  0.07520  0.48160  Biso   1.000  C
  C25      1.0000 0.24820  0.49880  0.47690  Biso   1.000  C
  C26      1.0000 0.74820  0.99880  0.47690  Biso   1.000  C
  C27      1.0000 0.75180  0.49880  0.52310  Biso   1.000  C
  C28      1.0000 0.25180  0.99880  0.52310  Biso   1.000  C
  C29      1.0000 0.39500  0.30480  0.25590  Biso   1.000  C
  C30      1.0000 0.89500  0.80480  0.25590  Biso   1.000  C
  C31      1.0000 0.60500  0.30480  0.74410  Biso   1.000  C
  C32      1.0000 0.10500  0.80480  0.74410  Biso   1.000  C
  C33      1.0000 0.50830  0.12400  0.30840  Biso   1.000  C
  C34      1.0000 0.00830  0.62400  0.30840  Biso   1.000  C
  C35      1.0000 0.49170  0.12400  0.69160  Biso   1.000  C
  C36      1.0000 0.99170  0.62400  0.69160  Biso   1.000  C
  C37      1.0000 0.57860  0.13130  0.27100  Biso   1.000  C
  C38      1.0000 0.07860  0.63130  0.27100  Biso   1.000  C
  C39      1.0000 0.42140  0.13130  0.72900  Biso   1.000  C
  C40      1.0000 0.92140  0.63130  0.72900  Biso   1.000  C
  H1       1.0000 0.15400  0.64600  0.05300  Biso   1.000  H
  H2       1.0000 0.65400  0.14600  0.05300  Biso   1.000  H
  H3       1.0000 0.84600  0.64600  0.94700  Biso   1.000  H
  H4       1.0000 0.34600  0.14600  0.94700  Biso   1.000  H
  H5       1.0000 0.10900  0.47100  0.04500  Biso   1.000  H
  H6       1.0000 0.60900  0.97100  0.04500  Biso   1.000  H
  H7       1.0000 0.89100  0.47100  0.95500  Biso   1.000  H
  H8       1.0000 0.39100  0.97100  0.95500  Biso   1.000  H
  H9       1.0000 0.20100  0.44300  0.91600  Biso   1.000  H
  H10      1.0000 0.70100  0.94300  0.91600  Biso   1.000  H
  H11      1.0000 0.79900  0.44300  0.08400  Biso   1.000  H
  H12      1.0000 0.29900  0.94300  0.08400  Biso   1.000  H
  H13      1.0000 0.18300  0.28800  0.98200  Biso   1.000  H
  H14      1.0000 0.68300  0.78800  0.98200  Biso   1.000  H
  H15      1.0000 0.81700  0.28800  0.01800  Biso   1.000  H
  H16      1.0000 0.31700  0.78800  0.01800  Biso   1.000  H
  H17      1.0000 0.38800  0.54200  0.18000  Biso   1.000  H
  H18      1.0000 0.88800  0.04200  0.18000  Biso   1.000  H
  H19      1.0000 0.61200  0.54200  0.82000  Biso   1.000  H
  H20      1.0000 0.11200  0.04200  0.82000  Biso   1.000  H
  H21      1.0000 0.36000  0.76700  0.29100  Biso   1.000  H
  H22      1.0000 0.86000  0.26700  0.29100  Biso   1.000  H
  H23      1.0000 0.64000  0.76700  0.70900  Biso   1.000  H
  H24      1.0000 0.14000  0.26700  0.70900  Biso   1.000  H
  H25      1.0000 0.42300  0.66200  0.35400  Biso   1.000  H
  H26      1.0000 0.92300  0.16200  0.35400  Biso   1.000  H
  H27      1.0000 0.57700  0.66200  0.64600  Biso   1.000  H
  H28      1.0000 0.07700  0.16200  0.64600  Biso   1.000  H
  H29      1.0000 0.40900  0.61600  0.56800  Biso   1.000  H
  H30      1.0000 0.90900  0.11600  0.56800  Biso   1.000  H
  H31      1.0000 0.59100  0.61600  0.43200  Biso   1.000  H
  H32      1.0000 0.09100  0.11600  0.43200  Biso   1.000  H
  H33      1.0000 0.30000  0.53300  0.62900  Biso   1.000  H
  H34      1.0000 0.80000  0.03300  0.62900  Biso   1.000  H
  H35      1.0000 0.70000  0.53300  0.37100  Biso   1.000  H
  H36      1.0000 0.20000  0.03300  0.37100  Biso   1.000  H
  H37      1.0000 0.20000  0.44600  0.48300  Biso   1.000  H
  H38      1.0000 0.70000  0.94600  0.48300  Biso   1.000  H
  H39      1.0000 0.80000  0.44600  0.51700  Biso   1.000  H
  H40      1.0000 0.30000  0.94600  0.51700  Biso   1.000  H
  H41      1.0000 0.49000  0.42200  0.26300  Biso   1.000  H
  H42      1.0000 0.99000  0.92200  0.26300  Biso   1.000  H
  H43      1.0000 0.51000  0.42200  0.73700  Biso   1.000  H
  H44      1.0000 0.01000  0.92200  0.73700  Biso   1.000  H
  H45      1.0000 0.48800  0.03500  0.27200  Biso   1.000  H
  H46      1.0000 0.98800  0.53500  0.27200  Biso   1.000  H
  H47      1.0000 0.51200  0.03500  0.72800  Biso   1.000  H
  H48      1.0000 0.01200  0.53500  0.72800  Biso   1.000  H
  H49      1.0000 0.51900  0.07000  0.37200  Biso   1.000  H
  H50      1.0000 0.01900  0.57000  0.37200  Biso   1.000  H
  H51      1.0000 0.48100  0.07000  0.62800  Biso   1.000  H
  H52      1.0000 0.98100  0.57000  0.62800  Biso   1.000  H
  O17      1.0000 0.21150  0.09960  0.22370  Biso   1.000  O
  O18      1.0000 0.71150  0.59960  0.22370  Biso   1.000  O
  O19      1.0000 0.78850  0.09960  0.77630  Biso   1.000  O
  O20      1.0000 0.28850  0.59960  0.77630  Biso   1.000  O
  H53      1.0000 0.20500  0.01400  0.16900  Biso   1.000  H
  H54      1.0000 0.70500  0.51400  0.16900  Biso   1.000  H
  H55      1.0000 0.79500  0.01400  0.83100  Biso   1.000  H
  H56      1.0000 0.29500  0.51400  0.83100  Biso   1.000  H
  H57      1.0000 0.26700  0.12000  0.23500  Biso   1.000  H
  H58      1.0000 0.76700  0.62000  0.23500  Biso   1.000  H
  H59      1.0000 0.73300  0.12000  0.76500  Biso   1.000  H
  H60      1.0000 0.23300  0.62000  0.76500  Biso   1.000  H
  O21      1.0000 0.00000  0.33590  0.00000  Biso   1.000  O
  O22      1.0000 0.50000  0.83590  0.00000  Biso   1.000  O
  H61      1.0000 0.01600  0.26100  0.07500  Biso   1.000  H
  H62      1.0000 0.51600  0.76100  0.07500  Biso   1.000  H
  H63      1.0000 0.98400  0.26100  0.92500  Biso   1.000  H
  H64      1.0000 0.48400  0.76100  0.92500  Biso   1.000  H
  O23      1.0000 0.03890  0.14660  0.20840  Biso   1.000  O
  O24      1.0000 0.53890  0.64660  0.20840  Biso   1.000  O
  O25      1.0000 0.96110  0.14660  0.79160  Biso   1.000  O
  O26      1.0000 0.46110  0.64660  0.79160  Biso   1.000  O
  H65      1.0000 0.07500  0.26900  0.23900  Biso   1.000  H
  H66      1.0000 0.57500  0.76900  0.23900  Biso   1.000  H
  H67      1.0000 0.92500  0.26900  0.76100  Biso   1.000  H
  H68      1.0000 0.42500  0.76900  0.76100  Biso   1.000  H
  H69      1.0000 0.06600  0.04700  0.19300  Biso   1.000  H
  H70      1.0000 0.56600  0.54700  0.19300  Biso   1.000  H
  H71      1.0000 0.93400  0.04700  0.80700  Biso   1.000  H
  H72      1.0000 0.43400  0.54700  0.80700  Biso   1.000  H
