data_image0
_cell_length_a       8.631
_cell_length_b       10.438
_cell_length_c       15.878
_cell_angle_alpha    90
_cell_angle_beta     90
_cell_angle_gamma    90

_symmetry_space_group_name_H-M    "P 1"
_symmetry_int_tables_number       1

loop_
  _symmetry_equiv_pos_as_xyz
  'x, y, z'

loop_
  _atom_site_label
  _atom_site_occupancy
  _atom_site_fract_x
  _atom_site_fract_y
  _atom_site_fract_z
  _atom_site_thermal_displace_type
  _atom_site_B_iso_or_equiv
  _atom_site_type_symbol
  Cu1      1.0000 0.71080  0.27910  0.79190  Biso   1.000  Cu
  Cu2      1.0000 0.21080  0.22090  0.20810  Biso   1.000  Cu
  Cu3      1.0000 0.28920  0.77910  0.70810  Biso   1.000  Cu
  Cu4      1.0000 0.78920  0.72090  0.29190  Biso   1.000  Cu
  O1       1.0000 0.83610  0.34140  0.69510  Biso   1.000  O
  O2       1.0000 0.33610  0.15860  0.30490  Biso   1.000  O
  O3       1.0000 0.16390  0.84140  0.80490  Biso   1.000  O
  O4       1.0000 0.66390  0.65860  0.19510  Biso   1.000  O
  O5       1.0000 0.85610  0.54780  0.31780  Biso   1.000  O
  O6       1.0000 0.35610  0.95220  0.68220  Biso   1.000  O
  O7       1.0000 0.14390  0.04780  0.18220  Biso   1.000  O
  O8       1.0000 0.64390  0.45220  0.81780  Biso   1.000  O
  O9       1.0000 0.60210  0.29440  0.64630  Biso   1.000  O
  O10      1.0000 0.10210  0.20560  0.35370  Biso   1.000  O
  O11      1.0000 0.39790  0.79440  0.85370  Biso   1.000  O
  O12      1.0000 0.89790  0.70560  0.14630  Biso   1.000  O
  O13      1.0000 0.65430  0.57160  0.39980  Biso   1.000  O
  O14      1.0000 0.15430  0.92840  0.60020  Biso   1.000  O
  O15      1.0000 0.34570  0.07160  0.10020  Biso   1.000  O
  O16      1.0000 0.84570  0.42840  0.89980  Biso   1.000  O
  N1       1.0000 0.81510  0.10310  0.78430  Biso   1.000  N
  N2       1.0000 0.31510  0.39690  0.21570  Biso   1.000  N
  N3       1.0000 0.18490  0.60310  0.71570  Biso   1.000  N
  N4       1.0000 0.68490  0.89690  0.28430  Biso   1.000  N
  N5       1.0000 0.56100  0.19490  0.87450  Biso   1.000  N
  N6       1.0000 0.06100  0.30510  0.12550  Biso   1.000  N
  N7       1.0000 0.43900  0.69490  0.62550  Biso   1.000  N
  N8       1.0000 0.93900  0.80510  0.37450  Biso   1.000  N
  C1       1.0000 0.81530  0.04490  0.69810  Biso   1.000  C
  C2       1.0000 0.31530  0.45510  0.30190  Biso   1.000  C
  C3       1.0000 0.18470  0.54490  0.80190  Biso   1.000  C
  C4       1.0000 0.68470  0.95510  0.19810  Biso   1.000  C
  C5       1.0000 0.97920  0.12160  0.81300  Biso   1.000  C
  C6       1.0000 0.47920  0.37840  0.18700  Biso   1.000  C
  C7       1.0000 0.02080  0.62160  0.68700  Biso   1.000  C
  C8       1.0000 0.52080  0.87840  0.31300  Biso   1.000  C
  C9       1.0000 0.40410  0.18800  0.83510  Biso   1.000  C
  C10      1.0000 0.90410  0.31200  0.16490  Biso   1.000  C
  C11      1.0000 0.59590  0.68800  0.66490  Biso   1.000  C
  C12      1.0000 0.09590  0.81200  0.33510  Biso   1.000  C
  C13      1.0000 0.54460  0.26380  0.95860  Biso   1.000  C
  C14      1.0000 0.04460  0.23620  0.04140  Biso   1.000  C
  C15      1.0000 0.45540  0.76380  0.54140  Biso   1.000  C
  C16      1.0000 0.95540  0.73620  0.45860  Biso   1.000  C
  C17      1.0000 0.73330  0.33210  0.63470  Biso   1.000  C
  C18      1.0000 0.23330  0.16790  0.36530  Biso   1.000  C
  C19      1.0000 0.26670  0.83210  0.86530  Biso   1.000  C
  C20      1.0000 0.76670  0.66790  0.13470  Biso   1.000  C
  C21      1.0000 0.79620  0.37550  0.54870  Biso   1.000  C
  C22      1.0000 0.29620  0.12450  0.45130  Biso   1.000  C
  C23      1.0000 0.20380  0.87550  0.95130  Biso   1.000  C
  C24      1.0000 0.70380  0.62450  0.04870  Biso   1.000  C
  C25      1.0000 0.69600  0.32320  0.47610  Biso   1.000  C
  C26      1.0000 0.19600  0.17680  0.52390  Biso   1.000  C
  C27      1.0000 0.30400  0.82320  0.02390  Biso   1.000  C
  C28      1.0000 0.80400  0.67680  0.97610  Biso   1.000  C
  C29      1.0000 0.76530  0.36200  0.38970  Biso   1.000  C
  C30      1.0000 0.26530  0.13800  0.61030  Biso   1.000  C
  C31      1.0000 0.23470  0.86200  0.11030  Biso   1.000  C
  C32      1.0000 0.73470  0.63800  0.88970  Biso   1.000  C
  C33      1.0000 0.75790  0.50330  0.36860  Biso   1.000  C
  C34      1.0000 0.25790  0.99670  0.63140  Biso   1.000  C
  C35      1.0000 0.24210  0.00330  0.13140  Biso   1.000  C
  C36      1.0000 0.74210  0.49670  0.86860  Biso   1.000  C
