data_image0
_cell_length_a       10.354
_cell_length_b       11.471
_cell_length_c       8.872
_cell_angle_alpha    90
_cell_angle_beta     90
_cell_angle_gamma    90

_symmetry_space_group_name_H-M    "P 1"
_symmetry_int_tables_number       1

loop_
  _symmetry_equiv_pos_as_xyz
  'x, y, z'

loop_
  _atom_site_label
  _atom_site_occupancy
  _atom_site_fract_x
  _atom_site_fract_y
  _atom_site_fract_z
  _atom_site_thermal_displace_type
  _atom_site_B_iso_or_equiv
  _atom_site_type_symbol
  Cu1      1.0000 0.22751  0.11244  0.02112  Biso   1.000  Cu
  Cu2      1.0000 0.72751  0.38756  0.97888  Biso   1.000  Cu
  Cu3      1.0000 0.77249  0.61244  0.47888  Biso   1.000  Cu
  Cu4      1.0000 0.27249  0.88756  0.52112  Biso   1.000  Cu
  C1       1.0000 0.02060  0.23120  0.18380  Biso   1.000  C
  C2       1.0000 0.52060  0.26880  0.81620  Biso   1.000  C
  C3       1.0000 0.97940  0.73120  0.31620  Biso   1.000  C
  C4       1.0000 0.47940  0.76880  0.68380  Biso   1.000  C
  C5       1.0000 0.98090  0.21560  0.01500  Biso   1.000  C
  C6       1.0000 0.48090  0.28440  0.98500  Biso   1.000  C
  C7       1.0000 0.01910  0.71560  0.48500  Biso   1.000  C
  C8       1.0000 0.51910  0.78440  0.51500  Biso   1.000  C
  C9       1.0000 0.04680  0.13770  0.77180  Biso   1.000  C
  C10      1.0000 0.54680  0.36230  0.22820  Biso   1.000  C
  C11      1.0000 0.95320  0.63770  0.72820  Biso   1.000  C
  C12      1.0000 0.45320  0.86230  0.27180  Biso   1.000  C
  C13      1.0000 0.15250  0.04950  0.72780  Biso   1.000  C
  C14      1.0000 0.65250  0.45050  0.27220  Biso   1.000  C
  C15      1.0000 0.84750  0.54950  0.77220  Biso   1.000  C
  C16      1.0000 0.34750  0.95050  0.22780  Biso   1.000  C
  C17      1.0000 0.04480  0.24070  0.65690  Biso   1.000  C
  C18      1.0000 0.54480  0.25930  0.34310  Biso   1.000  C
  C19      1.0000 0.95520  0.74070  0.84310  Biso   1.000  C
  C20      1.0000 0.45520  0.75930  0.15690  Biso   1.000  C
  C21      1.0000 0.17530  0.30230  0.64470  Biso   1.000  C
  C22      1.0000 0.67530  0.19770  0.35530  Biso   1.000  C
  C23      1.0000 0.82470  0.80230  0.85530  Biso   1.000  C
  C24      1.0000 0.32470  0.69770  0.14470  Biso   1.000  C
  C25      1.0000 0.30990  0.50060  0.55340  Biso   1.000  C
  C26      1.0000 0.80990  0.99940  0.44660  Biso   1.000  C
  C27      1.0000 0.69010  0.00060  0.94660  Biso   1.000  C
  C28      1.0000 0.19010  0.49940  0.05340  Biso   1.000  C
  N1       1.0000 0.15170  0.18550  0.21440  Biso   1.000  N
  N2       1.0000 0.65170  0.31450  0.78560  Biso   1.000  N
  N3       1.0000 0.84830  0.68550  0.28560  Biso   1.000  N
  N4       1.0000 0.34830  0.81450  0.71440  Biso   1.000  N
  N5       1.0000 0.07410  0.17340  0.92860  Biso   1.000  N
  N6       1.0000 0.57410  0.32660  0.07140  Biso   1.000  N
  N7       1.0000 0.92590  0.67340  0.57140  Biso   1.000  N
  N8       1.0000 0.42590  0.82660  0.42860  Biso   1.000  N
  O1       1.0000 0.86720  0.23880  0.97490  Biso   1.000  O
  O2       1.0000 0.36720  0.26120  0.02510  Biso   1.000  O
  O3       1.0000 0.13280  0.73880  0.52510  Biso   1.000  O
  O4       1.0000 0.63280  0.76120  0.47490  Biso   1.000  O
  O5       1.0000 0.24680  0.03500  0.81790  Biso   1.000  O
  O6       1.0000 0.74680  0.46500  0.18210  Biso   1.000  O
  O7       1.0000 0.75320  0.53500  0.68210  Biso   1.000  O
  O8       1.0000 0.25320  0.96500  0.31790  Biso   1.000  O
  O9       1.0000 0.14030  0.99710  0.60160  Biso   1.000  O
  O10      1.0000 0.64030  0.50290  0.39840  Biso   1.000  O
  O11      1.0000 0.85970  0.49710  0.89840  Biso   1.000  O
  O12      1.0000 0.35970  0.00290  0.10160  Biso   1.000  O
  S1       1.0000 0.16580  0.42030  0.50740  Biso   1.000  S
  S2       1.0000 0.66580  0.07970  0.49260  Biso   1.000  S
  S3       1.0000 0.83420  0.92030  0.99260  Biso   1.000  S
  S4       1.0000 0.33420  0.57970  0.00740  Biso   1.000  S
