data_image0
_cell_length_a       7.6358
_cell_length_b       19.3001
_cell_length_c       11.2452
_cell_angle_alpha    90
_cell_angle_beta     100.586
_cell_angle_gamma    90

_symmetry_space_group_name_H-M    "P 1"
_symmetry_int_tables_number       1

loop_
  _symmetry_equiv_pos_as_xyz
  'x, y, z'

loop_
  _atom_site_label
  _atom_site_occupancy
  _atom_site_fract_x
  _atom_site_fract_y
  _atom_site_fract_z
  _atom_site_thermal_displace_type
  _atom_site_B_iso_or_equiv
  _atom_site_type_symbol
  U1       1.0000 0.45709  0.50063  0.25957  Biso   1.000  U
  U2       1.0000 0.54291  0.00063  0.24043  Biso   1.000  U
  U3       1.0000 0.54291  0.49937  0.74043  Biso   1.000  U
  U4       1.0000 0.45709  0.99937  0.75957  Biso   1.000  U
  U5       1.0000 0.72343  0.73092  0.86813  Biso   1.000  U
  U6       1.0000 0.27657  0.23092  0.63187  Biso   1.000  U
  U7       1.0000 0.27657  0.26908  0.13187  Biso   1.000  U
  U8       1.0000 0.72343  0.76908  0.36813  Biso   1.000  U
  Cu1      1.0000 0.21580  0.72797  0.85018  Biso   1.000  Cu
  Cu2      1.0000 0.78420  0.22797  0.64982  Biso   1.000  Cu
  Cu3      1.0000 0.78420  0.27203  0.14982  Biso   1.000  Cu
  Cu4      1.0000 0.21580  0.77203  0.35018  Biso   1.000  Cu
  P1       1.0000 0.69450  0.64041  0.13940  Biso   1.000  P
  P2       1.0000 0.30550  0.14041  0.36060  Biso   1.000  P
  P3       1.0000 0.30550  0.35959  0.86060  Biso   1.000  P
  P4       1.0000 0.69450  0.85959  0.63940  Biso   1.000  P
  P5       1.0000 0.68890  0.59983  0.50825  Biso   1.000  P
  P6       1.0000 0.31110  0.09983  0.99175  Biso   1.000  P
  P7       1.0000 0.31110  0.40017  0.49175  Biso   1.000  P
  P8       1.0000 0.68890  0.90017  0.00825  Biso   1.000  P
  O1       1.0000 0.62930  0.69090  0.03680  Biso   1.000  O
  O2       1.0000 0.37070  0.19090  0.46320  Biso   1.000  O
  O3       1.0000 0.37070  0.30910  0.96320  Biso   1.000  O
  O4       1.0000 0.62930  0.80910  0.53680  Biso   1.000  O
  O5       1.0000 0.80050  0.67530  0.25110  Biso   1.000  O
  O6       1.0000 0.19950  0.17530  0.24890  Biso   1.000  O
  O7       1.0000 0.19950  0.32470  0.74890  Biso   1.000  O
  O8       1.0000 0.80050  0.82470  0.75110  Biso   1.000  O
  O9       1.0000 0.53590  0.59990  0.16630  Biso   1.000  O
  O10      1.0000 0.46410  0.09990  0.33370  Biso   1.000  O
  O11      1.0000 0.46410  0.40010  0.83370  Biso   1.000  O
  O12      1.0000 0.53590  0.90010  0.66630  Biso   1.000  O
  O13      1.0000 0.72290  0.49450  0.94570  Biso   1.000  O
  O14      1.0000 0.27710  0.99450  0.55430  Biso   1.000  O
  O15      1.0000 0.27710  0.50550  0.05430  Biso   1.000  O
  O16      1.0000 0.72290  0.00550  0.44570  Biso   1.000  O
  O17      1.0000 0.73510  0.59850  0.87160  Biso   1.000  O
  O18      1.0000 0.26490  0.09850  0.62840  Biso   1.000  O
  O19      1.0000 0.26490  0.40150  0.12840  Biso   1.000  O
  O20      1.0000 0.73510  0.90150  0.37160  Biso   1.000  O
  O21      1.0000 0.63230  0.67100  0.45630  Biso   1.000  O
  O22      1.0000 0.36770  0.17100  0.04370  Biso   1.000  O
  O23      1.0000 0.36770  0.32900  0.54370  Biso   1.000  O
  O24      1.0000 0.63230  0.82900  0.95630  Biso   1.000  O
  O25      1.0000 0.66810  0.54450  0.41040  Biso   1.000  O
  O26      1.0000 0.33190  0.04450  0.08960  Biso   1.000  O
  O27      1.0000 0.33190  0.45550  0.58960  Biso   1.000  O
  O28      1.0000 0.66810  0.95550  0.91040  Biso   1.000  O
  O29      1.0000 0.58410  0.58240  0.60650  Biso   1.000  O
  O30      1.0000 0.41590  0.08240  0.89350  Biso   1.000  O
  O31      1.0000 0.41590  0.41760  0.39350  Biso   1.000  O
  O32      1.0000 0.58410  0.91760  0.10650  Biso   1.000  O
  O33      1.0000 0.13740  0.67210  0.70420  Biso   1.000  O
  O34      1.0000 0.86260  0.17210  0.79580  Biso   1.000  O
  O35      1.0000 0.86260  0.32790  0.29580  Biso   1.000  O
  O36      1.0000 0.13740  0.82790  0.20420  Biso   1.000  O
  O37      1.0000 0.85230  0.68530  0.71160  Biso   1.000  O
  O38      1.0000 0.14770  0.18530  0.78840  Biso   1.000  O
  O39      1.0000 0.14770  0.31470  0.28840  Biso   1.000  O
  O40      1.0000 0.85230  0.81470  0.21160  Biso   1.000  O
  O41      1.0000 0.28030  0.54820  0.30460  Biso   1.000  O
  O42      1.0000 0.71970  0.04820  0.19540  Biso   1.000  O
  O43      1.0000 0.71970  0.45180  0.69540  Biso   1.000  O
  O44      1.0000 0.28030  0.95180  0.80460  Biso   1.000  O
  O45      1.0000 0.63030  0.45500  0.20770  Biso   1.000  O
  O46      1.0000 0.36970  0.95500  0.29230  Biso   1.000  O
  O47      1.0000 0.36970  0.54500  0.79230  Biso   1.000  O
  O48      1.0000 0.63030  0.04500  0.70770  Biso   1.000  O
  O49      1.0000 0.94320  0.73740  0.95450  Biso   1.000  O
  O50      1.0000 0.05680  0.23740  0.54550  Biso   1.000  O
  O51      1.0000 0.05680  0.26260  0.04550  Biso   1.000  O
  O52      1.0000 0.94320  0.76260  0.45450  Biso   1.000  O
  O53      1.0000 0.50310  0.72480  0.78390  Biso   1.000  O
  O54      1.0000 0.49690  0.22480  0.71610  Biso   1.000  O
  O55      1.0000 0.49690  0.27520  0.21610  Biso   1.000  O
  O56      1.0000 0.50310  0.77520  0.28390  Biso   1.000  O
  O57      1.0000 0.30660  0.78490  0.99500  Biso   1.000  O
  O58      1.0000 0.69340  0.28490  0.50500  Biso   1.000  O
  O59      1.0000 0.69340  0.21510  0.00500  Biso   1.000  O
  O60      1.0000 0.30660  0.71510  0.49500  Biso   1.000  O
  O61      1.0000 0.15320  0.81270  0.75700  Biso   1.000  O
  O62      1.0000 0.84680  0.31270  0.74300  Biso   1.000  O
  O63      1.0000 0.84680  0.18730  0.24300  Biso   1.000  O
  O64      1.0000 0.15320  0.68730  0.25700  Biso   1.000  O
  O65      1.0000 0.25420  0.64270  0.94410  Biso   1.000  O
  O66      1.0000 0.74580  0.14270  0.55590  Biso   1.000  O
  O67      1.0000 0.74580  0.35730  0.05590  Biso   1.000  O
  O68      1.0000 0.25420  0.85730  0.44410  Biso   1.000  O
  C1       1.0000 0.85030  0.58330  0.08460  Biso   1.000  C
  C2       1.0000 0.14970  0.08330  0.41540  Biso   1.000  C
  C3       1.0000 0.14970  0.41670  0.91540  Biso   1.000  C
  C4       1.0000 0.85030  0.91670  0.58460  Biso   1.000  C
  H1       1.0000 0.95920  0.60830  0.08010  Biso   1.000  H
  H2       1.0000 0.04080  0.10830  0.41990  Biso   1.000  H
  H3       1.0000 0.04080  0.39170  0.91990  Biso   1.000  H
  H4       1.0000 0.95920  0.89170  0.58010  Biso   1.000  H
  H5       1.0000 0.87990  0.54480  0.13990  Biso   1.000  H
  H6       1.0000 0.12010  0.04480  0.36010  Biso   1.000  H
  H7       1.0000 0.12010  0.45520  0.86010  Biso   1.000  H
  H8       1.0000 0.87990  0.95520  0.63990  Biso   1.000  H
  C5       1.0000 0.76830  0.55690  0.96170  Biso   1.000  C
  C6       1.0000 0.23170  0.05690  0.53830  Biso   1.000  C
  C7       1.0000 0.23170  0.44310  0.03830  Biso   1.000  C
  C8       1.0000 0.76830  0.94310  0.46170  Biso   1.000  C
  C9       1.0000 0.92500  0.60370  0.57040  Biso   1.000  C
  C10      1.0000 0.07500  0.10370  0.92960  Biso   1.000  C
  C11      1.0000 0.07500  0.39630  0.42960  Biso   1.000  C
  C12      1.0000 0.92500  0.89630  0.07040  Biso   1.000  C
  H9       1.0000 0.98940  0.61360  0.50570  Biso   1.000  H
  H10      1.0000 0.01060  0.11360  0.99430  Biso   1.000  H
  H11      1.0000 0.01060  0.38640  0.49430  Biso   1.000  H
  H12      1.0000 0.98940  0.88640  0.00570  Biso   1.000  H
  H13      1.0000 0.96380  0.55880  0.60380  Biso   1.000  H
  H14      1.0000 0.03620  0.05880  0.89620  Biso   1.000  H
  H15      1.0000 0.03620  0.44120  0.39620  Biso   1.000  H
  H16      1.0000 0.96380  0.94120  0.10380  Biso   1.000  H
  C13      1.0000 0.97190  0.65820  0.66840  Biso   1.000  C
  C14      1.0000 0.02810  0.15820  0.83160  Biso   1.000  C
  C15      1.0000 0.02810  0.34180  0.33160  Biso   1.000  C
  C16      1.0000 0.97190  0.84180  0.16840  Biso   1.000  C
