data_image0
_cell_length_a       27.172
_cell_length_b       14.924
_cell_length_c       14.398
_cell_angle_alpha    90
_cell_angle_beta     105.306
_cell_angle_gamma    90

_symmetry_space_group_name_H-M    "P 1"
_symmetry_int_tables_number       1

loop_
  _symmetry_equiv_pos_as_xyz
  'x, y, z'

loop_
  _atom_site_label
  _atom_site_occupancy
  _atom_site_fract_x
  _atom_site_fract_y
  _atom_site_fract_z
  _atom_site_thermal_displace_type
  _atom_site_B_iso_or_equiv
  _atom_site_type_symbol
  Cu1      1.0000 0.15671  0.16689  0.27702  Biso   1.000  Cu
  Cu2      1.0000 0.84329  0.16689  0.22298  Biso   1.000  Cu
  Cu3      1.0000 0.65671  0.66689  0.27702  Biso   1.000  Cu
  Cu4      1.0000 0.34329  0.66689  0.22298  Biso   1.000  Cu
  Cu5      1.0000 0.84329  0.83311  0.72298  Biso   1.000  Cu
  Cu6      1.0000 0.15671  0.83311  0.77702  Biso   1.000  Cu
  Cu7      1.0000 0.34329  0.33311  0.72298  Biso   1.000  Cu
  Cu8      1.0000 0.65671  0.33311  0.77702  Biso   1.000  Cu
  S1       1.0000 0.15344  0.37422  0.25977  Biso   1.000  S
  S2       1.0000 0.84656  0.37422  0.24023  Biso   1.000  S
  S3       1.0000 0.65344  0.87422  0.25977  Biso   1.000  S
  S4       1.0000 0.34656  0.87422  0.24023  Biso   1.000  S
  S5       1.0000 0.84656  0.62578  0.74023  Biso   1.000  S
  S6       1.0000 0.15344  0.62578  0.75977  Biso   1.000  S
  S7       1.0000 0.34656  0.12578  0.74023  Biso   1.000  S
  S8       1.0000 0.65344  0.12578  0.75977  Biso   1.000  S
  Cl1      1.0000 0.12215  0.13962  0.39846  Biso   1.000  Cl
  Cl2      1.0000 0.87785  0.13962  0.10154  Biso   1.000  Cl
  Cl3      1.0000 0.62215  0.63962  0.39846  Biso   1.000  Cl
  Cl4      1.0000 0.37785  0.63962  0.10154  Biso   1.000  Cl
  Cl5      1.0000 0.87785  0.86038  0.60154  Biso   1.000  Cl
  Cl6      1.0000 0.12215  0.86038  0.89846  Biso   1.000  Cl
  Cl7      1.0000 0.37785  0.36038  0.60154  Biso   1.000  Cl
  Cl8      1.0000 0.62215  0.36038  0.89846  Biso   1.000  Cl
  Cl9      1.0000 0.18001  0.14718  0.14178  Biso   1.000  Cl
  Cl10     1.0000 0.81999  0.14718  0.35822  Biso   1.000  Cl
  Cl11     1.0000 0.68001  0.64718  0.14178  Biso   1.000  Cl
  Cl12     1.0000 0.31999  0.64718  0.35822  Biso   1.000  Cl
  Cl13     1.0000 0.81999  0.85282  0.85822  Biso   1.000  Cl
  Cl14     1.0000 0.18001  0.85282  0.64178  Biso   1.000  Cl
  Cl15     1.0000 0.31999  0.35282  0.85822  Biso   1.000  Cl
  Cl16     1.0000 0.68001  0.35282  0.64178  Biso   1.000  Cl
  S9       1.0000 0.07276  0.78186  0.17295  Biso   1.000  S
  S10      1.0000 0.92724  0.78186  0.32705  Biso   1.000  S
  S11      1.0000 0.57276  0.28186  0.17295  Biso   1.000  S
  S12      1.0000 0.42724  0.28186  0.32705  Biso   1.000  S
  S13      1.0000 0.92724  0.21814  0.82705  Biso   1.000  S
  S14      1.0000 0.07276  0.21814  0.67295  Biso   1.000  S
  S15      1.0000 0.42724  0.71814  0.82705  Biso   1.000  S
  S16      1.0000 0.57276  0.71814  0.67295  Biso   1.000  S
  N1       1.0000 0.05425  0.37760  0.16990  Biso   1.000  N
  N2       1.0000 0.94575  0.37760  0.33010  Biso   1.000  N
  N3       1.0000 0.55425  0.87760  0.16990  Biso   1.000  N
  N4       1.0000 0.44575  0.87760  0.33010  Biso   1.000  N
  N5       1.0000 0.94575  0.62240  0.83010  Biso   1.000  N
  N6       1.0000 0.05425  0.62240  0.66990  Biso   1.000  N
  N7       1.0000 0.44575  0.12240  0.83010  Biso   1.000  N
  N8       1.0000 0.55425  0.12240  0.66990  Biso   1.000  N
  C1       1.0000 0.00921  0.33870  0.13040  Biso   1.000  C
  C2       1.0000 0.99079  0.33870  0.36960  Biso   1.000  C
  C3       1.0000 0.50921  0.83870  0.13040  Biso   1.000  C
  C4       1.0000 0.49079  0.83870  0.36960  Biso   1.000  C
  C5       1.0000 0.99079  0.66130  0.86960  Biso   1.000  C
  C6       1.0000 0.00921  0.66130  0.63040  Biso   1.000  C
  C7       1.0000 0.49079  0.16130  0.86960  Biso   1.000  C
  C8       1.0000 0.50921  0.16130  0.63040  Biso   1.000  C
  C9       1.0000 0.97561  0.49240  0.09800  Biso   1.000  C
  C10      1.0000 0.02439  0.49240  0.40200  Biso   1.000  C
  C11      1.0000 0.47561  0.99240  0.09800  Biso   1.000  C
  C12      1.0000 0.52439  0.99240  0.40200  Biso   1.000  C
  C13      1.0000 0.02439  0.50760  0.90200  Biso   1.000  C
  C14      1.0000 0.97561  0.50760  0.59800  Biso   1.000  C
  C15      1.0000 0.52439  0.00760  0.90200  Biso   1.000  C
  C16      1.0000 0.47561  0.00760  0.59800  Biso   1.000  C
  H1       1.0000 0.00800  0.51270  0.12960  Biso   1.000  H
  H2       1.0000 0.99200  0.51270  0.37040  Biso   1.000  H
  H3       1.0000 0.50800  0.01270  0.12960  Biso   1.000  H
  H4       1.0000 0.49200  0.01270  0.37040  Biso   1.000  H
  H5       1.0000 0.99200  0.48730  0.87040  Biso   1.000  H
  H6       1.0000 0.00800  0.48730  0.62960  Biso   1.000  H
  H7       1.0000 0.49200  0.98730  0.87040  Biso   1.000  H
  H8       1.0000 0.50800  0.98730  0.62960  Biso   1.000  H
  N9       1.0000 0.99715  0.67350  0.11160  Biso   1.000  N
  N10      1.0000 0.00285  0.67350  0.38840  Biso   1.000  N
  N11      1.0000 0.49715  0.17350  0.11160  Biso   1.000  N
  N12      1.0000 0.50285  0.17350  0.38840  Biso   1.000  N
  N13      1.0000 0.00285  0.32650  0.88840  Biso   1.000  N
  N14      1.0000 0.99715  0.32650  0.61160  Biso   1.000  N
  N15      1.0000 0.50285  0.82650  0.88840  Biso   1.000  N
  N16      1.0000 0.49715  0.82650  0.61160  Biso   1.000  N
  C17      1.0000 0.93739  0.55400  0.06000  Biso   1.000  C
  C18      1.0000 0.06261  0.55400  0.44000  Biso   1.000  C
  C19      1.0000 0.43739  0.05400  0.06000  Biso   1.000  C
  C20      1.0000 0.56261  0.05400  0.44000  Biso   1.000  C
  C21      1.0000 0.06261  0.44600  0.94000  Biso   1.000  C
  C22      1.0000 0.93739  0.44600  0.56000  Biso   1.000  C
  C23      1.0000 0.56261  0.94600  0.94000  Biso   1.000  C
  C24      1.0000 0.43739  0.94600  0.56000  Biso   1.000  C
  N17      1.0000 0.09357  0.23530  0.20970  Biso   1.000  N
  N18      1.0000 0.90643  0.23530  0.29030  Biso   1.000  N
  N19      1.0000 0.59357  0.73530  0.20970  Biso   1.000  N
  N20      1.0000 0.40643  0.73530  0.29030  Biso   1.000  N
  N21      1.0000 0.90643  0.76470  0.79030  Biso   1.000  N
  N22      1.0000 0.09357  0.76470  0.70970  Biso   1.000  N
  N23      1.0000 0.40643  0.26470  0.79030  Biso   1.000  N
  N24      1.0000 0.59357  0.26470  0.70970  Biso   1.000  N
  N25      1.0000 0.97523  0.82920  0.09910  Biso   1.000  N
  N26      1.0000 0.02477  0.82920  0.40090  Biso   1.000  N
  N27      1.0000 0.47523  0.32920  0.09910  Biso   1.000  N
  N28      1.0000 0.52477  0.32920  0.40090  Biso   1.000  N
  N29      1.0000 0.02477  0.17080  0.90090  Biso   1.000  N
  N30      1.0000 0.97523  0.17080  0.59910  Biso   1.000  N
  N31      1.0000 0.52477  0.67080  0.90090  Biso   1.000  N
  N32      1.0000 0.47523  0.67080  0.59910  Biso   1.000  N
  C25      1.0000 0.94841  0.65170  0.07150  Biso   1.000  C
  C26      1.0000 0.05159  0.65170  0.42850  Biso   1.000  C
  C27      1.0000 0.44841  0.15170  0.07150  Biso   1.000  C
  C28      1.0000 0.55159  0.15170  0.42850  Biso   1.000  C
  C29      1.0000 0.05159  0.34830  0.92850  Biso   1.000  C
  C30      1.0000 0.94841  0.34830  0.57150  Biso   1.000  C
  C31      1.0000 0.55159  0.84830  0.92850  Biso   1.000  C
  C32      1.0000 0.44841  0.84830  0.57150  Biso   1.000  C
  C33      1.0000 0.96642  0.40160  0.08970  Biso   1.000  C
  C34      1.0000 0.03358  0.40160  0.41030  Biso   1.000  C
  C35      1.0000 0.46642  0.90160  0.08970  Biso   1.000  C
  C36      1.0000 0.53358  0.90160  0.41030  Biso   1.000  C
  C37      1.0000 0.03358  0.59840  0.91030  Biso   1.000  C
  C38      1.0000 0.96642  0.59840  0.58970  Biso   1.000  C
  C39      1.0000 0.53358  0.09840  0.91030  Biso   1.000  C
  C40      1.0000 0.46642  0.09840  0.58970  Biso   1.000  C
  C41      1.0000 0.09398  0.32500  0.20720  Biso   1.000  C
  C42      1.0000 0.90602  0.32500  0.29280  Biso   1.000  C
  C43      1.0000 0.59398  0.82500  0.20720  Biso   1.000  C
  C44      1.0000 0.40602  0.82500  0.29280  Biso   1.000  C
  C45      1.0000 0.90602  0.67500  0.79280  Biso   1.000  C
  C46      1.0000 0.09398  0.67500  0.70720  Biso   1.000  C
  C47      1.0000 0.40602  0.17500  0.79280  Biso   1.000  C
  C48      1.0000 0.59398  0.17500  0.70720  Biso   1.000  C
  C49      1.0000 0.00772  0.76090  0.12290  Biso   1.000  C
  C50      1.0000 0.99228  0.76090  0.37710  Biso   1.000  C
  C51      1.0000 0.50772  0.26090  0.12290  Biso   1.000  C
  C52      1.0000 0.49228  0.26090  0.37710  Biso   1.000  C
  C53      1.0000 0.99228  0.23910  0.87710  Biso   1.000  C
  C54      1.0000 0.00772  0.23910  0.62290  Biso   1.000  C
  C55      1.0000 0.49228  0.73910  0.87710  Biso   1.000  C
  C56      1.0000 0.50772  0.73910  0.62290  Biso   1.000  C
  C57      1.0000 0.92721  0.80420  0.05860  Biso   1.000  C
  C58      1.0000 0.07279  0.80420  0.44140  Biso   1.000  C
  C59      1.0000 0.42721  0.30420  0.05860  Biso   1.000  C
  C60      1.0000 0.57279  0.30420  0.44140  Biso   1.000  C
  C61      1.0000 0.07279  0.19580  0.94140  Biso   1.000  C
  C62      1.0000 0.92721  0.19580  0.55860  Biso   1.000  C
  C63      1.0000 0.57279  0.69580  0.94140  Biso   1.000  C
  C64      1.0000 0.42721  0.69580  0.55860  Biso   1.000  C
  H9       1.0000 0.90260  0.84880  0.04020  Biso   1.000  H
  H10      1.0000 0.09740  0.84880  0.45980  Biso   1.000  H
  H11      1.0000 0.40260  0.34880  0.04020  Biso   1.000  H
  H12      1.0000 0.59740  0.34880  0.45980  Biso   1.000  H
  H13      1.0000 0.09740  0.15120  0.95980  Biso   1.000  H
  H14      1.0000 0.90260  0.15120  0.54020  Biso   1.000  H
  H15      1.0000 0.59740  0.65120  0.95980  Biso   1.000  H
  H16      1.0000 0.40260  0.65120  0.54020  Biso   1.000  H
  C65      1.0000 0.88928  0.52210  0.01190  Biso   1.000  C
  C66      1.0000 0.11072  0.52210  0.48810  Biso   1.000  C
  C67      1.0000 0.38928  0.02210  0.01190  Biso   1.000  C
  C68      1.0000 0.61072  0.02210  0.48810  Biso   1.000  C
  C69      1.0000 0.11072  0.47790  0.98810  Biso   1.000  C
  C70      1.0000 0.88928  0.47790  0.51190  Biso   1.000  C
  C71      1.0000 0.61072  0.97790  0.98810  Biso   1.000  C
  C72      1.0000 0.38928  0.97790  0.51190  Biso   1.000  C
  H17      1.0000 0.86350  0.56270  0.98520  Biso   1.000  H
  H18      1.0000 0.13650  0.56270  0.51480  Biso   1.000  H
  H19      1.0000 0.36350  0.06270  0.98520  Biso   1.000  H
  H20      1.0000 0.63650  0.06270  0.51480  Biso   1.000  H
  H21      1.0000 0.13650  0.43730  0.01480  Biso   1.000  H
  H22      1.0000 0.86350  0.43730  0.48520  Biso   1.000  H
  H23      1.0000 0.63650  0.93730  0.01480  Biso   1.000  H
  H24      1.0000 0.36350  0.93730  0.48520  Biso   1.000  H
  C73      1.0000 0.91207  0.71750  0.04240  Biso   1.000  C
  C74      1.0000 0.08793  0.71750  0.45760  Biso   1.000  C
  C75      1.0000 0.41207  0.21750  0.04240  Biso   1.000  C
  C76      1.0000 0.58793  0.21750  0.45760  Biso   1.000  C
  C77      1.0000 0.08793  0.28250  0.95760  Biso   1.000  C
  C78      1.0000 0.91207  0.28250  0.54240  Biso   1.000  C
  C79      1.0000 0.58793  0.78250  0.95760  Biso   1.000  C
  C80      1.0000 0.41207  0.78250  0.54240  Biso   1.000  C
  H25      1.0000 0.87830  0.70310  0.01270  Biso   1.000  H
  H26      1.0000 0.12170  0.70310  0.48730  Biso   1.000  H
  H27      1.0000 0.37830  0.20310  0.01270  Biso   1.000  H
  H28      1.0000 0.62170  0.20310  0.48730  Biso   1.000  H
  H29      1.0000 0.12170  0.29690  0.98730  Biso   1.000  H
  H30      1.0000 0.87830  0.29690  0.51270  Biso   1.000  H
  H31      1.0000 0.62170  0.79690  0.98730  Biso   1.000  H
  H32      1.0000 0.37830  0.79690  0.51270  Biso   1.000  H
  C81      1.0000 0.04822  0.19680  0.16990  Biso   1.000  C
  C82      1.0000 0.95178  0.19680  0.33010  Biso   1.000  C
  C83      1.0000 0.54822  0.69680  0.16990  Biso   1.000  C
  C84      1.0000 0.45178  0.69680  0.33010  Biso   1.000  C
  C85      1.0000 0.95178  0.80320  0.83010  Biso   1.000  C
  C86      1.0000 0.04822  0.80320  0.66990  Biso   1.000  C
  C87      1.0000 0.45178  0.30320  0.83010  Biso   1.000  C
  C88      1.0000 0.54822  0.30320  0.66990  Biso   1.000  C
  H33      1.0000 0.04580  0.13460  0.17030  Biso   1.000  H
  H34      1.0000 0.95420  0.13460  0.32970  Biso   1.000  H
  H35      1.0000 0.54580  0.63460  0.17030  Biso   1.000  H
  H36      1.0000 0.45420  0.63460  0.32970  Biso   1.000  H
  H37      1.0000 0.95420  0.86540  0.82970  Biso   1.000  H
  H38      1.0000 0.04580  0.86540  0.67030  Biso   1.000  H
  H39      1.0000 0.45420  0.36540  0.82970  Biso   1.000  H
  H40      1.0000 0.54580  0.36540  0.67030  Biso   1.000  H
  C89      1.0000 0.00515  0.24640  0.12830  Biso   1.000  C
  C90      1.0000 0.99485  0.24640  0.37170  Biso   1.000  C
  C91      1.0000 0.50515  0.74640  0.12830  Biso   1.000  C
  C92      1.0000 0.49485  0.74640  0.37170  Biso   1.000  C
  C93      1.0000 0.99485  0.75360  0.87170  Biso   1.000  C
  C94      1.0000 0.00515  0.75360  0.62830  Biso   1.000  C
  C95      1.0000 0.49485  0.25360  0.87170  Biso   1.000  C
  C96      1.0000 0.50515  0.25360  0.62830  Biso   1.000  C
  H41      1.0000 0.97430  0.21850  0.09970  Biso   1.000  H
  H42      1.0000 0.02570  0.21850  0.40030  Biso   1.000  H
  H43      1.0000 0.47430  0.71850  0.09970  Biso   1.000  H
  H44      1.0000 0.52570  0.71850  0.40030  Biso   1.000  H
  H45      1.0000 0.02570  0.78150  0.90030  Biso   1.000  H
  H46      1.0000 0.97430  0.78150  0.59970  Biso   1.000  H
  H47      1.0000 0.52570  0.28150  0.90030  Biso   1.000  H
  H48      1.0000 0.47430  0.28150  0.59970  Biso   1.000  H
  C97      1.0000 0.13681  0.49140  0.25960  Biso   1.000  C
  C98      1.0000 0.86319  0.49140  0.24040  Biso   1.000  C
  C99      1.0000 0.63681  0.99140  0.25960  Biso   1.000  C
  C100     1.0000 0.36319  0.99140  0.24040  Biso   1.000  C
  C101     1.0000 0.86319  0.50860  0.74040  Biso   1.000  C
  C102     1.0000 0.13681  0.50860  0.75960  Biso   1.000  C
  C103     1.0000 0.36319  0.00860  0.74040  Biso   1.000  C
  C104     1.0000 0.63681  0.00860  0.75960  Biso   1.000  C
  H49      1.0000 0.12470  0.51230  0.19370  Biso   1.000  H
  H50      1.0000 0.87530  0.51230  0.30630  Biso   1.000  H
  H51      1.0000 0.62470  0.01230  0.19370  Biso   1.000  H
  H52      1.0000 0.37530  0.01230  0.30630  Biso   1.000  H
  H53      1.0000 0.87530  0.48770  0.80630  Biso   1.000  H
  H54      1.0000 0.12470  0.48770  0.69370  Biso   1.000  H
  H55      1.0000 0.37530  0.98770  0.80630  Biso   1.000  H
  H56      1.0000 0.62470  0.98770  0.69370  Biso   1.000  H
  H57      1.0000 0.10940  0.49890  0.29060  Biso   1.000  H
  H58      1.0000 0.89060  0.49890  0.20940  Biso   1.000  H
  H59      1.0000 0.60940  0.99890  0.29060  Biso   1.000  H
  H60      1.0000 0.39060  0.99890  0.20940  Biso   1.000  H
  H61      1.0000 0.89060  0.50110  0.70940  Biso   1.000  H
  H62      1.0000 0.10940  0.50110  0.79060  Biso   1.000  H
  H63      1.0000 0.39060  0.00110  0.70940  Biso   1.000  H
  H64      1.0000 0.60940  0.00110  0.79060  Biso   1.000  H
  C105     1.0000 0.91841  0.36960  0.04160  Biso   1.000  C
  C106     1.0000 0.08159  0.36960  0.45840  Biso   1.000  C
  C107     1.0000 0.41841  0.86960  0.04160  Biso   1.000  C
  C108     1.0000 0.58159  0.86960  0.45840  Biso   1.000  C
  C109     1.0000 0.08159  0.63040  0.95840  Biso   1.000  C
  C110     1.0000 0.91841  0.63040  0.54160  Biso   1.000  C
  C111     1.0000 0.58159  0.13040  0.95840  Biso   1.000  C
  C112     1.0000 0.41841  0.13040  0.54160  Biso   1.000  C
  H65      1.0000 0.91240  0.30830  0.03520  Biso   1.000  H
  H66      1.0000 0.08760  0.30830  0.46480  Biso   1.000  H
  H67      1.0000 0.41240  0.80830  0.03520  Biso   1.000  H
  H68      1.0000 0.58760  0.80830  0.46480  Biso   1.000  H
  H69      1.0000 0.08760  0.69170  0.96480  Biso   1.000  H
  H70      1.0000 0.91240  0.69170  0.53520  Biso   1.000  H
  H71      1.0000 0.58760  0.19170  0.96480  Biso   1.000  H
  H72      1.0000 0.41240  0.19170  0.53520  Biso   1.000  H
  C113     1.0000 0.18173  0.54580  0.31120  Biso   1.000  C
  C114     1.0000 0.81827  0.54580  0.18880  Biso   1.000  C
  C115     1.0000 0.68173  0.04580  0.31120  Biso   1.000  C
  C116     1.0000 0.31827  0.04580  0.18880  Biso   1.000  C
  C117     1.0000 0.81827  0.45420  0.68880  Biso   1.000  C
  C118     1.0000 0.18173  0.45420  0.81120  Biso   1.000  C
  C119     1.0000 0.31827  0.95420  0.68880  Biso   1.000  C
  C120     1.0000 0.68173  0.95420  0.81120  Biso   1.000  C
  H73      1.0000 0.17210  0.60780  0.31040  Biso   1.000  H
  H74      1.0000 0.82790  0.60780  0.18960  Biso   1.000  H
  H75      1.0000 0.67210  0.10780  0.31040  Biso   1.000  H
  H76      1.0000 0.32790  0.10780  0.18960  Biso   1.000  H
  H77      1.0000 0.82790  0.39220  0.68960  Biso   1.000  H
  H78      1.0000 0.17210  0.39220  0.81040  Biso   1.000  H
  H79      1.0000 0.32790  0.89220  0.68960  Biso   1.000  H
  H80      1.0000 0.67210  0.89220  0.81040  Biso   1.000  H
  H81      1.0000 0.20860  0.53920  0.27980  Biso   1.000  H
  H82      1.0000 0.79140  0.53920  0.22020  Biso   1.000  H
  H83      1.0000 0.70860  0.03920  0.27980  Biso   1.000  H
  H84      1.0000 0.29140  0.03920  0.22020  Biso   1.000  H
  H85      1.0000 0.79140  0.46080  0.72020  Biso   1.000  H
  H86      1.0000 0.20860  0.46080  0.77980  Biso   1.000  H
  H87      1.0000 0.29140  0.96080  0.72020  Biso   1.000  H
  H88      1.0000 0.70860  0.96080  0.77980  Biso   1.000  H
  H89      1.0000 0.19340  0.52560  0.37660  Biso   1.000  H
  H90      1.0000 0.80660  0.52560  0.12340  Biso   1.000  H
  H91      1.0000 0.69340  0.02560  0.37660  Biso   1.000  H
  H92      1.0000 0.30660  0.02560  0.12340  Biso   1.000  H
  H93      1.0000 0.80660  0.47440  0.62340  Biso   1.000  H
  H94      1.0000 0.19340  0.47440  0.87660  Biso   1.000  H
  H95      1.0000 0.30660  0.97440  0.62340  Biso   1.000  H
  H96      1.0000 0.69340  0.97440  0.87660  Biso   1.000  H
  N33      1.0000 0.79206  0.46720  0.92550  Biso   1.000  N
  N34      1.0000 0.20794  0.46720  0.57450  Biso   1.000  N
  N35      1.0000 0.29206  0.96720  0.92550  Biso   1.000  N
  N36      1.0000 0.70794  0.96720  0.57450  Biso   1.000  N
  N37      1.0000 0.20794  0.53280  0.07450  Biso   1.000  N
  N38      1.0000 0.79206  0.53280  0.42550  Biso   1.000  N
  N39      1.0000 0.70794  0.03280  0.07450  Biso   1.000  N
  N40      1.0000 0.29206  0.03280  0.42550  Biso   1.000  N
  C121     1.0000 0.82666  0.40100  0.95270  Biso   1.000  C
  C122     1.0000 0.17334  0.40100  0.54730  Biso   1.000  C
  C123     1.0000 0.32666  0.90100  0.95270  Biso   1.000  C
  C124     1.0000 0.67334  0.90100  0.54730  Biso   1.000  C
  C125     1.0000 0.17334  0.59900  0.04730  Biso   1.000  C
  C126     1.0000 0.82666  0.59900  0.45270  Biso   1.000  C
  C127     1.0000 0.67334  0.09900  0.04730  Biso   1.000  C
  C128     1.0000 0.32666  0.09900  0.45270  Biso   1.000  C
  C129     1.0000 0.87892  0.43070  0.00280  Biso   1.000  C
  C130     1.0000 0.12108  0.43070  0.49720  Biso   1.000  C
  C131     1.0000 0.37892  0.93070  0.00280  Biso   1.000  C
  C132     1.0000 0.62108  0.93070  0.49720  Biso   1.000  C
  C133     1.0000 0.12108  0.56930  0.99720  Biso   1.000  C
  C134     1.0000 0.87892  0.56930  0.50280  Biso   1.000  C
  C135     1.0000 0.62108  0.06930  0.99720  Biso   1.000  C
  C136     1.0000 0.37892  0.06930  0.50280  Biso   1.000  C
  C137     1.0000 0.81217  0.31260  0.93290  Biso   1.000  C
  C138     1.0000 0.18783  0.31260  0.56710  Biso   1.000  C
  C139     1.0000 0.31217  0.81260  0.93290  Biso   1.000  C
  C140     1.0000 0.68783  0.81260  0.56710  Biso   1.000  C
  C141     1.0000 0.18783  0.68740  0.06710  Biso   1.000  C
  C142     1.0000 0.81217  0.68740  0.43290  Biso   1.000  C
  C143     1.0000 0.68783  0.18740  0.06710  Biso   1.000  C
  C144     1.0000 0.31217  0.18740  0.43290  Biso   1.000  C
  H97      1.0000 0.83560  0.26620  0.95100  Biso   1.000  H
  H98      1.0000 0.16440  0.26620  0.54900  Biso   1.000  H
  H99      1.0000 0.33560  0.76620  0.95100  Biso   1.000  H
  H100     1.0000 0.66440  0.76620  0.54900  Biso   1.000  H
  H101     1.0000 0.16440  0.73380  0.04900  Biso   1.000  H
  H102     1.0000 0.83560  0.73380  0.45100  Biso   1.000  H
  H103     1.0000 0.66440  0.23380  0.04900  Biso   1.000  H
  H104     1.0000 0.33560  0.23380  0.45100  Biso   1.000  H
  S17      1.0000 0.69990  0.52983  0.84417  Biso   1.000  S
  S18      1.0000 0.30010  0.52983  0.65583  Biso   1.000  S
  S19      1.0000 0.19990  0.02983  0.84417  Biso   1.000  S
  S20      1.0000 0.80010  0.02983  0.65583  Biso   1.000  S
  S21      1.0000 0.30010  0.47017  0.15583  Biso   1.000  S
  S22      1.0000 0.69990  0.47017  0.34417  Biso   1.000  S
  S23      1.0000 0.80010  0.97017  0.15583  Biso   1.000  S
  S24      1.0000 0.19990  0.97017  0.34417  Biso   1.000  S
  C145     1.0000 0.76238  0.29580  0.88610  Biso   1.000  C
  C146     1.0000 0.23762  0.29580  0.61390  Biso   1.000  C
  C147     1.0000 0.26238  0.79580  0.88610  Biso   1.000  C
  C148     1.0000 0.73762  0.79580  0.61390  Biso   1.000  C
  C149     1.0000 0.23762  0.70420  0.11390  Biso   1.000  C
  C150     1.0000 0.76238  0.70420  0.38610  Biso   1.000  C
  C151     1.0000 0.73762  0.20420  0.11390  Biso   1.000  C
  C152     1.0000 0.26238  0.20420  0.38610  Biso   1.000  C
  H105     1.0000 0.75200  0.23660  0.87380  Biso   1.000  H
  H106     1.0000 0.24800  0.23660  0.62620  Biso   1.000  H
  H107     1.0000 0.25200  0.73660  0.87380  Biso   1.000  H
  H108     1.0000 0.74800  0.73660  0.62620  Biso   1.000  H
  H109     1.0000 0.24800  0.76340  0.12620  Biso   1.000  H
  H110     1.0000 0.75200  0.76340  0.37380  Biso   1.000  H
  H111     1.0000 0.74800  0.26340  0.12620  Biso   1.000  H
  H112     1.0000 0.25200  0.26340  0.37380  Biso   1.000  H
  C153     1.0000 0.74469  0.44550  0.88030  Biso   1.000  C
  C154     1.0000 0.25531  0.44550  0.61970  Biso   1.000  C
  C155     1.0000 0.24469  0.94550  0.88030  Biso   1.000  C
  C156     1.0000 0.75531  0.94550  0.61970  Biso   1.000  C
  C157     1.0000 0.25531  0.55450  0.11970  Biso   1.000  C
  C158     1.0000 0.74469  0.55450  0.38030  Biso   1.000  C
  C159     1.0000 0.75531  0.05450  0.11970  Biso   1.000  C
  C160     1.0000 0.24469  0.05450  0.38030  Biso   1.000  C
  C161     1.0000 0.73660  0.62870  0.88370  Biso   1.000  C
  C162     1.0000 0.26340  0.62870  0.61630  Biso   1.000  C
  C163     1.0000 0.23660  0.12870  0.88370  Biso   1.000  C
  C164     1.0000 0.76340  0.12870  0.61630  Biso   1.000  C
  C165     1.0000 0.26340  0.37130  0.11630  Biso   1.000  C
  C166     1.0000 0.73660  0.37130  0.38370  Biso   1.000  C
  C167     1.0000 0.76340  0.87130  0.11630  Biso   1.000  C
  C168     1.0000 0.23660  0.87130  0.38370  Biso   1.000  C
  H113     1.0000 0.75170  0.62540  0.95260  Biso   1.000  H
  H114     1.0000 0.24830  0.62540  0.54740  Biso   1.000  H
  H115     1.0000 0.25170  0.12540  0.95260  Biso   1.000  H
  H116     1.0000 0.74830  0.12540  0.54740  Biso   1.000  H
  H117     1.0000 0.24830  0.37460  0.04740  Biso   1.000  H
  H118     1.0000 0.75170  0.37460  0.45260  Biso   1.000  H
  H119     1.0000 0.74830  0.87460  0.04740  Biso   1.000  H
  H120     1.0000 0.25170  0.87460  0.45260  Biso   1.000  H
  H121     1.0000 0.76400  0.63250  0.85230  Biso   1.000  H
  H122     1.0000 0.23600  0.63250  0.64770  Biso   1.000  H
  H123     1.0000 0.26400  0.13250  0.85230  Biso   1.000  H
  H124     1.0000 0.73600  0.13250  0.64770  Biso   1.000  H
  H125     1.0000 0.23600  0.36750  0.14770  Biso   1.000  H
  H126     1.0000 0.76400  0.36750  0.35230  Biso   1.000  H
  H127     1.0000 0.73600  0.86750  0.14770  Biso   1.000  H
  H128     1.0000 0.26400  0.86750  0.35230  Biso   1.000  H
  C169     1.0000 0.07430  0.90510  0.18330  Biso   1.000  C
  C170     1.0000 0.92570  0.90510  0.31670  Biso   1.000  C
  C171     1.0000 0.57430  0.40510  0.18330  Biso   1.000  C
  C172     1.0000 0.42570  0.40510  0.31670  Biso   1.000  C
  C173     1.0000 0.92570  0.09490  0.81670  Biso   1.000  C
  C174     1.0000 0.07430  0.09490  0.68330  Biso   1.000  C
  C175     1.0000 0.42570  0.59490  0.81670  Biso   1.000  C
  C176     1.0000 0.57430  0.59490  0.68330  Biso   1.000  C
  H129     1.0000 0.04580  0.92540  0.20660  Biso   1.000  H
  H130     1.0000 0.95420  0.92540  0.29340  Biso   1.000  H
  H131     1.0000 0.54580  0.42540  0.20660  Biso   1.000  H
  H132     1.0000 0.45420  0.42540  0.29340  Biso   1.000  H
  H133     1.0000 0.95420  0.07460  0.79340  Biso   1.000  H
  H134     1.0000 0.04580  0.07460  0.70660  Biso   1.000  H
  H135     1.0000 0.45420  0.57460  0.79340  Biso   1.000  H
  H136     1.0000 0.54580  0.57460  0.70660  Biso   1.000  H
  H137     1.0000 0.10560  0.92360  0.22920  Biso   1.000  H
  H138     1.0000 0.89440  0.92360  0.27080  Biso   1.000  H
  H139     1.0000 0.60560  0.42360  0.22920  Biso   1.000  H
  H140     1.0000 0.39440  0.42360  0.27080  Biso   1.000  H
  H141     1.0000 0.89440  0.07640  0.77080  Biso   1.000  H
  H142     1.0000 0.10560  0.07640  0.72920  Biso   1.000  H
  H143     1.0000 0.39440  0.57640  0.77080  Biso   1.000  H
  H144     1.0000 0.60560  0.57640  0.72920  Biso   1.000  H
  N41      1.0000 0.72763  0.36130  0.85690  Biso   1.000  N
  N42      1.0000 0.27237  0.36130  0.64310  Biso   1.000  N
  N43      1.0000 0.22763  0.86130  0.85690  Biso   1.000  N
  N44      1.0000 0.77237  0.86130  0.64310  Biso   1.000  N
  N45      1.0000 0.27237  0.63870  0.14310  Biso   1.000  N
  N46      1.0000 0.72763  0.63870  0.35690  Biso   1.000  N
  N47      1.0000 0.77237  0.13870  0.14310  Biso   1.000  N
  N48      1.0000 0.22763  0.13870  0.35690  Biso   1.000  N
  C177     1.0000 0.70500  0.70750  0.86150  Biso   1.000  C
  C178     1.0000 0.29500  0.70750  0.63850  Biso   1.000  C
  C179     1.0000 0.20500  0.20750  0.86150  Biso   1.000  C
  C180     1.0000 0.79500  0.20750  0.63850  Biso   1.000  C
  C181     1.0000 0.29500  0.29250  0.13850  Biso   1.000  C
  C182     1.0000 0.70500  0.29250  0.36150  Biso   1.000  C
  C183     1.0000 0.79500  0.79250  0.13850  Biso   1.000  C
  C184     1.0000 0.20500  0.79250  0.36150  Biso   1.000  C
  H145     1.0000 0.72530  0.75980  0.88380  Biso   1.000  H
  H146     1.0000 0.27470  0.75980  0.61620  Biso   1.000  H
  H147     1.0000 0.22530  0.25980  0.88380  Biso   1.000  H
  H148     1.0000 0.77470  0.25980  0.61620  Biso   1.000  H
  H149     1.0000 0.27470  0.24020  0.11620  Biso   1.000  H
  H150     1.0000 0.72530  0.24020  0.38380  Biso   1.000  H
  H151     1.0000 0.77470  0.74020  0.11620  Biso   1.000  H
  H152     1.0000 0.22530  0.74020  0.38380  Biso   1.000  H
  H153     1.0000 0.67800  0.70380  0.89290  Biso   1.000  H
  H154     1.0000 0.32200  0.70380  0.60710  Biso   1.000  H
  H155     1.0000 0.17800  0.20380  0.89290  Biso   1.000  H
  H156     1.0000 0.82200  0.20380  0.60710  Biso   1.000  H
  H157     1.0000 0.32200  0.29620  0.10710  Biso   1.000  H
  H158     1.0000 0.67800  0.29620  0.39290  Biso   1.000  H
  H159     1.0000 0.82200  0.79620  0.10710  Biso   1.000  H
  H160     1.0000 0.17800  0.79620  0.39290  Biso   1.000  H
  H161     1.0000 0.69070  0.71150  0.79310  Biso   1.000  H
  H162     1.0000 0.30930  0.71150  0.70690  Biso   1.000  H
  H163     1.0000 0.19070  0.21150  0.79310  Biso   1.000  H
  H164     1.0000 0.80930  0.21150  0.70690  Biso   1.000  H
  H165     1.0000 0.30930  0.28850  0.20690  Biso   1.000  H
  H166     1.0000 0.69070  0.28850  0.29310  Biso   1.000  H
  H167     1.0000 0.80930  0.78850  0.20690  Biso   1.000  H
  H168     1.0000 0.19070  0.78850  0.29310  Biso   1.000  H
  C185     1.0000 0.07140  0.94490  0.09220  Biso   1.000  C
  C186     1.0000 0.92860  0.94490  0.40780  Biso   1.000  C
  C187     1.0000 0.57140  0.44490  0.09220  Biso   1.000  C
  C188     1.0000 0.42860  0.44490  0.40780  Biso   1.000  C
  C189     1.0000 0.92860  0.05510  0.90780  Biso   1.000  C
  C190     1.0000 0.07140  0.05510  0.59220  Biso   1.000  C
  C191     1.0000 0.42860  0.55510  0.90780  Biso   1.000  C
  C192     1.0000 0.57140  0.55510  0.59220  Biso   1.000  C
  H169     1.0000 0.07170  0.00890  0.09830  Biso   1.000  H
  H170     1.0000 0.92830  0.00890  0.40170  Biso   1.000  H
  H171     1.0000 0.57170  0.50890  0.09830  Biso   1.000  H
  H172     1.0000 0.42830  0.50890  0.40170  Biso   1.000  H
  H173     1.0000 0.92830  0.99110  0.90170  Biso   1.000  H
  H174     1.0000 0.07170  0.99110  0.59830  Biso   1.000  H
  H175     1.0000 0.42830  0.49110  0.90170  Biso   1.000  H
  H176     1.0000 0.57170  0.49110  0.59830  Biso   1.000  H
  H177     1.0000 0.04050  0.92630  0.04670  Biso   1.000  H
  H178     1.0000 0.95950  0.92630  0.45330  Biso   1.000  H
  H179     1.0000 0.54050  0.42630  0.04670  Biso   1.000  H
  H180     1.0000 0.45950  0.42630  0.45330  Biso   1.000  H
  H181     1.0000 0.95950  0.07370  0.95330  Biso   1.000  H
  H182     1.0000 0.04050  0.07370  0.54670  Biso   1.000  H
  H183     1.0000 0.45950  0.57370  0.95330  Biso   1.000  H
  H184     1.0000 0.54050  0.57370  0.54670  Biso   1.000  H
  H185     1.0000 0.10020  0.92620  0.07010  Biso   1.000  H
  H186     1.0000 0.89980  0.92620  0.42990  Biso   1.000  H
  H187     1.0000 0.60020  0.42620  0.07010  Biso   1.000  H
  H188     1.0000 0.39980  0.42620  0.42990  Biso   1.000  H
  H189     1.0000 0.89980  0.07380  0.92990  Biso   1.000  H
  H190     1.0000 0.10020  0.07380  0.57010  Biso   1.000  H
  H191     1.0000 0.39980  0.57380  0.92990  Biso   1.000  H
  H192     1.0000 0.60020  0.57380  0.57010  Biso   1.000  H
  O1       1.0000 0.79010  0.08060  0.90810  Biso   1.000  O
  O2       1.0000 0.20990  0.08060  0.59190  Biso   1.000  O
  O3       1.0000 0.29010  0.58060  0.90810  Biso   1.000  O
  O4       1.0000 0.70990  0.58060  0.59190  Biso   1.000  O
  O5       1.0000 0.20990  0.91940  0.09190  Biso   1.000  O
  O6       1.0000 0.79010  0.91940  0.40810  Biso   1.000  O
  O7       1.0000 0.70990  0.41940  0.09190  Biso   1.000  O
  O8       1.0000 0.29010  0.41940  0.40810  Biso   1.000  O
  H193     1.0000 0.82230  0.09200  0.93400  Biso   1.000  H
  H194     1.0000 0.17770  0.09200  0.56600  Biso   1.000  H
  H195     1.0000 0.32230  0.59200  0.93400  Biso   1.000  H
  H196     1.0000 0.67770  0.59200  0.56600  Biso   1.000  H
  H197     1.0000 0.17770  0.90800  0.06600  Biso   1.000  H
  H198     1.0000 0.82230  0.90800  0.43400  Biso   1.000  H
  H199     1.0000 0.67770  0.40800  0.06600  Biso   1.000  H
  H200     1.0000 0.32230  0.40800  0.43400  Biso   1.000  H
  H201     1.0000 0.78700  0.02300  0.89200  Biso   1.000  H
  H202     1.0000 0.21300  0.02300  0.60800  Biso   1.000  H
  H203     1.0000 0.28700  0.52300  0.89200  Biso   1.000  H
  H204     1.0000 0.71300  0.52300  0.60800  Biso   1.000  H
  H205     1.0000 0.21300  0.97700  0.10800  Biso   1.000  H
  H206     1.0000 0.78700  0.97700  0.39200  Biso   1.000  H
  H207     1.0000 0.71300  0.47700  0.10800  Biso   1.000  H
  H208     1.0000 0.28700  0.47700  0.39200  Biso   1.000  H
