data_image0
_cell_length_a       13.18
_cell_length_b       9.75
_cell_length_c       25.22
_cell_angle_alpha    90
_cell_angle_beta     90
_cell_angle_gamma    90

_symmetry_space_group_name_H-M    "P 1"
_symmetry_int_tables_number       1

loop_
  _symmetry_equiv_pos_as_xyz
  'x, y, z'

loop_
  _atom_site_label
  _atom_site_occupancy
  _atom_site_fract_x
  _atom_site_fract_y
  _atom_site_fract_z
  _atom_site_thermal_displace_type
  _atom_site_B_iso_or_equiv
  _atom_site_type_symbol
  Cu1      1.0000 0.51603  0.16690  0.66091  Biso   1.000  Cu
  Cu2      1.0000 0.98397  0.83310  0.16091  Biso   1.000  Cu
  Cu3      1.0000 0.01603  0.33310  0.33909  Biso   1.000  Cu
  Cu4      1.0000 0.48397  0.66690  0.83909  Biso   1.000  Cu
  Cu5      1.0000 0.48397  0.83310  0.33909  Biso   1.000  Cu
  Cu6      1.0000 0.01603  0.16690  0.83909  Biso   1.000  Cu
  Cu7      1.0000 0.98397  0.66690  0.66091  Biso   1.000  Cu
  Cu8      1.0000 0.51603  0.33310  0.16091  Biso   1.000  Cu
  O1       1.0000 0.48530  0.26410  0.72511  Biso   1.000  O
  O2       1.0000 0.01470  0.73590  0.22511  Biso   1.000  O
  O3       1.0000 0.98530  0.23590  0.27489  Biso   1.000  O
  O4       1.0000 0.51470  0.76410  0.77489  Biso   1.000  O
  O5       1.0000 0.51470  0.73590  0.27489  Biso   1.000  O
  O6       1.0000 0.98530  0.26410  0.77489  Biso   1.000  O
  O7       1.0000 0.01470  0.76410  0.72511  Biso   1.000  O
  O8       1.0000 0.48530  0.23590  0.22511  Biso   1.000  O
  O9       1.0000 0.48040  0.41700  0.78847  Biso   1.000  O
  O10      1.0000 0.01960  0.58300  0.28847  Biso   1.000  O
  O11      1.0000 0.98040  0.08300  0.21153  Biso   1.000  O
  O12      1.0000 0.51960  0.91700  0.71153  Biso   1.000  O
  O13      1.0000 0.51960  0.58300  0.21153  Biso   1.000  O
  O14      1.0000 0.98040  0.41700  0.71153  Biso   1.000  O
  O15      1.0000 0.01960  0.91700  0.78847  Biso   1.000  O
  O16      1.0000 0.48040  0.08300  0.28847  Biso   1.000  O
  O17      1.0000 0.66130  0.16760  0.67165  Biso   1.000  O
  O18      1.0000 0.83870  0.83240  0.17165  Biso   1.000  O
  O19      1.0000 0.16130  0.33240  0.32835  Biso   1.000  O
  O20      1.0000 0.33870  0.66760  0.82835  Biso   1.000  O
  O21      1.0000 0.33870  0.83240  0.32835  Biso   1.000  O
  O22      1.0000 0.16130  0.16760  0.82835  Biso   1.000  O
  O23      1.0000 0.83870  0.66760  0.67165  Biso   1.000  O
  O24      1.0000 0.66130  0.33240  0.17165  Biso   1.000  O
  N1       1.0000 0.52590  0.02790  0.60217  Biso   1.000  N
  N2       1.0000 0.97410  0.97210  0.10217  Biso   1.000  N
  N3       1.0000 0.02590  0.47210  0.39783  Biso   1.000  N
  N4       1.0000 0.47410  0.52790  0.89783  Biso   1.000  N
  N5       1.0000 0.47410  0.97210  0.39783  Biso   1.000  N
  N6       1.0000 0.02590  0.02790  0.89783  Biso   1.000  N
  N7       1.0000 0.97410  0.52790  0.60217  Biso   1.000  N
  N8       1.0000 0.52590  0.47210  0.10217  Biso   1.000  N
  N9       1.0000 0.36640  0.14180  0.64758  Biso   1.000  N
  N10      1.0000 0.13360  0.85820  0.14758  Biso   1.000  N
  N11      1.0000 0.86640  0.35820  0.35242  Biso   1.000  N
  N12      1.0000 0.63360  0.64180  0.85242  Biso   1.000  N
  N13      1.0000 0.63360  0.85820  0.35242  Biso   1.000  N
  N14      1.0000 0.86640  0.14180  0.85242  Biso   1.000  N
  N15      1.0000 0.13360  0.64180  0.64758  Biso   1.000  N
  N16      1.0000 0.36640  0.35820  0.14758  Biso   1.000  N
  O25      1.0000 0.51460  0.35380  0.59910  Biso   1.000  O
  O26      1.0000 0.98540  0.64620  0.09910  Biso   1.000  O
  O27      1.0000 0.01460  0.14620  0.40090  Biso   1.000  O
  O28      1.0000 0.48540  0.85380  0.90090  Biso   1.000  O
  O29      1.0000 0.48540  0.64620  0.40090  Biso   1.000  O
  O30      1.0000 0.01460  0.35380  0.90090  Biso   1.000  O
  O31      1.0000 0.98540  0.85380  0.59910  Biso   1.000  O
  O32      1.0000 0.51460  0.14620  0.09910  Biso   1.000  O
  C1       1.0000 0.60730  0.97180  0.58120  Biso   1.000  C
  C2       1.0000 0.89270  0.02820  0.08120  Biso   1.000  C
  C3       1.0000 0.10730  0.52820  0.41880  Biso   1.000  C
  C4       1.0000 0.39270  0.47180  0.91880  Biso   1.000  C
  C5       1.0000 0.39270  0.02820  0.41880  Biso   1.000  C
  C6       1.0000 0.10730  0.97180  0.91880  Biso   1.000  C
  C7       1.0000 0.89270  0.47180  0.58120  Biso   1.000  C
  C8       1.0000 0.60730  0.52820  0.08120  Biso   1.000  C
  C9       1.0000 0.60130  0.86550  0.54400  Biso   1.000  C
  C10      1.0000 0.89870  0.13450  0.04400  Biso   1.000  C
  C11      1.0000 0.10130  0.63450  0.45600  Biso   1.000  C
  C12      1.0000 0.39870  0.36550  0.95600  Biso   1.000  C
  C13      1.0000 0.39870  0.13450  0.45600  Biso   1.000  C
  C14      1.0000 0.10130  0.86550  0.95600  Biso   1.000  C
  C15      1.0000 0.89870  0.36550  0.54400  Biso   1.000  C
  C16      1.0000 0.60130  0.63450  0.04400  Biso   1.000  C
  C17      1.0000 0.50840  0.81970  0.52670  Biso   1.000  C
  C18      1.0000 0.99160  0.18030  0.02670  Biso   1.000  C
  C19      1.0000 0.00840  0.68030  0.47330  Biso   1.000  C
  C20      1.0000 0.49160  0.31970  0.97330  Biso   1.000  C
  C21      1.0000 0.49160  0.18030  0.47330  Biso   1.000  C
  C22      1.0000 0.00840  0.81970  0.97330  Biso   1.000  C
  C23      1.0000 0.99160  0.31970  0.52670  Biso   1.000  C
  C24      1.0000 0.50840  0.68030  0.02670  Biso   1.000  C
  C25      1.0000 0.42020  0.88250  0.54800  Biso   1.000  C
  C26      1.0000 0.07980  0.11750  0.04800  Biso   1.000  C
  C27      1.0000 0.92020  0.61750  0.45200  Biso   1.000  C
  C28      1.0000 0.57980  0.38250  0.95200  Biso   1.000  C
  C29      1.0000 0.57980  0.11750  0.45200  Biso   1.000  C
  C30      1.0000 0.92020  0.88250  0.95200  Biso   1.000  C
  C31      1.0000 0.07980  0.38250  0.54800  Biso   1.000  C
  C32      1.0000 0.42020  0.61750  0.04800  Biso   1.000  C
  C33      1.0000 0.31910  0.84510  0.53260  Biso   1.000  C
  C34      1.0000 0.18090  0.15490  0.03260  Biso   1.000  C
  C35      1.0000 0.81910  0.65490  0.46740  Biso   1.000  C
  C36      1.0000 0.68090  0.34510  0.96740  Biso   1.000  C
  C37      1.0000 0.68090  0.15490  0.46740  Biso   1.000  C
  C38      1.0000 0.81910  0.84510  0.96740  Biso   1.000  C
  C39      1.0000 0.18090  0.34510  0.53260  Biso   1.000  C
  C40      1.0000 0.31910  0.65490  0.03260  Biso   1.000  C
  C41      1.0000 0.23720  0.90640  0.55460  Biso   1.000  C
  C42      1.0000 0.26280  0.09360  0.05460  Biso   1.000  C
  C43      1.0000 0.73720  0.59360  0.44540  Biso   1.000  C
  C44      1.0000 0.76280  0.40640  0.94540  Biso   1.000  C
  C45      1.0000 0.76280  0.09360  0.44540  Biso   1.000  C
  C46      1.0000 0.73720  0.90640  0.94540  Biso   1.000  C
  C47      1.0000 0.26280  0.40640  0.55460  Biso   1.000  C
  C48      1.0000 0.23720  0.59360  0.05460  Biso   1.000  C
  C49      1.0000 0.24880  0.00850  0.59520  Biso   1.000  C
  C50      1.0000 0.25120  0.99150  0.09520  Biso   1.000  C
  C51      1.0000 0.74880  0.49150  0.40480  Biso   1.000  C
  C52      1.0000 0.75120  0.50850  0.90480  Biso   1.000  C
  C53      1.0000 0.75120  0.99150  0.40480  Biso   1.000  C
  C54      1.0000 0.74880  0.00850  0.90480  Biso   1.000  C
  C55      1.0000 0.25120  0.50850  0.59520  Biso   1.000  C
  C56      1.0000 0.24880  0.49150  0.09520  Biso   1.000  C
  C57      1.0000 0.16750  0.07420  0.62160  Biso   1.000  C
  C58      1.0000 0.33250  0.92580  0.12160  Biso   1.000  C
  C59      1.0000 0.66750  0.42580  0.37840  Biso   1.000  C
  C60      1.0000 0.83250  0.57420  0.87840  Biso   1.000  C
  C61      1.0000 0.83250  0.92580  0.37840  Biso   1.000  C
  C62      1.0000 0.66750  0.07420  0.87840  Biso   1.000  C
  C63      1.0000 0.33250  0.57420  0.62160  Biso   1.000  C
  C64      1.0000 0.16750  0.42580  0.12160  Biso   1.000  C
  C65      1.0000 0.18920  0.16980  0.65910  Biso   1.000  C
  C66      1.0000 0.31080  0.83020  0.15910  Biso   1.000  C
  C67      1.0000 0.68920  0.33020  0.34090  Biso   1.000  C
  C68      1.0000 0.81080  0.66980  0.84090  Biso   1.000  C
  C69      1.0000 0.81080  0.83020  0.34090  Biso   1.000  C
  C70      1.0000 0.68920  0.16980  0.84090  Biso   1.000  C
  C71      1.0000 0.31080  0.66980  0.65910  Biso   1.000  C
  C72      1.0000 0.18920  0.33020  0.15910  Biso   1.000  C
  C73      1.0000 0.28790  0.20140  0.67140  Biso   1.000  C
  C74      1.0000 0.21210  0.79860  0.17140  Biso   1.000  C
  C75      1.0000 0.78790  0.29860  0.32860  Biso   1.000  C
  C76      1.0000 0.71210  0.70140  0.82860  Biso   1.000  C
  C77      1.0000 0.71210  0.79860  0.32860  Biso   1.000  C
  C78      1.0000 0.78790  0.20140  0.82860  Biso   1.000  C
  C79      1.0000 0.21210  0.70140  0.67140  Biso   1.000  C
  C80      1.0000 0.28790  0.29860  0.17140  Biso   1.000  C
  C81      1.0000 0.34700  0.04680  0.61035  Biso   1.000  C
  C82      1.0000 0.15300  0.95320  0.11035  Biso   1.000  C
  C83      1.0000 0.84700  0.45320  0.38965  Biso   1.000  C
  C84      1.0000 0.65300  0.54680  0.88965  Biso   1.000  C
  C85      1.0000 0.65300  0.95320  0.38965  Biso   1.000  C
  C86      1.0000 0.84700  0.04680  0.88965  Biso   1.000  C
  C87      1.0000 0.15300  0.54680  0.61035  Biso   1.000  C
  C88      1.0000 0.34700  0.45320  0.11035  Biso   1.000  C
  C89      1.0000 0.43400  0.98360  0.58641  Biso   1.000  C
  C90      1.0000 0.06600  0.01640  0.08641  Biso   1.000  C
  C91      1.0000 0.93400  0.51640  0.41359  Biso   1.000  C
  C92      1.0000 0.56600  0.48360  0.91359  Biso   1.000  C
  C93      1.0000 0.56600  0.01640  0.41359  Biso   1.000  C
  C94      1.0000 0.93400  0.98360  0.91359  Biso   1.000  C
  C95      1.0000 0.06600  0.48360  0.58641  Biso   1.000  C
  C96      1.0000 0.43400  0.51640  0.08641  Biso   1.000  C
  C97      1.0000 0.52120  0.36820  0.74884  Biso   1.000  C
  C98      1.0000 0.97880  0.63180  0.24884  Biso   1.000  C
  C99      1.0000 0.02120  0.13180  0.25116  Biso   1.000  C
  C100     1.0000 0.47880  0.86820  0.75116  Biso   1.000  C
  C101     1.0000 0.47880  0.63180  0.25116  Biso   1.000  C
  C102     1.0000 0.02120  0.36820  0.75116  Biso   1.000  C
  C103     1.0000 0.97880  0.86820  0.74884  Biso   1.000  C
  C104     1.0000 0.52120  0.13180  0.24884  Biso   1.000  C
  C105     1.0000 0.61540  0.43730  0.73170  Biso   1.000  C
  C106     1.0000 0.88460  0.56270  0.23170  Biso   1.000  C
  C107     1.0000 0.11540  0.06270  0.26830  Biso   1.000  C
  C108     1.0000 0.38460  0.93730  0.76830  Biso   1.000  C
  C109     1.0000 0.38460  0.56270  0.26830  Biso   1.000  C
  C110     1.0000 0.11540  0.43730  0.76830  Biso   1.000  C
  C111     1.0000 0.88460  0.93730  0.73170  Biso   1.000  C
  C112     1.0000 0.61540  0.06270  0.23170  Biso   1.000  C
  C113     1.0000 0.70040  0.39180  0.70730  Biso   1.000  C
  C114     1.0000 0.79960  0.60820  0.20730  Biso   1.000  C
  C115     1.0000 0.20040  0.10820  0.29270  Biso   1.000  C
  C116     1.0000 0.29960  0.89180  0.79270  Biso   1.000  C
  C117     1.0000 0.29960  0.60820  0.29270  Biso   1.000  C
  C118     1.0000 0.20040  0.39180  0.79270  Biso   1.000  C
  C119     1.0000 0.79960  0.89180  0.70730  Biso   1.000  C
  C120     1.0000 0.70040  0.10820  0.20730  Biso   1.000  C
  C121     1.0000 0.72450  0.25980  0.68313  Biso   1.000  C
  C122     1.0000 0.77550  0.74020  0.18313  Biso   1.000  C
  C123     1.0000 0.22450  0.24020  0.31687  Biso   1.000  C
  C124     1.0000 0.27550  0.75980  0.81687  Biso   1.000  C
  C125     1.0000 0.27550  0.74020  0.31687  Biso   1.000  C
  C126     1.0000 0.22450  0.25980  0.81687  Biso   1.000  C
  C127     1.0000 0.77550  0.75980  0.68313  Biso   1.000  C
  C128     1.0000 0.72450  0.24020  0.18313  Biso   1.000  C
  N17      1.0000 0.82020  0.24080  0.67230  Biso   1.000  N
  N18      1.0000 0.67980  0.75920  0.17230  Biso   1.000  N
  N19      1.0000 0.32020  0.25920  0.32770  Biso   1.000  N
  N20      1.0000 0.17980  0.74080  0.82770  Biso   1.000  N
  N21      1.0000 0.17980  0.75920  0.32770  Biso   1.000  N
  N22      1.0000 0.32020  0.24080  0.82770  Biso   1.000  N
  N23      1.0000 0.67980  0.74080  0.67230  Biso   1.000  N
  N24      1.0000 0.82020  0.25920  0.17230  Biso   1.000  N
  N25      1.0000 0.58690  0.42790  0.58758  Biso   1.000  N
  N26      1.0000 0.91310  0.57210  0.08758  Biso   1.000  N
  N27      1.0000 0.08690  0.07210  0.41242  Biso   1.000  N
  N28      1.0000 0.41310  0.92790  0.91242  Biso   1.000  N
  N29      1.0000 0.41310  0.57210  0.41242  Biso   1.000  N
  N30      1.0000 0.08690  0.42790  0.91242  Biso   1.000  N
  N31      1.0000 0.91310  0.92790  0.58758  Biso   1.000  N
  N32      1.0000 0.58690  0.07210  0.08758  Biso   1.000  N
  O33      1.0000 0.58870  0.54490  0.59840  Biso   1.000  O
  O34      1.0000 0.91130  0.45510  0.09840  Biso   1.000  O
  O35      1.0000 0.08870  0.95510  0.40160  Biso   1.000  O
  O36      1.0000 0.41130  0.04490  0.90160  Biso   1.000  O
  O37      1.0000 0.41130  0.45510  0.40160  Biso   1.000  O
  O38      1.0000 0.08870  0.54490  0.90160  Biso   1.000  O
  O39      1.0000 0.91130  0.04490  0.59840  Biso   1.000  O
  O40      1.0000 0.58870  0.95510  0.09840  Biso   1.000  O
  O41      1.0000 0.66210  0.37010  0.57180  Biso   1.000  O
  O42      1.0000 0.83790  0.62990  0.07180  Biso   1.000  O
  O43      1.0000 0.16210  0.12990  0.42820  Biso   1.000  O
  O44      1.0000 0.33790  0.87010  0.92820  Biso   1.000  O
  O45      1.0000 0.33790  0.62990  0.42820  Biso   1.000  O
  O46      1.0000 0.16210  0.37010  0.92820  Biso   1.000  O
  O47      1.0000 0.83790  0.87010  0.57180  Biso   1.000  O
  O48      1.0000 0.66210  0.12990  0.07180  Biso   1.000  O
  H1       1.0000 0.66700  0.01000  0.58830  Biso   1.000  H
  H2       1.0000 0.83300  0.99000  0.08830  Biso   1.000  H
  H3       1.0000 0.16700  0.49000  0.41170  Biso   1.000  H
  H4       1.0000 0.33300  0.51000  0.91170  Biso   1.000  H
  H5       1.0000 0.33300  0.99000  0.41170  Biso   1.000  H
  H6       1.0000 0.16700  0.01000  0.91170  Biso   1.000  H
  H7       1.0000 0.83300  0.51000  0.58830  Biso   1.000  H
  H8       1.0000 0.66700  0.49000  0.08830  Biso   1.000  H
  H9       1.0000 0.66400  0.83700  0.52600  Biso   1.000  H
  H10      1.0000 0.83600  0.16300  0.02600  Biso   1.000  H
  H11      1.0000 0.16400  0.66300  0.47400  Biso   1.000  H
  H12      1.0000 0.33600  0.33700  0.97400  Biso   1.000  H
  H13      1.0000 0.33600  0.16300  0.47400  Biso   1.000  H
  H14      1.0000 0.16400  0.83700  0.97400  Biso   1.000  H
  H15      1.0000 0.83600  0.33700  0.52600  Biso   1.000  H
  H16      1.0000 0.66400  0.66300  0.02600  Biso   1.000  H
  H17      1.0000 0.49300  0.73700  0.50200  Biso   1.000  H
  H18      1.0000 0.00700  0.26300  0.00200  Biso   1.000  H
  H19      1.0000 0.99300  0.76300  0.49800  Biso   1.000  H
  H20      1.0000 0.50700  0.23700  0.99800  Biso   1.000  H
  H21      1.0000 0.50700  0.26300  0.49800  Biso   1.000  H
  H22      1.0000 0.99300  0.73700  0.99800  Biso   1.000  H
  H23      1.0000 0.00700  0.23700  0.50200  Biso   1.000  H
  H24      1.0000 0.49300  0.76300  0.00200  Biso   1.000  H
  H25      1.0000 0.30600  0.77400  0.50800  Biso   1.000  H
  H26      1.0000 0.19400  0.22600  0.00800  Biso   1.000  H
  H27      1.0000 0.80600  0.72600  0.49200  Biso   1.000  H
  H28      1.0000 0.69400  0.27400  0.99200  Biso   1.000  H
  H29      1.0000 0.69400  0.22600  0.49200  Biso   1.000  H
  H30      1.0000 0.80600  0.77400  0.99200  Biso   1.000  H
  H31      1.0000 0.19400  0.27400  0.50800  Biso   1.000  H
  H32      1.0000 0.30600  0.72600  0.00800  Biso   1.000  H
  H33      1.0000 0.18100  0.88100  0.54900  Biso   1.000  H
  H34      1.0000 0.31900  0.11900  0.04900  Biso   1.000  H
  H35      1.0000 0.68100  0.61900  0.45100  Biso   1.000  H
  H36      1.0000 0.81900  0.38100  0.95100  Biso   1.000  H
  H37      1.0000 0.81900  0.11900  0.45100  Biso   1.000  H
  H38      1.0000 0.68100  0.88100  0.95100  Biso   1.000  H
  H39      1.0000 0.31900  0.38100  0.54900  Biso   1.000  H
  H40      1.0000 0.18100  0.61900  0.04900  Biso   1.000  H
  H41      1.0000 0.10100  0.04000  0.60900  Biso   1.000  H
  H42      1.0000 0.39900  0.96000  0.10900  Biso   1.000  H
  H43      1.0000 0.60100  0.46000  0.39100  Biso   1.000  H
  H44      1.0000 0.89900  0.54000  0.89100  Biso   1.000  H
  H45      1.0000 0.89900  0.96000  0.39100  Biso   1.000  H
  H46      1.0000 0.60100  0.04000  0.89100  Biso   1.000  H
  H47      1.0000 0.39900  0.54000  0.60900  Biso   1.000  H
  H48      1.0000 0.10100  0.46000  0.10900  Biso   1.000  H
  H49      1.0000 0.15200  0.22300  0.66700  Biso   1.000  H
  H50      1.0000 0.34800  0.77700  0.16700  Biso   1.000  H
  H51      1.0000 0.65200  0.27700  0.33300  Biso   1.000  H
  H52      1.0000 0.84800  0.72300  0.83300  Biso   1.000  H
  H53      1.0000 0.84800  0.77700  0.33300  Biso   1.000  H
  H54      1.0000 0.65200  0.22300  0.83300  Biso   1.000  H
  H55      1.0000 0.34800  0.72300  0.66700  Biso   1.000  H
  H56      1.0000 0.15200  0.27700  0.16700  Biso   1.000  H
  H57      1.0000 0.29800  0.26900  0.69300  Biso   1.000  H
  H58      1.0000 0.20200  0.73100  0.19300  Biso   1.000  H
  H59      1.0000 0.79800  0.23100  0.30700  Biso   1.000  H
  H60      1.0000 0.70200  0.76900  0.80700  Biso   1.000  H
  H61      1.0000 0.70200  0.73100  0.30700  Biso   1.000  H
  H62      1.0000 0.79800  0.26900  0.80700  Biso   1.000  H
  H63      1.0000 0.20200  0.76900  0.69300  Biso   1.000  H
  H64      1.0000 0.29800  0.23100  0.19300  Biso   1.000  H
  H65      1.0000 0.61300  0.53500  0.73900  Biso   1.000  H
  H66      1.0000 0.88700  0.46500  0.23900  Biso   1.000  H
  H67      1.0000 0.11300  0.96500  0.26100  Biso   1.000  H
  H68      1.0000 0.38700  0.03500  0.76100  Biso   1.000  H
  H69      1.0000 0.38700  0.46500  0.26100  Biso   1.000  H
  H70      1.0000 0.11300  0.53500  0.76100  Biso   1.000  H
  H71      1.0000 0.88700  0.03500  0.73900  Biso   1.000  H
  H72      1.0000 0.61300  0.96500  0.23900  Biso   1.000  H
  H73      1.0000 0.74700  0.45300  0.69900  Biso   1.000  H
  H74      1.0000 0.75300  0.54700  0.19900  Biso   1.000  H
  H75      1.0000 0.24700  0.04700  0.30100  Biso   1.000  H
  H76      1.0000 0.25300  0.95300  0.80100  Biso   1.000  H
  H77      1.0000 0.25300  0.54700  0.30100  Biso   1.000  H
  H78      1.0000 0.24700  0.45300  0.80100  Biso   1.000  H
  H79      1.0000 0.75300  0.95300  0.69900  Biso   1.000  H
  H80      1.0000 0.74700  0.04700  0.19900  Biso   1.000  H
  H81      1.0000 0.83800  0.15800  0.65670  Biso   1.000  H
  H82      1.0000 0.66200  0.84200  0.15670  Biso   1.000  H
  H83      1.0000 0.33800  0.34200  0.34330  Biso   1.000  H
  H84      1.0000 0.16200  0.65800  0.84330  Biso   1.000  H
  H85      1.0000 0.16200  0.84200  0.34330  Biso   1.000  H
  H86      1.0000 0.33800  0.15800  0.84330  Biso   1.000  H
  H87      1.0000 0.66200  0.65800  0.65670  Biso   1.000  H
  H88      1.0000 0.83800  0.34200  0.15670  Biso   1.000  H
  H89      1.0000 0.85500  0.30400  0.67900  Biso   1.000  H
  H90      1.0000 0.64500  0.69600  0.17900  Biso   1.000  H
  H91      1.0000 0.35500  0.19600  0.32100  Biso   1.000  H
  H92      1.0000 0.14500  0.80400  0.82100  Biso   1.000  H
  H93      1.0000 0.14500  0.69600  0.32100  Biso   1.000  H
  H94      1.0000 0.35500  0.30400  0.82100  Biso   1.000  H
  H95      1.0000 0.64500  0.80400  0.67900  Biso   1.000  H
  H96      1.0000 0.85500  0.19600  0.17900  Biso   1.000  H
