data_image0
_cell_length_a       13.479
_cell_length_b       21.683
_cell_length_c       24.772
_cell_angle_alpha    110.131
_cell_angle_beta     103.113
_cell_angle_gamma    98.596

_symmetry_space_group_name_H-M    "P 1"
_symmetry_int_tables_number       1

loop_
  _symmetry_equiv_pos_as_xyz
  'x, y, z'

loop_
  _atom_site_label
  _atom_site_occupancy
  _atom_site_fract_x
  _atom_site_fract_y
  _atom_site_fract_z
  _atom_site_thermal_displace_type
  _atom_site_B_iso_or_equiv
  _atom_site_type_symbol
  W1       1.0000 0.06776  0.68090  0.39249  Biso   1.000  W
  W2       1.0000 0.93224  0.31910  0.60751  Biso   1.000  W
  W3       1.0000 0.78827  0.58844  0.19786  Biso   1.000  W
  W4       1.0000 0.21173  0.41156  0.80214  Biso   1.000  W
  W5       1.0000 0.95719  0.62004  0.12820  Biso   1.000  W
  W6       1.0000 0.04281  0.37996  0.87180  Biso   1.000  W
  W7       1.0000 0.94555  0.89306  0.30419  Biso   1.000  W
  W8       1.0000 0.05445  0.10694  0.69581  Biso   1.000  W
  W9       1.0000 0.25293  0.71322  0.31255  Biso   1.000  W
  W10      1.0000 0.74707  0.28678  0.68745  Biso   1.000  W
  W11      1.0000 0.90340  0.78861  0.16255  Biso   1.000  W
  W12      1.0000 0.09660  0.21139  0.83745  Biso   1.000  W
  W13      1.0000 0.01677  0.83279  0.42486  Biso   1.000  W
  W14      1.0000 0.98323  0.16721  0.57514  Biso   1.000  W
  W15      1.0000 0.82236  0.69345  0.35462  Biso   1.000  W
  W16      1.0000 0.17764  0.30655  0.64538  Biso   1.000  W
  W17      1.0000 0.20742  0.86664  0.34893  Biso   1.000  W
  W18      1.0000 0.79258  0.13336  0.65107  Biso   1.000  W
  W19      1.0000 0.17148  0.77291  0.20753  Biso   1.000  W
  W20      1.0000 0.82852  0.22709  0.79247  Biso   1.000  W
  W21      1.0000 0.02760  0.56553  0.23829  Biso   1.000  W
  W22      1.0000 0.97240  0.43447  0.76171  Biso   1.000  W
  W23      1.0000 0.74236  0.75787  0.23791  Biso   1.000  W
  W24      1.0000 0.25764  0.24213  0.76209  Biso   1.000  W
  W25      1.0000 0.28145  0.28957  0.19306  Biso   1.000  W
  W26      1.0000 0.71855  0.71043  0.80694  Biso   1.000  W
  W27      1.0000 0.41068  0.09990  0.30940  Biso   1.000  W
  W28      1.0000 0.58932  0.90010  0.69060  Biso   1.000  W
  W29      1.0000 0.46897  0.04695  0.16690  Biso   1.000  W
  W30      1.0000 0.53103  0.95305  0.83310  Biso   1.000  W
  W31      1.0000 0.67681  0.15155  0.30539  Biso   1.000  W
  W32      1.0000 0.32319  0.84845  0.69461  Biso   1.000  W
  W33      1.0000 0.22080  0.16814  0.25904  Biso   1.000  W
  W34      1.0000 0.77920  0.83186  0.74096  Biso   1.000  W
  W35      1.0000 0.27962  0.11336  0.11678  Biso   1.000  W
  W36      1.0000 0.72038  0.88664  0.88322  Biso   1.000  W
  W37      1.0000 0.41878  0.26301  0.38332  Biso   1.000  W
  W38      1.0000 0.58122  0.73699  0.61668  Biso   1.000  W
  W39      1.0000 0.47414  0.38650  0.31913  Biso   1.000  W
  W40      1.0000 0.52586  0.61350  0.68087  Biso   1.000  W
  W41      1.0000 0.51790  0.15922  0.10510  Biso   1.000  W
  W42      1.0000 0.48210  0.84078  0.89490  Biso   1.000  W
  W43      1.0000 0.73121  0.26159  0.24190  Biso   1.000  W
  W44      1.0000 0.26879  0.73841  0.75810  Biso   1.000  W
  W45      1.0000 0.67936  0.31409  0.37387  Biso   1.000  W
  W46      1.0000 0.32064  0.68591  0.62613  Biso   1.000  W
  W47      1.0000 0.52634  0.33536  0.18781  Biso   1.000  W
  W48      1.0000 0.47366  0.66464  0.81219  Biso   1.000  W
  Cu1      1.0000 0.90458  0.41427  0.50424  Biso   1.000  Cu
  Cu2      1.0000 0.09542  0.58573  0.49576  Biso   1.000  Cu
  Cu3      1.0000 0.52328  0.47698  0.13268  Biso   1.000  Cu
  Cu4      1.0000 0.47672  0.52302  0.86732  Biso   1.000  Cu
  Cu5      1.0000 0.35258  0.77187  0.12130  Biso   1.000  Cu
  Cu6      1.0000 0.64742  0.22813  0.87870  Biso   1.000  Cu
  Cu7      1.0000 0.41510  0.02057  0.42639  Biso   1.000  Cu
  Cu8      1.0000 0.58490  0.97943  0.57361  Biso   1.000  Cu
  Cu9      1.0000 0.06819  0.07559  0.98809  Biso   1.000  Cu
  Cu10     1.0000 0.93181  0.92441  0.01191  Biso   1.000  Cu
  O1       1.0000 0.39850  0.70210  0.16600  Biso   1.000  O
  O2       1.0000 0.60150  0.29790  0.83400  Biso   1.000  O
  O3       1.0000 0.77230  0.37030  0.44130  Biso   1.000  O
  O4       1.0000 0.22770  0.62970  0.55870  Biso   1.000  O
  O5       1.0000 0.66760  0.52870  0.16630  Biso   1.000  O
  O6       1.0000 0.33240  0.47130  0.83370  Biso   1.000  O
  O7       1.0000 0.15090  0.18480  0.01090  Biso   1.000  O
  O8       1.0000 0.84910  0.81520  0.98910  Biso   1.000  O
  O9       1.0000 0.24420  0.78550  0.16010  Biso   1.000  O
  O10      1.0000 0.75580  0.21450  0.83990  Biso   1.000  O
  O11      1.0000 0.39970  0.03720  0.33710  Biso   1.000  O
  O12      1.0000 0.60030  0.96280  0.66290  Biso   1.000  O
  O13      1.0000 0.16490  0.07070  0.05500  Biso   1.000  O
  O14      1.0000 0.83510  0.92930  0.94500  Biso   1.000  O
  O15      1.0000 0.94410  0.97520  0.33140  Biso   1.000  O
  O16      1.0000 0.05590  0.02480  0.66860  Biso   1.000  O
  O17      1.0000 0.14430  0.85610  0.40520  Biso   1.000  O
  O18      1.0000 0.85570  0.14390  0.59480  Biso   1.000  O
  O19      1.0000 0.32840  0.03640  0.11660  Biso   1.000  O
  O20      1.0000 0.67160  0.96360  0.88340  Biso   1.000  O
  O21      1.0000 0.29680  0.81010  0.36020  Biso   1.000  O
  O22      1.0000 0.70320  0.18990  0.63980  Biso   1.000  O
  O23      1.0000 0.59780  0.08710  0.22610  Biso   1.000  O
  O24      1.0000 0.40220  0.91290  0.77390  Biso   1.000  O
  O25      1.0000 0.17200  0.30940  0.16070  Biso   1.000  O
  O26      1.0000 0.82800  0.69060  0.83930  Biso   1.000  O
  O27      1.0000 0.50280  0.24970  0.12700  Biso   1.000  O
  O28      1.0000 0.49720  0.75030  0.87300  Biso   1.000  O
  O29      1.0000 0.27000  0.22790  0.34100  Biso   1.000  O
  O30      1.0000 0.73000  0.77210  0.65900  Biso   1.000  O
  O31      1.0000 0.22780  0.24160  0.23560  Biso   1.000  O
  O32      1.0000 0.77220  0.75840  0.76440  Biso   1.000  O
  O33      1.0000 0.23970  0.85520  0.27380  Biso   1.000  O
  O34      1.0000 0.76030  0.14480  0.72620  Biso   1.000  O
  O35      1.0000 0.87720  0.53140  0.21120  Biso   1.000  O
  O36      1.0000 0.12280  0.46860  0.78880  Biso   1.000  O
  O37      1.0000 0.76050  0.73980  0.30660  Biso   1.000  O
  O38      1.0000 0.23950  0.26020  0.69340  Biso   1.000  O
  O39      1.0000 0.26740  0.09860  0.28170  Biso   1.000  O
  O40      1.0000 0.73260  0.90140  0.71830  Biso   1.000  O
  O41      1.0000 0.87890  0.80620  0.09950  Biso   1.000  O
  O42      1.0000 0.12110  0.19380  0.90050  Biso   1.000  O
  O43      1.0000 0.81950  0.57360  0.12400  Biso   1.000  O
  O44      1.0000 0.18050  0.42640  0.87600  Biso   1.000  O
  O45      1.0000 0.44410  0.15900  0.18420  Biso   1.000  O
  O46      1.0000 0.55590  0.84100  0.81580  Biso   1.000  O
  O47      1.0000 0.52270  0.07350  0.11020  Biso   1.000  O
  O48      1.0000 0.47730  0.92650  0.88980  Biso   1.000  O
  O49      1.0000 0.41570  0.33370  0.35640  Biso   1.000  O
  O50      1.0000 0.58430  0.66630  0.64360  Biso   1.000  O
  O51      1.0000 0.79560  0.85220  0.28150  Biso   1.000  O
  O52      1.0000 0.20440  0.14780  0.71850  Biso   1.000  O
  O53      1.0000 0.27020  0.73190  0.24650  Biso   1.000  O
  O54      1.0000 0.72980  0.26810  0.75350  Biso   1.000  O
  O55      1.0000 0.65520  0.32400  0.22440  Biso   1.000  O
  O56      1.0000 0.34480  0.67600  0.77560  Biso   1.000  O
  O57      1.0000 0.56810  0.28440  0.39930  Biso   1.000  O
  O58      1.0000 0.43190  0.71560  0.60070  Biso   1.000  O
  O59      1.0000 0.26930  0.20310  0.13310  Biso   1.000  O
  O60      1.0000 0.73070  0.79690  0.86690  Biso   1.000  O
  O61      1.0000 0.15950  0.62840  0.26250  Biso   1.000  O
  O62      1.0000 0.84050  0.37160  0.73750  Biso   1.000  O
  O63      1.0000 0.37150  0.12630  0.06930  Biso   1.000  O
  O64      1.0000 0.62850  0.87370  0.93070  Biso   1.000  O
  O65      1.0000 0.18520  0.70900  0.37120  Biso   1.000  O
  O66      1.0000 0.81480  0.29100  0.62880  Biso   1.000  O
  O67      1.0000 0.88570  0.78080  0.41830  Biso   1.000  O
  O68      1.0000 0.11430  0.21920  0.58170  Biso   1.000  O
  O69      1.0000 0.74240  0.66560  0.19650  Biso   1.000  O
  O70      1.0000 0.25760  0.33440  0.80350  Biso   1.000  O
  O71      1.0000 0.93020  0.87800  0.22200  Biso   1.000  O
  O72      1.0000 0.06980  0.12200  0.77800  Biso   1.000  O
  O73      1.0000 0.42260  0.17600  0.38130  Biso   1.000  O
  O74      1.0000 0.57740  0.82400  0.61870  Biso   1.000  O
  O75      1.0000 0.06270  0.49230  0.23220  Biso   1.000  O
  O76      1.0000 0.93730  0.50770  0.76780  Biso   1.000  O
  O77      1.0000 0.65170  0.19700  0.16720  Biso   1.000  O
  O78      1.0000 0.34830  0.80300  0.83280  Biso   1.000  O
  O79      1.0000 0.37870  0.32910  0.16150  Biso   1.000  O
  O80      1.0000 0.62130  0.67090  0.83850  Biso   1.000  O
  O81      1.0000 0.84540  0.28850  0.22940  Biso   1.000  O
  O82      1.0000 0.15460  0.71150  0.77060  Biso   1.000  O
  O83      1.0000 0.89870  0.69590  0.12760  Biso   1.000  O
  O84      1.0000 0.10130  0.30410  0.87240  Biso   1.000  O
  O85      1.0000 0.12070  0.64780  0.44320  Biso   1.000  O
  O86      1.0000 0.87930  0.35220  0.55680  Biso   1.000  O
  O87      1.0000 0.09130  0.14460  0.24950  Biso   1.000  O
  O88      1.0000 0.90870  0.85540  0.75050  Biso   1.000  O
  O89      1.0000 0.76620  0.77070  0.16780  Biso   1.000  O
  O90      1.0000 0.23380  0.22930  0.83220  Biso   1.000  O
  O91      1.0000 0.72520  0.23420  0.37510  Biso   1.000  O
  O92      1.0000 0.27480  0.76580  0.62490  Biso   1.000  O
  O93      1.0000 0.75780  0.10690  0.32960  Biso   1.000  O
  O94      1.0000 0.24220  0.89310  0.67040  Biso   1.000  O
  O95      1.0000 0.79360  0.62050  0.28010  Biso   1.000  O
  O96      1.0000 0.20640  0.37950  0.71990  Biso   1.000  O
  O97      1.0000 0.07980  0.76870  0.44820  Biso   1.000  O
  O98      1.0000 0.92020  0.23130  0.55180  Biso   1.000  O
  O99      1.0000 0.48880  0.46720  0.36730  Biso   1.000  O
  O100     1.0000 0.51120  0.53280  0.63270  Biso   1.000  O
  O101     1.0000 0.36800  0.69440  0.33690  Biso   1.000  O
  O102     1.0000 0.63200  0.30560  0.66310  Biso   1.000  O
  O103     1.0000 0.61030  0.75240  0.21920  Biso   1.000  O
  O104     1.0000 0.38970  0.24760  0.78080  Biso   1.000  O
  O105     1.0000 0.95050  0.58360  0.05330  Biso   1.000  O
  O106     1.0000 0.04950  0.41640  0.94670  Biso   1.000  O
  O107     1.0000 0.55700  0.14810  0.04300  Biso   1.000  O
  O108     1.0000 0.44300  0.85190  0.95700  Biso   1.000  O
  O109     1.0000 0.47060  0.96460  0.13890  Biso   1.000  O
  O110     1.0000 0.52940  0.03540  0.86110  Biso   1.000  O
  O111     1.0000 0.04380  0.89560  0.49280  Biso   1.000  O
  O112     1.0000 0.95620  0.10440  0.50720  Biso   1.000  O
  O113     1.0000 0.71890  0.66790  0.37840  Biso   1.000  O
  O114     1.0000 0.28110  0.33210  0.62160  Biso   1.000  O
  O115     1.0000 0.41100  0.29960  0.45530  Biso   1.000  O
  O116     1.0000 0.58900  0.70040  0.54470  Biso   1.000  O
  O117     1.0000 0.40820  0.19590  0.28260  Biso   1.000  O
  O118     1.0000 0.59180  0.80410  0.71740  Biso   1.000  O
  O119     1.0000 0.56330  0.38720  0.15180  Biso   1.000  O
  O120     1.0000 0.43670  0.61280  0.84820  Biso   1.000  O
  O121     1.0000 0.30250  0.94210  0.39360  Biso   1.000  O
  O122     1.0000 0.69750  0.05790  0.60640  Biso   1.000  O
  O123     1.0000 0.09190  0.89890  0.31910  Biso   1.000  O
  O124     1.0000 0.90810  0.10110  0.68090  Biso   1.000  O
  O125     1.0000 0.92280  0.65880  0.39270  Biso   1.000  O
  O126     1.0000 0.07720  0.34120  0.60730  Biso   1.000  O
  O127     1.0000 0.09050  0.68320  0.16040  Biso   1.000  O
  O128     1.0000 0.90950  0.31680  0.83960  Biso   1.000  O
  O129     1.0000 0.05570  0.80330  0.18410  Biso   1.000  O
  O130     1.0000 0.94430  0.19670  0.81590  Biso   1.000  O
  O131     1.0000 0.02770  0.60150  0.31890  Biso   1.000  O
  O132     1.0000 0.97230  0.39850  0.68110  Biso   1.000  O
  O133     1.0000 0.95520  0.87230  0.37490  Biso   1.000  O
  O134     1.0000 0.04480  0.12770  0.62510  Biso   1.000  O
  O135     1.0000 0.98000  0.73260  0.33530  Biso   1.000  O
  O136     1.0000 0.02000  0.26740  0.66470  Biso   1.000  O
  O137     1.0000 0.10660  0.76120  0.28150  Biso   1.000  O
  O138     1.0000 0.89340  0.23880  0.71850  Biso   1.000  O
  O139     1.0000 0.92300  0.77410  0.25380  Biso   1.000  O
  O140     1.0000 0.07700  0.22590  0.74620  Biso   1.000  O
  O141     1.0000 0.95280  0.65720  0.22890  Biso   1.000  O
  O142     1.0000 0.04720  0.34280  0.77110  Biso   1.000  O
  O143     1.0000 0.53240  0.40620  0.26100  Biso   1.000  O
  O144     1.0000 0.46760  0.59380  0.73900  Biso   1.000  O
  O145     1.0000 0.76680  0.19420  0.26940  Biso   1.000  O
  O146     1.0000 0.23320  0.80580  0.73060  Biso   1.000  O
  O147     1.0000 0.01580  0.55930  0.15730  Biso   1.000  O
  O148     1.0000 0.98420  0.44070  0.84270  Biso   1.000  O
  O149     1.0000 0.60730  0.37200  0.35340  Biso   1.000  O
  O150     1.0000 0.39270  0.62800  0.64660  Biso   1.000  O
  O151     1.0000 0.76850  0.32280  0.32600  Biso   1.000  O
  O152     1.0000 0.23150  0.67720  0.67400  Biso   1.000  O
  O153     1.0000 0.33800  0.36890  0.26520  Biso   1.000  O
  O154     1.0000 0.66200  0.63110  0.73480  Biso   1.000  O
  O155     1.0000 0.45110  0.27960  0.23900  Biso   1.000  O
  O156     1.0000 0.54890  0.72040  0.76100  Biso   1.000  O
  O157     1.0000 0.58990  0.23090  0.27870  Biso   1.000  O
  O158     1.0000 0.41010  0.76910  0.72130  Biso   1.000  O
  O159     1.0000 0.22420  0.11700  0.17950  Biso   1.000  O
  O160     1.0000 0.77580  0.88300  0.82050  Biso   1.000  O
  O161     1.0000 0.40950  0.05050  0.22930  Biso   1.000  O
  O162     1.0000 0.59050  0.94950  0.77070  Biso   1.000  O
  O163     1.0000 0.55670  0.12450  0.32770  Biso   1.000  O
  O164     1.0000 0.44330  0.87550  0.67230  Biso   1.000  O
  C1       1.0000 0.48940  0.72620  0.98350  Biso   1.000  C
  C2       1.0000 0.51060  0.27380  0.01650  Biso   1.000  C
  H1       1.0000 0.47030  0.69620  0.94350  Biso   1.000  H
  H2       1.0000 0.52970  0.30380  0.05650  Biso   1.000  H
  C3       1.0000 0.59380  0.45210  0.02090  Biso   1.000  C
  C4       1.0000 0.40620  0.54790  0.97910  Biso   1.000  C
  H3       1.0000 0.65880  0.47990  0.04700  Biso   1.000  H
  H4       1.0000 0.34120  0.52010  0.95300  Biso   1.000  H
  C5       1.0000 0.58470  0.42560  0.96110  Biso   1.000  C
  C6       1.0000 0.41530  0.57440  0.03890  Biso   1.000  C
  H5       1.0000 0.64160  0.43130  0.94650  Biso   1.000  H
  H6       1.0000 0.35840  0.56870  0.05350  Biso   1.000  H
  C7       1.0000 0.48400  0.38940  0.92370  Biso   1.000  C
  C8       1.0000 0.51600  0.61060  0.07630  Biso   1.000  C
  H7       1.0000 0.47160  0.37230  0.88210  Biso   1.000  H
  H8       1.0000 0.52840  0.62770  0.11790  Biso   1.000  H
  C9       1.0000 0.14200  0.29590  0.43050  Biso   1.000  C
  C10      1.0000 0.85800  0.70410  0.56950  Biso   1.000  C
  H9       1.0000 0.19090  0.27250  0.41830  Biso   1.000  H
  H10      1.0000 0.80910  0.72750  0.58170  Biso   1.000  H
  C11      1.0000 0.04860  0.27370  0.39600  Biso   1.000  C
  C12      1.0000 0.95140  0.72630  0.60400  Biso   1.000  C
  H11      1.0000 0.03000  0.23530  0.36040  Biso   1.000  H
  H12      1.0000 0.97000  0.76470  0.63960  Biso   1.000  H
  C13      1.0000 0.97400  0.30840  0.41260  Biso   1.000  C
  C14      1.0000 0.02600  0.69160  0.58740  Biso   1.000  C
  H13      1.0000 0.90510  0.29400  0.38730  Biso   1.000  H
  H14      1.0000 0.09490  0.70600  0.61270  Biso   1.000  H
  C15      1.0000 0.40250  0.37800  0.94680  Biso   1.000  C
  C16      1.0000 0.59750  0.62200  0.05320  Biso   1.000  C
  H15      1.0000 0.33610  0.35230  0.92120  Biso   1.000  H
  H16      1.0000 0.66390  0.64770  0.07880  Biso   1.000  H
  C17      1.0000 0.16280  0.66100  0.02630  Biso   1.000  C
  C18      1.0000 0.83720  0.33900  0.97370  Biso   1.000  C
  H17      1.0000 0.12890  0.66910  0.05580  Biso   1.000  H
  H18      1.0000 0.87110  0.33090  0.94420  Biso   1.000  H
  C19      1.0000 0.38390  0.54750  0.29730  Biso   1.000  C
  C20      1.0000 0.61610  0.45250  0.70270  Biso   1.000  C
  H19      1.0000 0.35540  0.55880  0.32920  Biso   1.000  H
  H20      1.0000 0.64460  0.44120  0.67080  Biso   1.000  H
  C21      1.0000 0.86970  0.08290  0.92760  Biso   1.000  C
  C22      1.0000 0.13030  0.91710  0.07240  Biso   1.000  C
  C23      1.0000 0.87520  0.10880  0.99050  Biso   1.000  C
  C24      1.0000 0.12480  0.89120  0.00950  Biso   1.000  C
  C25      1.0000 0.79380  0.13310  0.01290  Biso   1.000  C
  C26      1.0000 0.20620  0.86690  0.98710  Biso   1.000  C
  H21      1.0000 0.73230  0.13410  0.98740  Biso   1.000  H
  H22      1.0000 0.26770  0.86590  0.01260  Biso   1.000  H
  C27      1.0000 0.97200  0.12850  0.08550  Biso   1.000  C
  C28      1.0000 0.02800  0.87150  0.91450  Biso   1.000  C
  H23      1.0000 0.03340  0.12640  0.11020  Biso   1.000  H
  H24      1.0000 0.96660  0.87360  0.88980  Biso   1.000  H
  C29      1.0000 0.58870  0.76840  0.01210  Biso   1.000  C
  C30      1.0000 0.41130  0.23160  0.98790  Biso   1.000  C
  H25      1.0000 0.63760  0.76740  0.99090  Biso   1.000  H
  H26      1.0000 0.36240  0.23260  0.00910  Biso   1.000  H
  C31      1.0000 0.97000  0.03880  0.86400  Biso   1.000  C
  C32      1.0000 0.03000  0.96120  0.13600  Biso   1.000  C
  C33      1.0000 0.21640  0.47030  0.60580  Biso   1.000  C
  C34      1.0000 0.78360  0.52970  0.39420  Biso   1.000  C
  H27      1.0000 0.27730  0.45590  0.60290  Biso   1.000  H
  H28      1.0000 0.72270  0.54410  0.39710  Biso   1.000  H
  C35      1.0000 0.06820  0.01670  0.86630  Biso   1.000  C
  C36      1.0000 0.93180  0.98330  0.13370  Biso   1.000  C
  C37      1.0000 0.21490  0.52190  0.65930  Biso   1.000  C
  C38      1.0000 0.78510  0.47810  0.34070  Biso   1.000  C
  H29      1.0000 0.27630  0.54330  0.69140  Biso   1.000  H
  H30      1.0000 0.72370  0.45670  0.30860  Biso   1.000  H
  C39      1.0000 0.09960  0.98730  0.81650  Biso   1.000  C
  C40      1.0000 0.90040  0.01270  0.18350  Biso   1.000  C
  H31      1.0000 0.05870  0.97940  0.77800  Biso   1.000  H
  H32      1.0000 0.94130  0.02060  0.22200  Biso   1.000  H
  C41      1.0000 0.12520  0.54010  0.66380  Biso   1.000  C
  C42      1.0000 0.87480  0.45990  0.33620  Biso   1.000  C
  H33      1.0000 0.12400  0.57090  0.70050  Biso   1.000  H
  H34      1.0000 0.87600  0.42910  0.29950  Biso   1.000  H
  C43      1.0000 0.34260  0.40010  0.03740  Biso   1.000  C
  C44      1.0000 0.65740  0.59990  0.96260  Biso   1.000  C
  C45      1.0000 0.03570  0.51490  0.61620  Biso   1.000  C
  C46      1.0000 0.96430  0.48510  0.38380  Biso   1.000  C
  C47      1.0000 0.91280  0.58280  0.65460  Biso   1.000  C
  C48      1.0000 0.08720  0.41720  0.34540  Biso   1.000  C
  H35      1.0000 0.96620  0.61190  0.68930  Biso   1.000  H
  H36      1.0000 0.03380  0.38810  0.31070  Biso   1.000  H
  C49      1.0000 0.12340  0.44150  0.55760  Biso   1.000  C
  C50      1.0000 0.87660  0.55850  0.44240  Biso   1.000  C
  C51      1.0000 0.81200  0.59240  0.64610  Biso   1.000  C
  C52      1.0000 0.18800  0.40760  0.35390  Biso   1.000  C
  H37      1.0000 0.79650  0.62680  0.67520  Biso   1.000  H
  H38      1.0000 0.20350  0.37320  0.32480  Biso   1.000  H
  C53      1.0000 0.17930  0.35200  0.48500  Biso   1.000  C
  C54      1.0000 0.82070  0.64800  0.51500  Biso   1.000  C
  H39      1.0000 0.24970  0.36710  0.50800  Biso   1.000  H
  H40      1.0000 0.75030  0.63290  0.49200  Biso   1.000  H
  C55      1.0000 0.73500  0.54940  0.59330  Biso   1.000  C
  C56      1.0000 0.26500  0.45060  0.40670  Biso   1.000  C
  H41      1.0000 0.66710  0.55500  0.58620  Biso   1.000  H
  H42      1.0000 0.33290  0.44500  0.41380  Biso   1.000  H
  C57      1.0000 0.25670  0.64510  0.93880  Biso   1.000  C
  C58      1.0000 0.74330  0.35490  0.06120  Biso   1.000  C
  H43      1.0000 0.28870  0.64260  0.90880  Biso   1.000  H
  H44      1.0000 0.71130  0.35740  0.09120  Biso   1.000  H
  C59      1.0000 0.11100  0.60970  0.96990  Biso   1.000  C
  C60      1.0000 0.88900  0.39030  0.03010  Biso   1.000  C
  H45      1.0000 0.04710  0.58040  0.96290  Biso   1.000  H
  H46      1.0000 0.95290  0.41960  0.03710  Biso   1.000  H
  C61      1.0000 0.30730  0.68940  0.99690  Biso   1.000  C
  C62      1.0000 0.69270  0.31060  0.00310  Biso   1.000  C
  C63      1.0000 0.15760  0.60380  0.92470  Biso   1.000  C
  C64      1.0000 0.84240  0.39620  0.07530  Biso   1.000  C
  H47      1.0000 0.12310  0.57270  0.88550  Biso   1.000  H
  H48      1.0000 0.87690  0.42730  0.11450  Biso   1.000  H
  C65      1.0000 0.41830  0.73020  0.01690  Biso   1.000  C
  C66      1.0000 0.58170  0.26980  0.98310  Biso   1.000  C
  C67      1.0000 0.17510  0.36800  0.04630  Biso   1.000  C
  C68      1.0000 0.82490  0.63200  0.95370  Biso   1.000  C
  H49      1.0000 0.10500  0.34380  0.02930  Biso   1.000  H
  H50      1.0000 0.89500  0.65620  0.97070  Biso   1.000  H
  C69      1.0000 0.61700  0.81220  0.07210  Biso   1.000  C
  C70      1.0000 0.38300  0.18780  0.92790  Biso   1.000  C
  H51      1.0000 0.68460  0.84040  0.09090  Biso   1.000  H
  H52      1.0000 0.31540  0.15960  0.90910  Biso   1.000  H
  C71      1.0000 0.23960  0.36180  0.00880  Biso   1.000  C
  C72      1.0000 0.76040  0.63820  0.99120  Biso   1.000  C
  H53      1.0000 0.21530  0.33430  0.96790  Biso   1.000  H
  H54      1.0000 0.78470  0.66570  0.03210  Biso   1.000  H
  C73      1.0000 0.54620  0.81400  0.10330  Biso   1.000  C
  C74      1.0000 0.45380  0.18600  0.89670  Biso   1.000  C
  C75      1.0000 0.22350  0.01640  0.93080  Biso   1.000  C
  C76      1.0000 0.77650  0.98360  0.06920  Biso   1.000  C
  H55      1.0000 0.26580  0.02610  0.96950  Biso   1.000  H
  H56      1.0000 0.73420  0.97390  0.03050  Biso   1.000  H
  C77      1.0000 0.55810  0.85890  0.16510  Biso   1.000  C
  C78      1.0000 0.44190  0.14110  0.83490  Biso   1.000  C
  C79      1.0000 0.25700  0.98490  0.88160  Biso   1.000  C
  C80      1.0000 0.74300  0.01510  0.11840  Biso   1.000  C
  H57      1.0000 0.32180  0.97420  0.88670  Biso   1.000  H
  H58      1.0000 0.67820  0.02580  0.11330  Biso   1.000  H
  C81      1.0000 0.65030  0.90680  0.20530  Biso   1.000  C
  C82      1.0000 0.34970  0.09320  0.79470  Biso   1.000  C
  H59      1.0000 0.71200  0.90860  0.19440  Biso   1.000  H
  H60      1.0000 0.28800  0.09140  0.80560  Biso   1.000  H
  C83      1.0000 0.19200  0.97040  0.82600  Biso   1.000  C
  C84      1.0000 0.80800  0.02960  0.17400  Biso   1.000  C
  H61      1.0000 0.21280  0.94760  0.79270  Biso   1.000  H
  H62      1.0000 0.78720  0.05240  0.20730  Biso   1.000  H
  C85      1.0000 0.65090  0.94970  0.25880  Biso   1.000  C
  C86      1.0000 0.34910  0.05030  0.74120  Biso   1.000  C
  H63      1.0000 0.71200  0.98220  0.28490  Biso   1.000  H
  H64      1.0000 0.28800  0.01780  0.71510  Biso   1.000  H
  C87      1.0000 0.89350  0.03500  0.81450  Biso   1.000  C
  C88      1.0000 0.10650  0.96500  0.18550  Biso   1.000  C
  H65      1.0000 0.90010  0.01700  0.77600  Biso   1.000  H
  H66      1.0000 0.09990  0.98300  0.22400  Biso   1.000  H
  C89      1.0000 0.55850  0.94540  0.27530  Biso   1.000  C
  C90      1.0000 0.44150  0.05460  0.72470  Biso   1.000  C
  H67      1.0000 0.55640  0.97510  0.31230  Biso   1.000  H
  H68      1.0000 0.44360  0.02490  0.68770  Biso   1.000  H
  C91      1.0000 0.80460  0.05950  0.82420  Biso   1.000  C
  C92      1.0000 0.19540  0.94050  0.17580  Biso   1.000  C
  H69      1.0000 0.75310  0.05800  0.79130  Biso   1.000  H
  H70      1.0000 0.24690  0.94200  0.20870  Biso   1.000  H
  C93      1.0000 0.47050  0.89580  0.23510  Biso   1.000  C
  C94      1.0000 0.52950  0.10420  0.76490  Biso   1.000  C
  H71      1.0000 0.40870  0.89280  0.24580  Biso   1.000  H
  H72      1.0000 0.59130  0.10720  0.75420  Biso   1.000  H
  C95      1.0000 0.79270  0.08410  0.87770  Biso   1.000  C
  C96      1.0000 0.20730  0.91590  0.12230  Biso   1.000  C
  H73      1.0000 0.73550  0.10190  0.88340  Biso   1.000  H
  H74      1.0000 0.26450  0.89810  0.11660  Biso   1.000  H
  C97      1.0000 0.62400  0.88570  0.38990  Biso   1.000  C
  C98      1.0000 0.37600  0.11430  0.61010  Biso   1.000  C
  H75      1.0000 0.62180  0.83960  0.37610  Biso   1.000  H
  H76      1.0000 0.37820  0.16040  0.62390  Biso   1.000  H
  C99      1.0000 0.63400  0.01500  0.43250  Biso   1.000  C
  C100     1.0000 0.36600  0.98500  0.56750  Biso   1.000  C
  C101     1.0000 0.50800  0.15040  0.48710  Biso   1.000  C
  C102     1.0000 0.49200  0.84960  0.51290  Biso   1.000  C
  C103     1.0000 0.41700  0.15280  0.48880  Biso   1.000  C
  C104     1.0000 0.58300  0.84720  0.51120  Biso   1.000  C
  C105     1.0000 0.26100  0.19310  0.50120  Biso   1.000  C
  C106     1.0000 0.73900  0.80690  0.49880  Biso   1.000  C
  H77      1.0000 0.24270  0.23300  0.52040  Biso   1.000  H
  H78      1.0000 0.75730  0.76700  0.47960  Biso   1.000  H
  C107     1.0000 0.53510  0.91230  0.39610  Biso   1.000  C
  C108     1.0000 0.46490  0.08770  0.60390  Biso   1.000  C
  H79      1.0000 0.47000  0.88160  0.38260  Biso   1.000  H
  H80      1.0000 0.53000  0.11840  0.61740  Biso   1.000  H
  C109     1.0000 0.23400  0.07560  0.44480  Biso   1.000  C
  C110     1.0000 0.76600  0.92440  0.55520  Biso   1.000  C
  H81      1.0000 0.19430  0.03110  0.42270  Biso   1.000  H
  H82      1.0000 0.80570  0.96890  0.57730  Biso   1.000  H
  C111     1.0000 0.93440  0.53040  0.61190  Biso   1.000  C
  C112     1.0000 0.06560  0.46960  0.38810  Biso   1.000  C
  C113     1.0000 0.36200  0.19170  0.50610  Biso   1.000  C
  C114     1.0000 0.63800  0.80830  0.49390  Biso   1.000  C
  H83      1.0000 0.40530  0.23470  0.53080  Biso   1.000  H
  H84      1.0000 0.59470  0.76530  0.46920  Biso   1.000  H
  C115     1.0000 0.76010  0.49810  0.55090  Biso   1.000  C
  C116     1.0000 0.23990  0.50190  0.44910  Biso   1.000  C
  H85      1.0000 0.70780  0.46890  0.51570  Biso   1.000  H
  H86      1.0000 0.29220  0.53110  0.48430  Biso   1.000  H
  C117     1.0000 0.17600  0.12600  0.46250  Biso   1.000  C
  C118     1.0000 0.82400  0.87400  0.53750  Biso   1.000  C
  H87      1.0000 0.10330  0.11970  0.45280  Biso   1.000  H
  H88      1.0000 0.89670  0.88030  0.54720  Biso   1.000  H
  C119     1.0000 0.10310  0.38340  0.50230  Biso   1.000  C
  C120     1.0000 0.89690  0.61660  0.49770  Biso   1.000  C
  C121     1.0000 0.70300  0.14590  0.46820  Biso   1.000  C
  C122     1.0000 0.29700  0.85410  0.53180  Biso   1.000  C
  H89      1.0000 0.76480  0.14750  0.45780  Biso   1.000  H
  H90      1.0000 0.23520  0.85250  0.54220  Biso   1.000  H
  C123     1.0000 0.42030  0.40510  0.00800  Biso   1.000  C
  C124     1.0000 0.57970  0.59490  0.99200  Biso   1.000  C
  C125     1.0000 0.67100  0.20390  0.49590  Biso   1.000  C
  C126     1.0000 0.32900  0.79610  0.50410  Biso   1.000  C
  H91      1.0000 0.72710  0.24200  0.50970  Biso   1.000  H
  H92      1.0000 0.27290  0.75800  0.49030  Biso   1.000  H
  C127     1.0000 0.48420  0.57210  0.30650  Biso   1.000  C
  C128     1.0000 0.51580  0.42790  0.69350  Biso   1.000  C
  H93      1.0000 0.52690  0.60180  0.34470  Biso   1.000  H
  H94      1.0000 0.47310  0.39820  0.65530  Biso   1.000  H
  C129     1.0000 0.58600  0.22250  0.50900  Biso   1.000  C
  C130     1.0000 0.41400  0.77750  0.49100  Biso   1.000  C
  H95      1.0000 0.57550  0.26550  0.52610  Biso   1.000  H
  H96      1.0000 0.42450  0.73450  0.47390  Biso   1.000  H
  C131     1.0000 0.52560  0.55360  0.25890  Biso   1.000  C
  C132     1.0000 0.47440  0.44640  0.74110  Biso   1.000  C
  H97      1.0000 0.59680  0.57150  0.26640  Biso   1.000  H
  H98      1.0000 0.40320  0.42850  0.73360  Biso   1.000  H
  C133     1.0000 0.71200  0.93500  0.40630  Biso   1.000  C
  C134     1.0000 0.28800  0.06500  0.59370  Biso   1.000  C
  H99      1.0000 0.77100  0.91980  0.39910  Biso   1.000  H
  H100     1.0000 0.22900  0.08020  0.60090  Biso   1.000  H
  C135     1.0000 0.31980  0.50410  0.23890  Biso   1.000  C
  C136     1.0000 0.68020  0.49590  0.76110  Biso   1.000  C
  H101     1.0000 0.24810  0.48710  0.23090  Biso   1.000  H
  H102     1.0000 0.75190  0.51290  0.76910  Biso   1.000  H
  C137     1.0000 0.72600  0.99380  0.42820  Biso   1.000  C
  C138     1.0000 0.27400  0.00620  0.57180  Biso   1.000  C
  H103     1.0000 0.79190  0.02370  0.44150  Biso   1.000  H
  H104     1.0000 0.20810  0.97630  0.55850  Biso   1.000  H
  C139     1.0000 0.36770  0.48770  0.19420  Biso   1.000  C
  C140     1.0000 0.63230  0.51230  0.80580  Biso   1.000  C
  C141     1.0000 0.81100  0.15490  0.07380  Biso   1.000  C
  C142     1.0000 0.18900  0.84510  0.92620  Biso   1.000  C
  H105     1.0000 0.75850  0.16990  0.08930  Biso   1.000  H
  H106     1.0000 0.24150  0.83010  0.91070  Biso   1.000  H
  C143     1.0000 0.20980  0.40800  0.10720  Biso   1.000  C
  C144     1.0000 0.79020  0.59200  0.89280  Biso   1.000  C
  H107     1.0000 0.16450  0.41140  0.13080  Biso   1.000  H
  H108     1.0000 0.83550  0.58860  0.86920  Biso   1.000  H
  C145     1.0000 0.90000  0.15580  0.11310  Biso   1.000  C
  C146     1.0000 0.10000  0.84420  0.88690  Biso   1.000  C
  H109     1.0000 0.91260  0.17320  0.15460  Biso   1.000  H
  H110     1.0000 0.08740  0.82680  0.84540  Biso   1.000  H
  C147     1.0000 0.31390  0.44270  0.13160  Biso   1.000  C
  C148     1.0000 0.68610  0.55730  0.86840  Biso   1.000  C
  C149     1.0000 0.62800  0.07970  0.45630  Biso   1.000  C
  C150     1.0000 0.37200  0.92030  0.54370  Biso   1.000  C
  N1       1.0000 0.95850  0.06400  0.91880  Biso   1.000  N
  N2       1.0000 0.04150  0.93600  0.08120  Biso   1.000  N
  N3       1.0000 0.95970  0.10600  0.02850  Biso   1.000  N
  N4       1.0000 0.04030  0.89400  0.97150  Biso   1.000  N
  N5       1.0000 0.13210  0.03270  0.92330  Biso   1.000  N
  N6       1.0000 0.86790  0.96730  0.07670  Biso   1.000  N
  N7       1.0000 0.47100  0.51240  0.20390  Biso   1.000  N
  N8       1.0000 0.52900  0.48760  0.79610  Biso   1.000  N
  N9       1.0000 0.03600  0.46620  0.56410  Biso   1.000  N
  N10      1.0000 0.96400  0.53380  0.43590  Biso   1.000  N
  N11      1.0000 0.37490  0.43580  0.09570  Biso   1.000  N
  N12      1.0000 0.62510  0.56420  0.90430  Biso   1.000  N
  N13      1.0000 0.51960  0.44210  0.04510  Biso   1.000  N
  N14      1.0000 0.48040  0.55790  0.95490  Biso   1.000  N
  N15      1.0000 0.26130  0.69990  0.04000  Biso   1.000  N
  N16      1.0000 0.73870  0.30010  0.96000  Biso   1.000  N
  N17      1.0000 0.44990  0.77350  0.07560  Biso   1.000  N
  N18      1.0000 0.55010  0.22650  0.92440  Biso   1.000  N
  N19      1.0000 0.46930  0.85230  0.18230  Biso   1.000  N
  N20      1.0000 0.53070  0.14770  0.81770  Biso   1.000  N
  N21      1.0000 0.53810  0.97630  0.41920  Biso   1.000  N
  N22      1.0000 0.46190  0.02370  0.58080  Biso   1.000  N
  N23      1.0000 0.33690  0.08620  0.45670  Biso   1.000  N
  N24      1.0000 0.66310  0.91380  0.54330  Biso   1.000  N
  N25      1.0000 0.00120  0.36250  0.46520  Biso   1.000  N
  N26      1.0000 0.99880  0.63750  0.53480  Biso   1.000  N
  N27      1.0000 0.53930  0.09870  0.46830  Biso   1.000  N
  N28      1.0000 0.46070  0.90130  0.53170  Biso   1.000  N
  N29      1.0000 0.85700  0.48990  0.55960  Biso   1.000  N
  N30      1.0000 0.14300  0.51010  0.44040  Biso   1.000  N
  P1       1.0000 0.47410  0.21630  0.24780  Biso   1.000  P
  P2       1.0000 0.52590  0.78370  0.75220  Biso   1.000  P
  P3       1.0000 0.98900  0.73270  0.27620  Biso   1.000  P
  P4       1.0000 0.01100  0.26730  0.72380  Biso   1.000  P
