data_image0
_cell_length_a       7.14
_cell_length_b       22.878
_cell_length_c       25.504
_cell_angle_alpha    90
_cell_angle_beta     90
_cell_angle_gamma    90

_symmetry_space_group_name_H-M    "P 1"
_symmetry_int_tables_number       1

loop_
  _symmetry_equiv_pos_as_xyz
  'x, y, z'

loop_
  _atom_site_label
  _atom_site_occupancy
  _atom_site_fract_x
  _atom_site_fract_y
  _atom_site_fract_z
  _atom_site_thermal_displace_type
  _atom_site_B_iso_or_equiv
  _atom_site_type_symbol
  Cu1      1.0000 0.90367  0.23951  0.15134  Biso   1.000  Cu
  Cu2      1.0000 0.59633  0.76049  0.65134  Biso   1.000  Cu
  Cu3      1.0000 0.40367  0.26049  0.84866  Biso   1.000  Cu
  Cu4      1.0000 0.09633  0.73951  0.34866  Biso   1.000  Cu
  Cu5      1.0000 0.09633  0.76049  0.84866  Biso   1.000  Cu
  Cu6      1.0000 0.40367  0.23951  0.34866  Biso   1.000  Cu
  Cu7      1.0000 0.59633  0.73951  0.15134  Biso   1.000  Cu
  Cu8      1.0000 0.90367  0.26049  0.65134  Biso   1.000  Cu
  Cl1      1.0000 0.98667  0.02035  0.14658  Biso   1.000  Cl
  Cl2      1.0000 0.51333  0.97965  0.64658  Biso   1.000  Cl
  Cl3      1.0000 0.48667  0.47965  0.85342  Biso   1.000  Cl
  Cl4      1.0000 0.01333  0.52035  0.35342  Biso   1.000  Cl
  Cl5      1.0000 0.01333  0.97965  0.85342  Biso   1.000  Cl
  Cl6      1.0000 0.48667  0.02035  0.35342  Biso   1.000  Cl
  Cl7      1.0000 0.51333  0.52035  0.14658  Biso   1.000  Cl
  Cl8      1.0000 0.98667  0.47965  0.64658  Biso   1.000  Cl
  Cl9      1.0000 0.42097  0.24624  0.12680  Biso   1.000  Cl
  Cl10     1.0000 0.07903  0.75376  0.62680  Biso   1.000  Cl
  Cl11     1.0000 0.92097  0.25376  0.87320  Biso   1.000  Cl
  Cl12     1.0000 0.57903  0.74624  0.37320  Biso   1.000  Cl
  Cl13     1.0000 0.57903  0.75376  0.87320  Biso   1.000  Cl
  Cl14     1.0000 0.92097  0.24624  0.37320  Biso   1.000  Cl
  Cl15     1.0000 0.07903  0.74624  0.12680  Biso   1.000  Cl
  Cl16     1.0000 0.42097  0.25376  0.62680  Biso   1.000  Cl
  O1       1.0000 0.82530  0.04768  0.16887  Biso   1.000  O
  O2       1.0000 0.67470  0.95232  0.66887  Biso   1.000  O
  O3       1.0000 0.32530  0.45232  0.83113  Biso   1.000  O
  O4       1.0000 0.17470  0.54768  0.33113  Biso   1.000  O
  O5       1.0000 0.17470  0.95232  0.83113  Biso   1.000  O
  O6       1.0000 0.32530  0.04768  0.33113  Biso   1.000  O
  O7       1.0000 0.67470  0.54768  0.16887  Biso   1.000  O
  O8       1.0000 0.82530  0.45232  0.66887  Biso   1.000  O
  O9       1.0000 0.93350  0.96610  0.12407  Biso   1.000  O
  O10      1.0000 0.56650  0.03390  0.62407  Biso   1.000  O
  O11      1.0000 0.43350  0.53390  0.87593  Biso   1.000  O
  O12      1.0000 0.06650  0.46610  0.37593  Biso   1.000  O
  O13      1.0000 0.06650  0.03390  0.87593  Biso   1.000  O
  O14      1.0000 0.43350  0.96610  0.37593  Biso   1.000  O
  O15      1.0000 0.56650  0.46610  0.12407  Biso   1.000  O
  O16      1.0000 0.93350  0.53390  0.62407  Biso   1.000  O
  O17      1.0000 0.12460  0.01066  0.18591  Biso   1.000  O
  O18      1.0000 0.37540  0.98934  0.68591  Biso   1.000  O
  O19      1.0000 0.62460  0.48934  0.81409  Biso   1.000  O
  O20      1.0000 0.87540  0.51066  0.31409  Biso   1.000  O
  O21      1.0000 0.87540  0.98934  0.81409  Biso   1.000  O
  O22      1.0000 0.62460  0.01066  0.31409  Biso   1.000  O
  O23      1.0000 0.37540  0.51066  0.18591  Biso   1.000  O
  O24      1.0000 0.12460  0.48934  0.68591  Biso   1.000  O
  O25      1.0000 0.06150  0.05854  0.10733  Biso   1.000  O
  O26      1.0000 0.43850  0.94146  0.60733  Biso   1.000  O
  O27      1.0000 0.56150  0.44146  0.89267  Biso   1.000  O
  O28      1.0000 0.93850  0.55854  0.39267  Biso   1.000  O
  O29      1.0000 0.93850  0.94146  0.89267  Biso   1.000  O
  O30      1.0000 0.56150  0.05854  0.39267  Biso   1.000  O
  O31      1.0000 0.43850  0.55854  0.10733  Biso   1.000  O
  O32      1.0000 0.06150  0.44146  0.60733  Biso   1.000  O
  O33      1.0000 0.39360  0.29520  0.09350  Biso   1.000  O
  O34      1.0000 0.10640  0.70480  0.59350  Biso   1.000  O
  O35      1.0000 0.89360  0.20480  0.90650  Biso   1.000  O
  O36      1.0000 0.60640  0.79520  0.40650  Biso   1.000  O
  O37      1.0000 0.60640  0.70480  0.90650  Biso   1.000  O
  O38      1.0000 0.89360  0.29520  0.40650  Biso   1.000  O
  O39      1.0000 0.10640  0.79520  0.09350  Biso   1.000  O
  O40      1.0000 0.39360  0.20480  0.59350  Biso   1.000  O
  O41      1.0000 0.46370  0.19630  0.09010  Biso   1.000  O
  O42      1.0000 0.03630  0.80370  0.59010  Biso   1.000  O
  O43      1.0000 0.96370  0.30370  0.90990  Biso   1.000  O
  O44      1.0000 0.53630  0.69630  0.40990  Biso   1.000  O
  O45      1.0000 0.53630  0.80370  0.90990  Biso   1.000  O
  O46      1.0000 0.96370  0.19630  0.40990  Biso   1.000  O
  O47      1.0000 0.03630  0.69630  0.09010  Biso   1.000  O
  O48      1.0000 0.46370  0.30370  0.59010  Biso   1.000  O
  O49      1.0000 0.57240  0.24519  0.16393  Biso   1.000  O
  O50      1.0000 0.92760  0.75481  0.66393  Biso   1.000  O
  O51      1.0000 0.07240  0.25481  0.83607  Biso   1.000  O
  O52      1.0000 0.42760  0.74519  0.33607  Biso   1.000  O
  O53      1.0000 0.42760  0.75481  0.83607  Biso   1.000  O
  O54      1.0000 0.07240  0.24519  0.33607  Biso   1.000  O
  O55      1.0000 0.92760  0.74519  0.16393  Biso   1.000  O
  O56      1.0000 0.57240  0.25481  0.66393  Biso   1.000  O
  O57      1.0000 0.25500  0.22671  0.15233  Biso   1.000  O
  O58      1.0000 0.24500  0.77329  0.65233  Biso   1.000  O
  O59      1.0000 0.75500  0.27329  0.84767  Biso   1.000  O
  O60      1.0000 0.74500  0.72671  0.34767  Biso   1.000  O
  O61      1.0000 0.74500  0.77329  0.84767  Biso   1.000  O
  O62      1.0000 0.75500  0.22671  0.34767  Biso   1.000  O
  O63      1.0000 0.24500  0.72671  0.15233  Biso   1.000  O
  O64      1.0000 0.25500  0.27329  0.65233  Biso   1.000  O
  N1       1.0000 0.91250  0.18846  0.21414  Biso   1.000  N
  N2       1.0000 0.58750  0.81154  0.71414  Biso   1.000  N
  N3       1.0000 0.41250  0.31154  0.78586  Biso   1.000  N
  N4       1.0000 0.08750  0.68846  0.28586  Biso   1.000  N
  N5       1.0000 0.08750  0.81154  0.78586  Biso   1.000  N
  N6       1.0000 0.41250  0.18846  0.28586  Biso   1.000  N
  N7       1.0000 0.58750  0.68846  0.21414  Biso   1.000  N
  N8       1.0000 0.91250  0.31154  0.71414  Biso   1.000  N
  N9       1.0000 0.94970  0.31639  0.18598  Biso   1.000  N
  N10      1.0000 0.55030  0.68361  0.68598  Biso   1.000  N
  N11      1.0000 0.44970  0.18361  0.81402  Biso   1.000  N
  N12      1.0000 0.05030  0.81639  0.31402  Biso   1.000  N
  N13      1.0000 0.05030  0.68361  0.81402  Biso   1.000  N
  N14      1.0000 0.44970  0.31639  0.31402  Biso   1.000  N
  N15      1.0000 0.55030  0.81639  0.18598  Biso   1.000  N
  N16      1.0000 0.94970  0.18361  0.68598  Biso   1.000  N
  N17      1.0000 0.92010  0.28907  0.08896  Biso   1.000  N
  N18      1.0000 0.57990  0.71093  0.58896  Biso   1.000  N
  N19      1.0000 0.42010  0.21093  0.91104  Biso   1.000  N
  N20      1.0000 0.07990  0.78907  0.41104  Biso   1.000  N
  N21      1.0000 0.07990  0.71093  0.91104  Biso   1.000  N
  N22      1.0000 0.42010  0.28907  0.41104  Biso   1.000  N
  N23      1.0000 0.57990  0.78907  0.08896  Biso   1.000  N
  N24      1.0000 0.92010  0.21093  0.58896  Biso   1.000  N
  N25      1.0000 0.87740  0.17492  0.09857  Biso   1.000  N
  N26      1.0000 0.62260  0.82508  0.59857  Biso   1.000  N
  N27      1.0000 0.37740  0.32508  0.90143  Biso   1.000  N
  N28      1.0000 0.12260  0.67492  0.40143  Biso   1.000  N
  N29      1.0000 0.12260  0.82508  0.90143  Biso   1.000  N
  N30      1.0000 0.37740  0.17492  0.40143  Biso   1.000  N
  N31      1.0000 0.62260  0.67492  0.09857  Biso   1.000  N
  N32      1.0000 0.87740  0.32508  0.59857  Biso   1.000  N
  C1       1.0000 0.95230  0.32813  0.23742  Biso   1.000  C
  C2       1.0000 0.54770  0.67187  0.73742  Biso   1.000  C
  C3       1.0000 0.45230  0.17187  0.76258  Biso   1.000  C
  C4       1.0000 0.04770  0.82813  0.26258  Biso   1.000  C
  C5       1.0000 0.04770  0.67187  0.76258  Biso   1.000  C
  C6       1.0000 0.45230  0.32813  0.26258  Biso   1.000  C
  C7       1.0000 0.54770  0.82813  0.23742  Biso   1.000  C
  C8       1.0000 0.95230  0.17187  0.73742  Biso   1.000  C
  H1       1.0000 0.93110  0.29730  0.26160  Biso   1.000  H
  H2       1.0000 0.56890  0.70270  0.76160  Biso   1.000  H
  H3       1.0000 0.43110  0.20270  0.73840  Biso   1.000  H
  H4       1.0000 0.06890  0.79730  0.23840  Biso   1.000  H
  H5       1.0000 0.06890  0.70270  0.73840  Biso   1.000  H
  H6       1.0000 0.43110  0.29730  0.23840  Biso   1.000  H
  H7       1.0000 0.56890  0.79730  0.26160  Biso   1.000  H
  H8       1.0000 0.93110  0.20270  0.76160  Biso   1.000  H
  C9       1.0000 0.98520  0.38393  0.25631  Biso   1.000  C
  C10      1.0000 0.51480  0.61607  0.75631  Biso   1.000  C
  C11      1.0000 0.48520  0.11607  0.74369  Biso   1.000  C
  C12      1.0000 0.01480  0.88393  0.24369  Biso   1.000  C
  C13      1.0000 0.01480  0.61607  0.74369  Biso   1.000  C
  C14      1.0000 0.48520  0.38393  0.24369  Biso   1.000  C
  C15      1.0000 0.51480  0.88393  0.25631  Biso   1.000  C
  C16      1.0000 0.98520  0.11607  0.75631  Biso   1.000  C
  H9       1.0000 0.98750  0.39110  0.29300  Biso   1.000  H
  H10      1.0000 0.51250  0.60890  0.79300  Biso   1.000  H
  H11      1.0000 0.48750  0.10890  0.70700  Biso   1.000  H
  H12      1.0000 0.01250  0.89110  0.20700  Biso   1.000  H
  H13      1.0000 0.01250  0.60890  0.70700  Biso   1.000  H
  H14      1.0000 0.48750  0.39110  0.20700  Biso   1.000  H
  H15      1.0000 0.51250  0.89110  0.29300  Biso   1.000  H
  H16      1.0000 0.98750  0.10890  0.79300  Biso   1.000  H
  C17      1.0000 0.01430  0.42870  0.22170  Biso   1.000  C
  C18      1.0000 0.48570  0.57130  0.72170  Biso   1.000  C
  C19      1.0000 0.51430  0.07130  0.77830  Biso   1.000  C
  C20      1.0000 0.98570  0.92870  0.27830  Biso   1.000  C
  C21      1.0000 0.98570  0.57130  0.77830  Biso   1.000  C
  C22      1.0000 0.51430  0.42870  0.27830  Biso   1.000  C
  C23      1.0000 0.48570  0.92870  0.22170  Biso   1.000  C
  C24      1.0000 0.01430  0.07130  0.72170  Biso   1.000  C
  H17      1.0000 0.03620  0.46730  0.23410  Biso   1.000  H
  H18      1.0000 0.46380  0.53270  0.73410  Biso   1.000  H
  H19      1.0000 0.53620  0.03270  0.76590  Biso   1.000  H
  H20      1.0000 0.96380  0.96730  0.26590  Biso   1.000  H
  H21      1.0000 0.96380  0.53270  0.76590  Biso   1.000  H
  H22      1.0000 0.53620  0.46730  0.26590  Biso   1.000  H
  H23      1.0000 0.46380  0.96730  0.23410  Biso   1.000  H
  H24      1.0000 0.03620  0.03270  0.73410  Biso   1.000  H
  C25      1.0000 0.01130  0.41705  0.16818  Biso   1.000  C
  C26      1.0000 0.48870  0.58295  0.66818  Biso   1.000  C
  C27      1.0000 0.51130  0.08295  0.83182  Biso   1.000  C
  C28      1.0000 0.98870  0.91705  0.33182  Biso   1.000  C
  C29      1.0000 0.98870  0.58295  0.83182  Biso   1.000  C
  C30      1.0000 0.51130  0.41705  0.33182  Biso   1.000  C
  C31      1.0000 0.48870  0.91705  0.16818  Biso   1.000  C
  C32      1.0000 0.01130  0.08295  0.66818  Biso   1.000  C
  H25      1.0000 0.03040  0.44760  0.14350  Biso   1.000  H
  H26      1.0000 0.46960  0.55240  0.64350  Biso   1.000  H
  H27      1.0000 0.53040  0.05240  0.85650  Biso   1.000  H
  H28      1.0000 0.96960  0.94760  0.35650  Biso   1.000  H
  H29      1.0000 0.96960  0.55240  0.85650  Biso   1.000  H
  H30      1.0000 0.53040  0.44760  0.35650  Biso   1.000  H
  H31      1.0000 0.46960  0.94760  0.14350  Biso   1.000  H
  H32      1.0000 0.03040  0.05240  0.64350  Biso   1.000  H
  C33      1.0000 0.98030  0.36065  0.15136  Biso   1.000  C
  C34      1.0000 0.51970  0.63935  0.65136  Biso   1.000  C
  C35      1.0000 0.48030  0.13935  0.84864  Biso   1.000  C
  C36      1.0000 0.01970  0.86065  0.34864  Biso   1.000  C
  C37      1.0000 0.01970  0.63935  0.84864  Biso   1.000  C
  C38      1.0000 0.48030  0.36065  0.34864  Biso   1.000  C
  C39      1.0000 0.51970  0.86065  0.15136  Biso   1.000  C
  C40      1.0000 0.98030  0.13935  0.65136  Biso   1.000  C
  C41      1.0000 0.97160  0.34239  0.09543  Biso   1.000  C
  C42      1.0000 0.52840  0.65761  0.59543  Biso   1.000  C
  C43      1.0000 0.47160  0.15761  0.90457  Biso   1.000  C
  C44      1.0000 0.02840  0.84239  0.40457  Biso   1.000  C
  C45      1.0000 0.02840  0.65761  0.90457  Biso   1.000  C
  C46      1.0000 0.47160  0.34239  0.40457  Biso   1.000  C
  C47      1.0000 0.52840  0.84239  0.09543  Biso   1.000  C
  C48      1.0000 0.97160  0.15761  0.59543  Biso   1.000  C
  C49      1.0000 0.90500  0.25811  0.03930  Biso   1.000  C
  C50      1.0000 0.59500  0.74189  0.53930  Biso   1.000  C
  C51      1.0000 0.40500  0.24189  0.96070  Biso   1.000  C
  C52      1.0000 0.09500  0.75811  0.46070  Biso   1.000  C
  C53      1.0000 0.09500  0.74189  0.96070  Biso   1.000  C
  C54      1.0000 0.40500  0.25811  0.46070  Biso   1.000  C
  C55      1.0000 0.59500  0.75811  0.03930  Biso   1.000  C
  C56      1.0000 0.90500  0.24189  0.53930  Biso   1.000  C
  H33      1.0000 0.98740  0.27640  0.01270  Biso   1.000  H
  H34      1.0000 0.51260  0.72360  0.51270  Biso   1.000  H
  H35      1.0000 0.48740  0.22360  0.98730  Biso   1.000  H
  H36      1.0000 0.01260  0.77640  0.48730  Biso   1.000  H
  H37      1.0000 0.01260  0.72360  0.98730  Biso   1.000  H
  H38      1.0000 0.48740  0.27640  0.48730  Biso   1.000  H
  H39      1.0000 0.51260  0.77640  0.01270  Biso   1.000  H
  H40      1.0000 0.98740  0.22360  0.51270  Biso   1.000  H
  H41      1.0000 0.77440  0.25940  0.02630  Biso   1.000  H
  H42      1.0000 0.72560  0.74060  0.52630  Biso   1.000  H
  H43      1.0000 0.27440  0.24060  0.97370  Biso   1.000  H
  H44      1.0000 0.22560  0.75940  0.47370  Biso   1.000  H
  H45      1.0000 0.22560  0.74060  0.97370  Biso   1.000  H
  H46      1.0000 0.27440  0.25940  0.47370  Biso   1.000  H
  H47      1.0000 0.72560  0.75940  0.02630  Biso   1.000  H
  H48      1.0000 0.77440  0.24060  0.52630  Biso   1.000  H
  C57      1.0000 0.96460  0.19514  0.04916  Biso   1.000  C
  C58      1.0000 0.53540  0.80486  0.54916  Biso   1.000  C
  C59      1.0000 0.46460  0.30486  0.95084  Biso   1.000  C
  C60      1.0000 0.03540  0.69514  0.45084  Biso   1.000  C
  C61      1.0000 0.03540  0.80486  0.95084  Biso   1.000  C
  C62      1.0000 0.46460  0.19514  0.45084  Biso   1.000  C
  C63      1.0000 0.53540  0.69514  0.04916  Biso   1.000  C
  C64      1.0000 0.96460  0.30486  0.54916  Biso   1.000  C
  H49      1.0000 0.92380  0.17000  0.01970  Biso   1.000  H
  H50      1.0000 0.57620  0.83000  0.51970  Biso   1.000  H
  H51      1.0000 0.42380  0.33000  0.98030  Biso   1.000  H
  H52      1.0000 0.07620  0.67000  0.48030  Biso   1.000  H
  H53      1.0000 0.07620  0.83000  0.98030  Biso   1.000  H
  H54      1.0000 0.42380  0.17000  0.48030  Biso   1.000  H
  H55      1.0000 0.57620  0.67000  0.01970  Biso   1.000  H
  H56      1.0000 0.92380  0.33000  0.51970  Biso   1.000  H
  H57      1.0000 0.10270  0.19280  0.05190  Biso   1.000  H
  H58      1.0000 0.39730  0.80720  0.55190  Biso   1.000  H
  H59      1.0000 0.60270  0.30720  0.94810  Biso   1.000  H
  H60      1.0000 0.89730  0.69280  0.44810  Biso   1.000  H
  H61      1.0000 0.89730  0.80720  0.94810  Biso   1.000  H
  H62      1.0000 0.60270  0.19280  0.44810  Biso   1.000  H
  H63      1.0000 0.39730  0.69280  0.05190  Biso   1.000  H
  H64      1.0000 0.10270  0.30720  0.55190  Biso   1.000  H
  C65      1.0000 0.02280  0.38255  0.05202  Biso   1.000  C
  C66      1.0000 0.47720  0.61745  0.55202  Biso   1.000  C
  C67      1.0000 0.52280  0.11745  0.94798  Biso   1.000  C
  C68      1.0000 0.97720  0.88255  0.44798  Biso   1.000  C
  C69      1.0000 0.97720  0.61745  0.94798  Biso   1.000  C
  C70      1.0000 0.52280  0.38255  0.44798  Biso   1.000  C
  C71      1.0000 0.47720  0.88255  0.05202  Biso   1.000  C
  C72      1.0000 0.02280  0.11745  0.55202  Biso   1.000  C
  C73      1.0000 0.19940  0.40864  0.05146  Biso   1.000  C
  C74      1.0000 0.30060  0.59136  0.55146  Biso   1.000  C
  C75      1.0000 0.69940  0.09136  0.94854  Biso   1.000  C
  C76      1.0000 0.80060  0.90864  0.44854  Biso   1.000  C
  C77      1.0000 0.80060  0.59136  0.94854  Biso   1.000  C
  C78      1.0000 0.69940  0.40864  0.44854  Biso   1.000  C
  C79      1.0000 0.30060  0.90864  0.05146  Biso   1.000  C
  C80      1.0000 0.19940  0.09136  0.55146  Biso   1.000  C
  H65      1.0000 0.28210  0.40400  0.08030  Biso   1.000  H
  H66      1.0000 0.21790  0.59600  0.58030  Biso   1.000  H
  H67      1.0000 0.78210  0.09600  0.91970  Biso   1.000  H
  H68      1.0000 0.71790  0.90400  0.41970  Biso   1.000  H
  H69      1.0000 0.71790  0.59600  0.91970  Biso   1.000  H
  H70      1.0000 0.78210  0.40400  0.41970  Biso   1.000  H
  H71      1.0000 0.21790  0.90400  0.08030  Biso   1.000  H
  H72      1.0000 0.28210  0.09600  0.58030  Biso   1.000  H
  C81      1.0000 0.25290  0.44145  0.00827  Biso   1.000  C
  C82      1.0000 0.24710  0.55855  0.50827  Biso   1.000  C
  C83      1.0000 0.75290  0.05855  0.99173  Biso   1.000  C
  C84      1.0000 0.74710  0.94145  0.49173  Biso   1.000  C
  C85      1.0000 0.74710  0.55855  0.99173  Biso   1.000  C
  C86      1.0000 0.75290  0.44145  0.49173  Biso   1.000  C
  C87      1.0000 0.24710  0.94145  0.00827  Biso   1.000  C
  C88      1.0000 0.25290  0.05855  0.50827  Biso   1.000  C
  H73      1.0000 0.37350  0.45900  0.00740  Biso   1.000  H
  H74      1.0000 0.12650  0.54100  0.50740  Biso   1.000  H
  H75      1.0000 0.87350  0.04100  0.99260  Biso   1.000  H
  H76      1.0000 0.62650  0.95900  0.49260  Biso   1.000  H
  H77      1.0000 0.62650  0.54100  0.99260  Biso   1.000  H
  H78      1.0000 0.87350  0.45900  0.49260  Biso   1.000  H
  H79      1.0000 0.12650  0.95900  0.00740  Biso   1.000  H
  H80      1.0000 0.37350  0.04100  0.50740  Biso   1.000  H
  C89      1.0000 0.13220  0.44877  0.96651  Biso   1.000  C
  C90      1.0000 0.36780  0.55123  0.46651  Biso   1.000  C
  C91      1.0000 0.63220  0.05123  0.03349  Biso   1.000  C
  C92      1.0000 0.86780  0.94877  0.53349  Biso   1.000  C
  C93      1.0000 0.86780  0.55123  0.03349  Biso   1.000  C
  C94      1.0000 0.63220  0.44877  0.53349  Biso   1.000  C
  C95      1.0000 0.36780  0.94877  0.96651  Biso   1.000  C
  C96      1.0000 0.13220  0.05123  0.46651  Biso   1.000  C
  H81      1.0000 0.17120  0.47070  0.93680  Biso   1.000  H
  H82      1.0000 0.32880  0.52930  0.43680  Biso   1.000  H
  H83      1.0000 0.67120  0.02930  0.06320  Biso   1.000  H
  H84      1.0000 0.82880  0.97070  0.56320  Biso   1.000  H
  H85      1.0000 0.82880  0.52930  0.06320  Biso   1.000  H
  H86      1.0000 0.67120  0.47070  0.56320  Biso   1.000  H
  H87      1.0000 0.32880  0.97070  0.93680  Biso   1.000  H
  H88      1.0000 0.17120  0.02930  0.43680  Biso   1.000  H
  C97      1.0000 0.95650  0.42471  0.96751  Biso   1.000  C
  C98      1.0000 0.54350  0.57529  0.46751  Biso   1.000  C
  C99      1.0000 0.45650  0.07529  0.03249  Biso   1.000  C
  C100     1.0000 0.04350  0.92471  0.53249  Biso   1.000  C
  C101     1.0000 0.04350  0.57529  0.03249  Biso   1.000  C
  C102     1.0000 0.45650  0.42471  0.53249  Biso   1.000  C
  C103     1.0000 0.54350  0.92471  0.96751  Biso   1.000  C
  C104     1.0000 0.95650  0.07529  0.46751  Biso   1.000  C
  H89      1.0000 0.87300  0.43090  0.93900  Biso   1.000  H
  H90      1.0000 0.62700  0.56910  0.43900  Biso   1.000  H
  H91      1.0000 0.37300  0.06910  0.06100  Biso   1.000  H
  H92      1.0000 0.12700  0.93090  0.56100  Biso   1.000  H
  H93      1.0000 0.12700  0.56910  0.06100  Biso   1.000  H
  H94      1.0000 0.37300  0.43090  0.56100  Biso   1.000  H
  H95      1.0000 0.62700  0.93090  0.93900  Biso   1.000  H
  H96      1.0000 0.87300  0.06910  0.43900  Biso   1.000  H
  C105     1.0000 0.90070  0.39131  0.01012  Biso   1.000  C
  C106     1.0000 0.59930  0.60869  0.51012  Biso   1.000  C
  C107     1.0000 0.40070  0.10869  0.98988  Biso   1.000  C
  C108     1.0000 0.09930  0.89131  0.48988  Biso   1.000  C
  C109     1.0000 0.09930  0.60869  0.98988  Biso   1.000  C
  C110     1.0000 0.40070  0.39131  0.48988  Biso   1.000  C
  C111     1.0000 0.59930  0.89131  0.01012  Biso   1.000  C
  C112     1.0000 0.90070  0.10869  0.51012  Biso   1.000  C
  H97      1.0000 0.77920  0.37440  0.01070  Biso   1.000  H
  H98      1.0000 0.72080  0.62560  0.51070  Biso   1.000  H
  H99      1.0000 0.27920  0.12560  0.98930  Biso   1.000  H
  H100     1.0000 0.22080  0.87440  0.48930  Biso   1.000  H
  H101     1.0000 0.22080  0.62560  0.98930  Biso   1.000  H
  H102     1.0000 0.27920  0.37440  0.48930  Biso   1.000  H
  H103     1.0000 0.72080  0.87440  0.01070  Biso   1.000  H
  H104     1.0000 0.77920  0.12560  0.51070  Biso   1.000  H
  C113     1.0000 0.92410  0.15477  0.24658  Biso   1.000  C
  C114     1.0000 0.57590  0.84523  0.74658  Biso   1.000  C
  C115     1.0000 0.42410  0.34523  0.75342  Biso   1.000  C
  C116     1.0000 0.07590  0.65477  0.25342  Biso   1.000  C
  C117     1.0000 0.07590  0.84523  0.75342  Biso   1.000  C
  C118     1.0000 0.42410  0.15477  0.25342  Biso   1.000  C
  C119     1.0000 0.57590  0.65477  0.24658  Biso   1.000  C
  C120     1.0000 0.92410  0.34523  0.74658  Biso   1.000  C
  C121     1.0000 0.93730  0.11042  0.28744  Biso   1.000  C
  C122     1.0000 0.56270  0.88958  0.78744  Biso   1.000  C
  C123     1.0000 0.43730  0.38958  0.71256  Biso   1.000  C
  C124     1.0000 0.06270  0.61042  0.21256  Biso   1.000  C
  C125     1.0000 0.06270  0.88958  0.71256  Biso   1.000  C
  C126     1.0000 0.43730  0.11042  0.21256  Biso   1.000  C
  C127     1.0000 0.56270  0.61042  0.28744  Biso   1.000  C
  C128     1.0000 0.93730  0.38958  0.78744  Biso   1.000  C
  H105     1.0000 0.83640  0.08180  0.28290  Biso   1.000  H
  H106     1.0000 0.66360  0.91820  0.78290  Biso   1.000  H
  H107     1.0000 0.33640  0.41820  0.71710  Biso   1.000  H
  H108     1.0000 0.16360  0.58180  0.21710  Biso   1.000  H
  H109     1.0000 0.16360  0.91820  0.71710  Biso   1.000  H
  H110     1.0000 0.33640  0.08180  0.21710  Biso   1.000  H
  H111     1.0000 0.66360  0.58180  0.28290  Biso   1.000  H
  H112     1.0000 0.83640  0.41820  0.78290  Biso   1.000  H
  H113     1.0000 0.92570  0.12900  0.32190  Biso   1.000  H
  H114     1.0000 0.57430  0.87100  0.82190  Biso   1.000  H
  H115     1.0000 0.42570  0.37100  0.67810  Biso   1.000  H
  H116     1.0000 0.07430  0.62900  0.17810  Biso   1.000  H
  H117     1.0000 0.07430  0.87100  0.67810  Biso   1.000  H
  H118     1.0000 0.42570  0.12900  0.17810  Biso   1.000  H
  H119     1.0000 0.57430  0.62900  0.32190  Biso   1.000  H
  H120     1.0000 0.92570  0.37100  0.82190  Biso   1.000  H
  H121     1.0000 0.05860  0.09060  0.28500  Biso   1.000  H
  H122     1.0000 0.44140  0.90940  0.78500  Biso   1.000  H
  H123     1.0000 0.55860  0.40940  0.71500  Biso   1.000  H
  H124     1.0000 0.94140  0.59060  0.21500  Biso   1.000  H
  H125     1.0000 0.94140  0.90940  0.71500  Biso   1.000  H
  H126     1.0000 0.55860  0.09060  0.21500  Biso   1.000  H
  H127     1.0000 0.44140  0.59060  0.28500  Biso   1.000  H
  H128     1.0000 0.05860  0.40940  0.78500  Biso   1.000  H
  H129     1.0000 0.92100  0.14000  0.10880  Biso   1.000  H
  H130     1.0000 0.57900  0.86000  0.60880  Biso   1.000  H
  H131     1.0000 0.42100  0.36000  0.89120  Biso   1.000  H
  H132     1.0000 0.07900  0.64000  0.39120  Biso   1.000  H
  H133     1.0000 0.07900  0.86000  0.89120  Biso   1.000  H
  H134     1.0000 0.42100  0.14000  0.39120  Biso   1.000  H
  H135     1.0000 0.57900  0.64000  0.10880  Biso   1.000  H
  H136     1.0000 0.92100  0.36000  0.60880  Biso   1.000  H
  H137     1.0000 0.75480  0.16990  0.09360  Biso   1.000  H
  H138     1.0000 0.74520  0.83010  0.59360  Biso   1.000  H
  H139     1.0000 0.25480  0.33010  0.90640  Biso   1.000  H
  H140     1.0000 0.24520  0.66990  0.40640  Biso   1.000  H
  H141     1.0000 0.24520  0.83010  0.90640  Biso   1.000  H
  H142     1.0000 0.25480  0.16990  0.40640  Biso   1.000  H
  H143     1.0000 0.74520  0.66990  0.09360  Biso   1.000  H
  H144     1.0000 0.75480  0.33010  0.59360  Biso   1.000  H
  O65      1.0000 0.38780  0.30980  0.12930  Biso   1.000  O
  O66      1.0000 0.11220  0.69020  0.62930  Biso   1.000  O
  O67      1.0000 0.88780  0.19020  0.87070  Biso   1.000  O
  O68      1.0000 0.61220  0.80980  0.37070  Biso   1.000  O
  O69      1.0000 0.61220  0.69020  0.87070  Biso   1.000  O
  O70      1.0000 0.88780  0.30980  0.37070  Biso   1.000  O
  O71      1.0000 0.11220  0.80980  0.12930  Biso   1.000  O
  O72      1.0000 0.38780  0.19020  0.62930  Biso   1.000  O
  O73      1.0000 0.46760  0.22550  0.08120  Biso   1.000  O
  O74      1.0000 0.03240  0.77450  0.58120  Biso   1.000  O
  O75      1.0000 0.96760  0.27450  0.91880  Biso   1.000  O
  O76      1.0000 0.53240  0.72550  0.41880  Biso   1.000  O
  O77      1.0000 0.53240  0.77450  0.91880  Biso   1.000  O
  O78      1.0000 0.96760  0.22550  0.41880  Biso   1.000  O
  O79      1.0000 0.03240  0.72550  0.08120  Biso   1.000  O
  O80      1.0000 0.46760  0.27450  0.58120  Biso   1.000  O
