data_image0
_cell_length_a       8.8026
_cell_length_b       11.1933
_cell_length_c       12.9276
_cell_angle_alpha    101.852
_cell_angle_beta     109.169
_cell_angle_gamma    107.814

_symmetry_space_group_name_H-M    "P 1"
_symmetry_int_tables_number       1

loop_
  _symmetry_equiv_pos_as_xyz
  'x, y, z'

loop_
  _atom_site_label
  _atom_site_occupancy
  _atom_site_fract_x
  _atom_site_fract_y
  _atom_site_fract_z
  _atom_site_thermal_displace_type
  _atom_site_B_iso_or_equiv
  _atom_site_type_symbol
  Cu1      1.0000 0.00000  0.00000  0.50000  Biso   1.000  Cu
  O1       1.0000 0.31274  0.51426  0.44103  Biso   1.000  O
  O2       1.0000 0.68726  0.48574  0.55897  Biso   1.000  O
  O3       1.0000 0.96818  0.16787  0.50790  Biso   1.000  O
  O4       1.0000 0.03182  0.83213  0.49210  Biso   1.000  O
  O5       1.0000 0.85759  0.15146  0.32084  Biso   1.000  O
  O6       1.0000 0.14241  0.84854  0.67916  Biso   1.000  O
  O7       1.0000 0.95866  0.33346  0.70695  Biso   1.000  O
  O8       1.0000 0.04134  0.66654  0.29305  Biso   1.000  O
  H1       1.0000 0.98520  0.29010  0.75070  Biso   1.000  H
  H2       1.0000 0.01480  0.70990  0.24930  Biso   1.000  H
  O9       1.0000 0.23967  0.39753  0.73360  Biso   1.000  O
  O10      1.0000 0.76033  0.60247  0.26640  Biso   1.000  O
  O11      1.0000 0.79923  0.88832  0.27255  Biso   1.000  O
  O12      1.0000 0.20077  0.11168  0.72745  Biso   1.000  O
  H3       1.0000 0.80700  0.96710  0.27660  Biso   1.000  H
  H4       1.0000 0.19300  0.03290  0.72340  Biso   1.000  H
  H5       1.0000 0.85300  0.87000  0.23270  Biso   1.000  H
  H6       1.0000 0.14700  0.13000  0.76730  Biso   1.000  H
  N1       1.0000 0.77259  0.91688  0.51185  Biso   1.000  N
  N2       1.0000 0.22741  0.08312  0.48815  Biso   1.000  N
  N3       1.0000 0.44702  0.50565  0.31746  Biso   1.000  N
  N4       1.0000 0.55298  0.49435  0.68254  Biso   1.000  N
  H7       1.0000 0.52280  0.55480  0.29660  Biso   1.000  H
  H8       1.0000 0.47720  0.44520  0.70340  Biso   1.000  H
  N5       1.0000 0.22640  0.10133  0.13729  Biso   1.000  N
  N6       1.0000 0.77360  0.89867  0.86271  Biso   1.000  N
  H9       1.0000 0.18190  0.01490  0.09990  Biso   1.000  H
  H10      1.0000 0.81810  0.98510  0.90010  Biso   1.000  H
  C1       1.0000 0.67380  0.78616  0.45284  Biso   1.000  C
  C2       1.0000 0.32620  0.21384  0.54716  Biso   1.000  C
  H11      1.0000 0.70930  0.73860  0.40220  Biso   1.000  H
  H12      1.0000 0.29070  0.26140  0.59780  Biso   1.000  H
  C3       1.0000 0.52250  0.71847  0.46328  Biso   1.000  C
  C4       1.0000 0.47750  0.28153  0.53672  Biso   1.000  C
  C5       1.0000 0.47040  0.78938  0.53672  Biso   1.000  C
  C6       1.0000 0.52960  0.21062  0.46328  Biso   1.000  C
  H13      1.0000 0.36770  0.74530  0.54630  Biso   1.000  H
  H14      1.0000 0.63230  0.25470  0.45370  Biso   1.000  H
  C7       1.0000 0.56910  0.92392  0.59527  Biso   1.000  C
  C8       1.0000 0.43090  0.07608  0.40473  Biso   1.000  C
  H15      1.0000 0.53460  0.97420  0.64470  Biso   1.000  H
  H16      1.0000 0.46540  0.02580  0.35530  Biso   1.000  H
  C9       1.0000 0.71970  0.98458  0.58079  Biso   1.000  C
  C10      1.0000 0.28030  0.01542  0.41921  Biso   1.000  C
  H17      1.0000 0.78800  0.07740  0.62110  Biso   1.000  H
  H18      1.0000 0.21200  0.92260  0.37890  Biso   1.000  H
  C11      1.0000 0.41690  0.57079  0.40668  Biso   1.000  C
  C12      1.0000 0.58310  0.42921  0.59332  Biso   1.000  C
  C13      1.0000 0.36780  0.36930  0.25808  Biso   1.000  C
  C14      1.0000 0.63220  0.63070  0.74192  Biso   1.000  C
  C15      1.0000 0.21900  0.28258  0.26278  Biso   1.000  C
  C16      1.0000 0.78100  0.71742  0.73722  Biso   1.000  C
  H19      1.0000 0.16520  0.31550  0.30800  Biso   1.000  H
  H20      1.0000 0.83480  0.68450  0.69200  Biso   1.000  H
  C17      1.0000 0.15270  0.14980  0.20103  Biso   1.000  C
  C18      1.0000 0.84730  0.85020  0.79897  Biso   1.000  C
  H21      1.0000 0.05150  0.09040  0.20360  Biso   1.000  H
  H22      1.0000 0.94850  0.90960  0.79640  Biso   1.000  H
  C19      1.0000 0.36670  0.18157  0.12900  Biso   1.000  C
  C20      1.0000 0.63330  0.81843  0.87100  Biso   1.000  C
  H23      1.0000 0.41620  0.14510  0.08220  Biso   1.000  H
  H24      1.0000 0.58380  0.85490  0.91780  Biso   1.000  H
  C21      1.0000 0.43930  0.31626  0.18787  Biso   1.000  C
  C22      1.0000 0.56070  0.68374  0.81213  Biso   1.000  C
  H25      1.0000 0.53770  0.37330  0.18100  Biso   1.000  H
  H26      1.0000 0.46230  0.62670  0.81900  Biso   1.000  H
  C23      1.0000 0.92400  0.21513  0.42674  Biso   1.000  C
  C24      1.0000 0.07600  0.78487  0.57326  Biso   1.000  C
  C25      1.0000 0.96090  0.36222  0.46623  Biso   1.000  C
  C26      1.0000 0.03910  0.63778  0.53377  Biso   1.000  C
  C27      1.0000 0.04170  0.44109  0.58420  Biso   1.000  C
  C28      1.0000 0.95830  0.55891  0.41580  Biso   1.000  C
  C29      1.0000 0.08040  0.57709  0.61667  Biso   1.000  C
  C30      1.0000 0.91960  0.42291  0.38333  Biso   1.000  C
  H27      1.0000 0.13600  0.62950  0.69700  Biso   1.000  H
  H28      1.0000 0.86400  0.37050  0.30300  Biso   1.000  H
  C31      1.0000 0.09030  0.38620  0.68098  Biso   1.000  C
  C32      1.0000 0.90970  0.61380  0.31902  Biso   1.000  C
  O13      1.0000 0.29150  0.81460  0.90127  Biso   1.000  O
  O14      1.0000 0.70850  0.18540  0.09873  Biso   1.000  O
  H29      1.0000 0.25400  0.83800  0.84200  Biso   1.000  H
  H30      1.0000 0.74600  0.16200  0.15800  Biso   1.000  H
  H31      1.0000 0.22300  0.81700  0.93500  Biso   1.000  H
  H32      1.0000 0.77700  0.18300  0.06500  Biso   1.000  H
  O15      1.0000 0.98625  0.80548  0.15782  Biso   1.000  O
  O16      1.0000 0.01375  0.19452  0.84218  Biso   1.000  O
  O17      1.0000 0.07440  0.84381  0.02038  Biso   1.000  O
  O18      1.0000 0.92560  0.15619  0.97962  Biso   1.000  O
  O19      1.0000 0.36510  0.82011  0.19873  Biso   1.000  O
  O20      1.0000 0.63490  0.17989  0.80127  Biso   1.000  O
  O21      1.0000 0.47634  0.68181  0.13620  Biso   1.000  O
  O22      1.0000 0.52366  0.31819  0.86380  Biso   1.000  O
  H33      1.0000 0.57230  0.74750  0.17890  Biso   1.000  H
  H34      1.0000 0.42770  0.25250  0.82110  Biso   1.000  H
  C33      1.0000 0.85170  0.52776  0.97735  Biso   1.000  C
  C34      1.0000 0.14830  0.47224  0.02265  Biso   1.000  C
  H35      1.0000 0.75010  0.54680  0.96250  Biso   1.000  H
  H36      1.0000 0.24990  0.45320  0.03750  Biso   1.000  H
  C35      1.0000 0.01760  0.63134  0.03930  Biso   1.000  C
  C36      1.0000 0.98240  0.36866  0.96070  Biso   1.000  C
  C37      1.0000 0.16740  0.60345  0.06309  Biso   1.000  C
  C38      1.0000 0.83260  0.39655  0.93691  Biso   1.000  C
  C39      1.0000 0.02940  0.77196  0.07643  Biso   1.000  C
  C40      1.0000 0.97060  0.22804  0.92357  Biso   1.000  C
  C41      1.0000 0.34540  0.71411  0.13903  Biso   1.000  C
  C42      1.0000 0.65460  0.28589  0.86097  Biso   1.000  C
