data_image0
_cell_length_a       8.3556
_cell_length_b       10.1057
_cell_length_c       11.2299
_cell_angle_alpha    63.605
_cell_angle_beta     86.779
_cell_angle_gamma    75.703

_symmetry_space_group_name_H-M    "P 1"
_symmetry_int_tables_number       1

loop_
  _symmetry_equiv_pos_as_xyz
  'x, y, z'

loop_
  _atom_site_label
  _atom_site_occupancy
  _atom_site_fract_x
  _atom_site_fract_y
  _atom_site_fract_z
  _atom_site_thermal_displace_type
  _atom_site_B_iso_or_equiv
  _atom_site_type_symbol
  Cu1      1.0000 0.00000  0.50000  0.50000  Biso   1.000  Cu
  O1       1.0000 0.00981  0.34265  0.68866  Biso   1.000  O
  O2       1.0000 0.99019  0.65735  0.31134  Biso   1.000  O
  O3       1.0000 0.77880  0.27325  0.68081  Biso   1.000  O
  O4       1.0000 0.22120  0.72675  0.31919  Biso   1.000  O
  O5       1.0000 0.82380  0.14058  0.19347  Biso   1.000  O
  O6       1.0000 0.17620  0.85942  0.80653  Biso   1.000  O
  O7       1.0000 0.33631  0.19824  0.87581  Biso   1.000  O
  O8       1.0000 0.66369  0.80176  0.12419  Biso   1.000  O
  O9       1.0000 0.13515  0.33601  0.94348  Biso   1.000  O
  O10      1.0000 0.86485  0.66399  0.05652  Biso   1.000  O
  O11      1.0000 0.29525  0.46148  0.54325  Biso   1.000  O
  O12      1.0000 0.70475  0.53852  0.45675  Biso   1.000  O
  H1       1.0000 0.28820  0.54090  0.46660  Biso   1.000  H
  H2       1.0000 0.71180  0.45910  0.53340  Biso   1.000  H
  H3       1.0000 0.37410  0.38650  0.54410  Biso   1.000  H
  H4       1.0000 0.62590  0.61350  0.45590  Biso   1.000  H
  N1       1.0000 0.04030  0.33821  0.43718  Biso   1.000  N
  N2       1.0000 0.95970  0.66179  0.56282  Biso   1.000  N
  N3       1.0000 0.80470  0.39515  0.08290  Biso   1.000  N
  N4       1.0000 0.19530  0.60485  0.91710  Biso   1.000  N
  H5       1.0000 0.83390  0.47110  0.08690  Biso   1.000  H
  H6       1.0000 0.16610  0.52890  0.91310  Biso   1.000  H
  N5       1.0000 0.51740  0.38190  0.85389  Biso   1.000  N
  N6       1.0000 0.48260  0.61810  0.14611  Biso   1.000  N
  H7       1.0000 0.46050  0.32060  0.85130  Biso   1.000  H
  H8       1.0000 0.53950  0.67940  0.14870  Biso   1.000  H
  C1       1.0000 0.95790  0.12800  0.87553  Biso   1.000  C
  C2       1.0000 0.04210  0.87200  0.12447  Biso   1.000  C
  C3       1.0000 0.68800  0.57360  0.86380  Biso   1.000  C
  C4       1.0000 0.31200  0.42640  0.13620  Biso   1.000  C
  H9       1.0000 0.74600  0.64190  0.86700  Biso   1.000  H
  H10      1.0000 0.25400  0.35810  0.13300  Biso   1.000  H
  C5       1.0000 0.86530  0.01910  0.92389  Biso   1.000  C
  C6       1.0000 0.13470  0.98090  0.07611  Biso   1.000  C
  H11      1.0000 0.77150  0.03300  0.87160  Biso   1.000  H
  H12      1.0000 0.22850  0.96700  0.12840  Biso   1.000  H
  C7       1.0000 0.97090  0.24480  0.29050  Biso   1.000  C
  C8       1.0000 0.02910  0.75520  0.70950  Biso   1.000  C
  C9       1.0000 0.19420  0.22630  0.91868  Biso   1.000  C
  C10      1.0000 0.80580  0.77370  0.08132  Biso   1.000  C
  C11      1.0000 0.70440  0.43070  0.97080  Biso   1.000  C
  C12      1.0000 0.29560  0.56930  0.02920  Biso   1.000  C
  C13      1.0000 0.15320  0.20560  0.50210  Biso   1.000  C
  C14      1.0000 0.84680  0.79440  0.49790  Biso   1.000  C
  H13      1.0000 0.21480  0.19040  0.57770  Biso   1.000  H
  H14      1.0000 0.78520  0.80960  0.42230  Biso   1.000  H
  C15      1.0000 0.91000  0.25810  0.73797  Biso   1.000  C
  C16      1.0000 0.09000  0.74190  0.26203  Biso   1.000  C
  C17      1.0000 0.09410  0.10910  0.95374  Biso   1.000  C
  C18      1.0000 0.90590  0.89090  0.04626  Biso   1.000  C
  C19      1.0000 0.50280  0.51770  0.74940  Biso   1.000  C
  C20      1.0000 0.49720  0.48230  0.25060  Biso   1.000  C
  H15      1.0000 0.43410  0.54590  0.67300  Biso   1.000  H
  H16      1.0000 0.56590  0.45410  0.32700  Biso   1.000  H
  C21      1.0000 0.18310  0.09060  0.46300  Biso   1.000  C
  C22      1.0000 0.81690  0.90940  0.53700  Biso   1.000  C
  H17      1.0000 0.26750  0.99990  0.50830  Biso   1.000  H
  H18      1.0000 0.73250  0.00010  0.49170  Biso   1.000  H
  C23      1.0000 0.95220  0.35850  0.33147  Biso   1.000  C
  C24      1.0000 0.04780  0.64150  0.66853  Biso   1.000  C
  H19      1.0000 0.87490  0.45340  0.28320  Biso   1.000  H
  H20      1.0000 0.12510  0.54660  0.71680  Biso   1.000  H
  C25      1.0000 0.08930  0.10890  0.35790  Biso   1.000  C
  C26      1.0000 0.91070  0.89110  0.64210  Biso   1.000  C
  H21      1.0000 0.10510  0.02960  0.33150  Biso   1.000  H
  H22      1.0000 0.89490  0.97040  0.66850  Biso   1.000  H
  C27      1.0000 0.61540  0.33490  0.96290  Biso   1.000  C
  C28      1.0000 0.38460  0.66510  0.03710  Biso   1.000  C
  H23      1.0000 0.62410  0.23640  0.03460  Biso   1.000  H
  H24      1.0000 0.37590  0.76360  0.96540  Biso   1.000  H
  C29      1.0000 0.85980  0.25550  0.18450  Biso   1.000  C
  C30      1.0000 0.14020  0.74450  0.81550  Biso   1.000  C
  C31      1.0000 0.58780  0.61660  0.75280  Biso   1.000  C
  C32      1.0000 0.41220  0.38340  0.24720  Biso   1.000  C
  H25      1.0000 0.57740  0.71400  0.67910  Biso   1.000  H
  H26      1.0000 0.42260  0.28600  0.32090  Biso   1.000  H
  O13      1.0000 0.44470  0.99226  0.77471  Biso   1.000  O
  O14      1.0000 0.55530  0.00774  0.22529  Biso   1.000  O
  H27      1.0000 0.41010  0.04970  0.81240  Biso   1.000  H
  H28      1.0000 0.58990  0.95030  0.18760  Biso   1.000  H
  H29      1.0000 0.36140  0.95630  0.77150  Biso   1.000  H
  H30      1.0000 0.63860  0.04370  0.22850  Biso   1.000  H
  O15      1.0000 0.55200  0.20865  0.55709  Biso   1.000  O
  O16      1.0000 0.44800  0.79135  0.44291  Biso   1.000  O
  H31      1.0000 0.63200  0.21900  0.59300  Biso   1.000  H
  H32      1.0000 0.36800  0.78100  0.40700  Biso   1.000  H
  H33      1.0000 0.51600  0.14000  0.62000  Biso   1.000  H
  H34      1.0000 0.48400  0.86000  0.38000  Biso   1.000  H
