data_image0
_cell_length_a       14.451
_cell_length_b       9.9874
_cell_length_c       15.933
_cell_angle_alpha    90
_cell_angle_beta     94.362
_cell_angle_gamma    90

_symmetry_space_group_name_H-M    "P 1"
_symmetry_int_tables_number       1

loop_
  _symmetry_equiv_pos_as_xyz
  'x, y, z'

loop_
  _atom_site_label
  _atom_site_occupancy
  _atom_site_fract_x
  _atom_site_fract_y
  _atom_site_fract_z
  _atom_site_thermal_displace_type
  _atom_site_B_iso_or_equiv
  _atom_site_type_symbol
  Cu1      1.0000 0.42212  0.30570  0.09003  Biso   1.000  Cu
  Cu2      1.0000 0.07788  0.80570  0.40997  Biso   1.000  Cu
  Cu3      1.0000 0.57788  0.69430  0.90997  Biso   1.000  Cu
  Cu4      1.0000 0.92212  0.19430  0.59003  Biso   1.000  Cu
  N1       1.0000 0.60720  0.76400  0.06430  Biso   1.000  N
  N2       1.0000 0.89280  0.26400  0.43570  Biso   1.000  N
  N3       1.0000 0.39280  0.23600  0.93570  Biso   1.000  N
  N4       1.0000 0.10720  0.73600  0.56430  Biso   1.000  N
  N5       1.0000 0.35330  0.48090  0.10890  Biso   1.000  N
  N6       1.0000 0.14670  0.98090  0.39110  Biso   1.000  N
  N7       1.0000 0.64670  0.51910  0.89110  Biso   1.000  N
  N8       1.0000 0.85330  0.01910  0.60890  Biso   1.000  N
  N9       1.0000 0.29740  0.23060  0.10950  Biso   1.000  N
  N10      1.0000 0.20260  0.73060  0.39050  Biso   1.000  N
  N11      1.0000 0.70260  0.76940  0.89050  Biso   1.000  N
  N12      1.0000 0.79740  0.26940  0.60950  Biso   1.000  N
  O1       1.0000 0.56670  0.52280  0.18530  Biso   1.000  O
  O2       1.0000 0.93330  0.02280  0.31470  Biso   1.000  O
  O3       1.0000 0.43330  0.47720  0.81470  Biso   1.000  O
  O4       1.0000 0.06670  0.97720  0.68530  Biso   1.000  O
  O5       1.0000 0.54070  0.38230  0.07410  Biso   1.000  O
  O6       1.0000 0.95930  0.88230  0.42590  Biso   1.000  O
  O7       1.0000 0.45930  0.61770  0.92590  Biso   1.000  O
  O8       1.0000 0.04070  0.11770  0.57410  Biso   1.000  O
  O9       1.0000 0.96140  0.25930  0.01780  Biso   1.000  O
  O10      1.0000 0.53860  0.75930  0.48220  Biso   1.000  O
  O11      1.0000 0.03860  0.74070  0.98220  Biso   1.000  O
  O12      1.0000 0.46140  0.24070  0.51780  Biso   1.000  O
  O13      1.0000 0.84070  0.14040  0.05470  Biso   1.000  O
  O14      1.0000 0.65930  0.64040  0.44530  Biso   1.000  O
  O15      1.0000 0.15930  0.85960  0.94530  Biso   1.000  O
  O16      1.0000 0.34070  0.35960  0.55470  Biso   1.000  O
  H1       1.0000 0.87340  0.07720  0.04270  Biso   1.000  H
  H2       1.0000 0.62660  0.57720  0.45730  Biso   1.000  H
  H3       1.0000 0.12660  0.92280  0.95730  Biso   1.000  H
  H4       1.0000 0.37340  0.42280  0.54270  Biso   1.000  H
  O17      1.0000 0.57130  0.16490  0.22170  Biso   1.000  O
  O18      1.0000 0.92870  0.66490  0.27830  Biso   1.000  O
  O19      1.0000 0.42870  0.83510  0.77830  Biso   1.000  O
  O20      1.0000 0.07130  0.33510  0.72170  Biso   1.000  O
  O21      1.0000 0.47720  0.12580  0.10630  Biso   1.000  O
  O22      1.0000 0.02280  0.62580  0.39370  Biso   1.000  O
  O23      1.0000 0.52280  0.87420  0.89370  Biso   1.000  O
  O24      1.0000 0.97720  0.37420  0.60630  Biso   1.000  O
  C1       1.0000 0.59060  0.46360  0.12190  Biso   1.000  C
  C2       1.0000 0.90940  0.96360  0.37810  Biso   1.000  C
  C3       1.0000 0.40940  0.53640  0.87810  Biso   1.000  C
  C4       1.0000 0.09060  0.03640  0.62190  Biso   1.000  C
  C5       1.0000 0.68950  0.48090  0.09840  Biso   1.000  C
  C6       1.0000 0.81050  0.98090  0.40160  Biso   1.000  C
  C7       1.0000 0.31050  0.51910  0.90160  Biso   1.000  C
  C8       1.0000 0.18950  0.01910  0.59840  Biso   1.000  C
  C9       1.0000 0.73830  0.36700  0.08060  Biso   1.000  C
  C10      1.0000 0.76170  0.86700  0.41940  Biso   1.000  C
  C11      1.0000 0.26170  0.63300  0.91940  Biso   1.000  C
  C12      1.0000 0.23830  0.13300  0.58060  Biso   1.000  C
  H5       1.0000 0.70910  0.28400  0.08110  Biso   1.000  H
  H6       1.0000 0.79090  0.78400  0.41890  Biso   1.000  H
  H7       1.0000 0.29090  0.71600  0.91890  Biso   1.000  H
  H8       1.0000 0.20910  0.21600  0.58110  Biso   1.000  H
  C13      1.0000 0.82910  0.37490  0.06240  Biso   1.000  C
  C14      1.0000 0.67090  0.87490  0.43760  Biso   1.000  C
  C15      1.0000 0.17090  0.62510  0.93760  Biso   1.000  C
  C16      1.0000 0.32910  0.12510  0.56240  Biso   1.000  C
  C17      1.0000 0.88360  0.25180  0.04210  Biso   1.000  C
  C18      1.0000 0.61640  0.75180  0.45790  Biso   1.000  C
  C19      1.0000 0.11640  0.74820  0.95790  Biso   1.000  C
  C20      1.0000 0.38360  0.24820  0.54210  Biso   1.000  C
  C21      1.0000 0.87310  0.49710  0.05860  Biso   1.000  C
  C22      1.0000 0.62690  0.99710  0.44140  Biso   1.000  C
  C23      1.0000 0.12690  0.50290  0.94140  Biso   1.000  C
  C24      1.0000 0.37310  0.00290  0.55860  Biso   1.000  C
  H9       1.0000 0.93400  0.50230  0.04380  Biso   1.000  H
  H10      1.0000 0.56600  0.00230  0.45620  Biso   1.000  H
  H11      1.0000 0.06600  0.49770  0.95620  Biso   1.000  H
  H12      1.0000 0.43400  0.99770  0.54380  Biso   1.000  H
  C25      1.0000 0.82450  0.61270  0.07730  Biso   1.000  C
  C26      1.0000 0.67550  0.11270  0.42270  Biso   1.000  C
  C27      1.0000 0.17550  0.38730  0.92270  Biso   1.000  C
  C28      1.0000 0.32450  0.88730  0.57730  Biso   1.000  C
  H13      1.0000 0.85410  0.69530  0.07650  Biso   1.000  H
  H14      1.0000 0.64590  0.19530  0.42350  Biso   1.000  H
  H15      1.0000 0.14590  0.30470  0.92350  Biso   1.000  H
  H16      1.0000 0.35410  0.80470  0.57650  Biso   1.000  H
  C29      1.0000 0.73310  0.60620  0.09710  Biso   1.000  C
  C30      1.0000 0.76690  0.10620  0.40290  Biso   1.000  C
  C31      1.0000 0.26690  0.39380  0.90290  Biso   1.000  C
  C32      1.0000 0.23310  0.89380  0.59710  Biso   1.000  C
  C33      1.0000 0.68340  0.73520  0.11400  Biso   1.000  C
  C34      1.0000 0.81660  0.23520  0.38600  Biso   1.000  C
  C35      1.0000 0.31660  0.26480  0.88600  Biso   1.000  C
  C36      1.0000 0.18340  0.76480  0.61400  Biso   1.000  C
  C37      1.0000 0.56490  0.87960  0.08030  Biso   1.000  C
  C38      1.0000 0.93510  0.37960  0.41970  Biso   1.000  C
  C39      1.0000 0.43510  0.12040  0.91970  Biso   1.000  C
  C40      1.0000 0.06490  0.62040  0.58030  Biso   1.000  C
  H17      1.0000 0.51260  0.90320  0.04590  Biso   1.000  H
  H18      1.0000 0.98740  0.40320  0.45410  Biso   1.000  H
  H19      1.0000 0.48740  0.09680  0.95410  Biso   1.000  H
  H20      1.0000 0.01260  0.59680  0.54590  Biso   1.000  H
  C41      1.0000 0.59420  0.96660  0.14530  Biso   1.000  C
  C42      1.0000 0.90580  0.46660  0.35470  Biso   1.000  C
  C43      1.0000 0.40580  0.03340  0.85470  Biso   1.000  C
  C44      1.0000 0.09420  0.53340  0.64530  Biso   1.000  C
  C45      1.0000 0.54420  0.09840  0.15820  Biso   1.000  C
  C46      1.0000 0.95580  0.59840  0.34180  Biso   1.000  C
  C47      1.0000 0.45580  0.90160  0.84180  Biso   1.000  C
  C48      1.0000 0.04420  0.40160  0.65820  Biso   1.000  C
  C49      1.0000 0.67290  0.93270  0.19260  Biso   1.000  C
  C50      1.0000 0.82710  0.43270  0.30740  Biso   1.000  C
  C51      1.0000 0.32710  0.06730  0.80740  Biso   1.000  C
  C52      1.0000 0.17290  0.56730  0.69260  Biso   1.000  C
  H21      1.0000 0.69600  0.98960  0.23540  Biso   1.000  H
  H22      1.0000 0.80400  0.48960  0.26460  Biso   1.000  H
  H23      1.0000 0.30400  0.01040  0.76460  Biso   1.000  H
  H24      1.0000 0.19600  0.51040  0.73540  Biso   1.000  H
  C53      1.0000 0.71930  0.81480  0.17790  Biso   1.000  C
  C54      1.0000 0.78070  0.31480  0.32210  Biso   1.000  C
  C55      1.0000 0.28070  0.18520  0.82210  Biso   1.000  C
  C56      1.0000 0.21930  0.68520  0.67790  Biso   1.000  C
  H25      1.0000 0.77290  0.79070  0.21050  Biso   1.000  H
  H26      1.0000 0.72710  0.29070  0.28950  Biso   1.000  H
  H27      1.0000 0.22710  0.20930  0.78950  Biso   1.000  H
  H28      1.0000 0.27290  0.70930  0.71050  Biso   1.000  H
  C57      1.0000 0.38210  0.60500  0.10500  Biso   1.000  C
  C58      1.0000 0.11790  0.10500  0.39500  Biso   1.000  C
  C59      1.0000 0.61790  0.39500  0.89500  Biso   1.000  C
  C60      1.0000 0.88210  0.89500  0.60500  Biso   1.000  C
  H29      1.0000 0.43960  0.62200  0.08460  Biso   1.000  H
  H30      1.0000 0.06040  0.12200  0.41540  Biso   1.000  H
  H31      1.0000 0.56040  0.37800  0.91540  Biso   1.000  H
  H32      1.0000 0.93960  0.87800  0.58460  Biso   1.000  H
  C61      1.0000 0.32920  0.71270  0.13040  Biso   1.000  C
  C62      1.0000 0.17080  0.21270  0.36960  Biso   1.000  C
  C63      1.0000 0.67080  0.28730  0.86960  Biso   1.000  C
  C64      1.0000 0.82920  0.78730  0.63040  Biso   1.000  C
  H33      1.0000 0.35350  0.79890  0.12990  Biso   1.000  H
  H34      1.0000 0.14650  0.29890  0.37010  Biso   1.000  H
  H35      1.0000 0.64650  0.20110  0.87010  Biso   1.000  H
  H36      1.0000 0.85350  0.70110  0.62990  Biso   1.000  H
  C65      1.0000 0.24320  0.69290  0.15590  Biso   1.000  C
  C66      1.0000 0.25680  0.19290  0.34410  Biso   1.000  C
  C67      1.0000 0.75680  0.30710  0.84410  Biso   1.000  C
  C68      1.0000 0.74320  0.80710  0.65590  Biso   1.000  C
  H37      1.0000 0.20760  0.76480  0.17170  Biso   1.000  H
  H38      1.0000 0.29240  0.26480  0.32830  Biso   1.000  H
  H39      1.0000 0.79240  0.23520  0.82830  Biso   1.000  H
  H40      1.0000 0.70760  0.73520  0.67170  Biso   1.000  H
  C69      1.0000 0.20840  0.56050  0.15790  Biso   1.000  C
  C70      1.0000 0.29160  0.06050  0.34210  Biso   1.000  C
  C71      1.0000 0.79160  0.43950  0.84210  Biso   1.000  C
  C72      1.0000 0.70840  0.93950  0.65790  Biso   1.000  C
  C73      1.0000 0.26720  0.45920  0.13340  Biso   1.000  C
  C74      1.0000 0.23280  0.95920  0.36660  Biso   1.000  C
  C75      1.0000 0.73280  0.54080  0.86660  Biso   1.000  C
  C76      1.0000 0.76720  0.04080  0.63340  Biso   1.000  C
  C77      1.0000 0.11810  0.52490  0.18350  Biso   1.000  C
  C78      1.0000 0.38190  0.02490  0.31650  Biso   1.000  C
  C79      1.0000 0.88190  0.47510  0.81650  Biso   1.000  C
  C80      1.0000 0.61810  0.97510  0.68350  Biso   1.000  C
  H41      1.0000 0.07940  0.59170  0.20160  Biso   1.000  H
  H42      1.0000 0.42060  0.09170  0.29840  Biso   1.000  H
  H43      1.0000 0.92060  0.40830  0.79840  Biso   1.000  H
  H44      1.0000 0.57940  0.90830  0.70160  Biso   1.000  H
  C81      1.0000 0.08900  0.39830  0.18160  Biso   1.000  C
  C82      1.0000 0.41100  0.89830  0.31840  Biso   1.000  C
  C83      1.0000 0.91100  0.60170  0.81840  Biso   1.000  C
  C84      1.0000 0.58900  0.10170  0.68160  Biso   1.000  C
  H45      1.0000 0.02980  0.37840  0.19720  Biso   1.000  H
  H46      1.0000 0.47020  0.87840  0.30280  Biso   1.000  H
  H47      1.0000 0.97020  0.62160  0.80280  Biso   1.000  H
  H48      1.0000 0.52980  0.12160  0.69720  Biso   1.000  H
  C85      1.0000 0.14740  0.29220  0.15600  Biso   1.000  C
  C86      1.0000 0.35260  0.79220  0.34400  Biso   1.000  C
  C87      1.0000 0.85260  0.70780  0.84400  Biso   1.000  C
  C88      1.0000 0.64740  0.20780  0.65600  Biso   1.000  C
  C89      1.0000 0.23640  0.32230  0.13270  Biso   1.000  C
  C90      1.0000 0.26360  0.82230  0.36730  Biso   1.000  C
  C91      1.0000 0.76360  0.67770  0.86730  Biso   1.000  C
  C92      1.0000 0.73640  0.17770  0.63270  Biso   1.000  C
  C93      1.0000 0.12080  0.15710  0.15140  Biso   1.000  C
  C94      1.0000 0.37920  0.65710  0.34860  Biso   1.000  C
  C95      1.0000 0.87920  0.84290  0.84860  Biso   1.000  C
  C96      1.0000 0.62080  0.34290  0.65140  Biso   1.000  C
  H49      1.0000 0.06260  0.13080  0.16650  Biso   1.000  H
  H50      1.0000 0.43740  0.63080  0.33350  Biso   1.000  H
  H51      1.0000 0.93740  0.86920  0.83350  Biso   1.000  H
  H52      1.0000 0.56260  0.36920  0.66650  Biso   1.000  H
  C97      1.0000 0.18140  0.06530  0.12450  Biso   1.000  C
  C98      1.0000 0.31860  0.56530  0.37550  Biso   1.000  C
  C99      1.0000 0.81860  0.93470  0.87550  Biso   1.000  C
  C100     1.0000 0.68140  0.43470  0.62450  Biso   1.000  C
  H53      1.0000 0.16400  0.97590  0.11900  Biso   1.000  H
  H54      1.0000 0.33600  0.47590  0.38100  Biso   1.000  H
  H55      1.0000 0.83600  0.02410  0.88100  Biso   1.000  H
  H56      1.0000 0.66400  0.52410  0.61900  Biso   1.000  H
  C101     1.0000 0.26880  0.10480  0.10520  Biso   1.000  C
  C102     1.0000 0.23120  0.60480  0.39480  Biso   1.000  C
  C103     1.0000 0.73120  0.89520  0.89480  Biso   1.000  C
  C104     1.0000 0.76880  0.39520  0.60520  Biso   1.000  C
  H57      1.0000 0.30970  0.03980  0.08850  Biso   1.000  H
  H58      1.0000 0.19030  0.53980  0.41150  Biso   1.000  H
  H59      1.0000 0.69030  0.96020  0.91150  Biso   1.000  H
  H60      1.0000 0.80970  0.46020  0.58850  Biso   1.000  H
  O25      1.0000 0.46670  0.36150  0.28080  Biso   1.000  O
  O26      1.0000 0.03330  0.86150  0.21920  Biso   1.000  O
  O27      1.0000 0.53330  0.63850  0.71920  Biso   1.000  O
  O28      1.0000 0.96670  0.13850  0.78080  Biso   1.000  O
  H61      1.0000 0.49850  0.41250  0.25130  Biso   1.000  H
  H62      1.0000 0.00150  0.91250  0.24870  Biso   1.000  H
  H63      1.0000 0.50150  0.58750  0.74870  Biso   1.000  H
  H64      1.0000 0.99850  0.08750  0.75130  Biso   1.000  H
  H65      1.0000 0.49110  0.29670  0.25590  Biso   1.000  H
  H66      1.0000 0.00890  0.79670  0.24410  Biso   1.000  H
  H67      1.0000 0.50890  0.70330  0.74410  Biso   1.000  H
  H68      1.0000 0.99110  0.20330  0.75590  Biso   1.000  H
  O29      1.0000 0.55900  0.41950  0.43350  Biso   1.000  O
  O30      1.0000 0.94100  0.91950  0.06650  Biso   1.000  O
  O31      1.0000 0.44100  0.58050  0.56650  Biso   1.000  O
  O32      1.0000 0.05900  0.08050  0.93350  Biso   1.000  O
  H69      1.0000 0.53010  0.44180  0.38980  Biso   1.000  H
  H70      1.0000 0.96990  0.94180  0.11020  Biso   1.000  H
  H71      1.0000 0.46990  0.55820  0.61020  Biso   1.000  H
  H72      1.0000 0.03010  0.05820  0.88980  Biso   1.000  H
  H73      1.0000 0.52640  0.36920  0.46260  Biso   1.000  H
  H74      1.0000 0.97360  0.86920  0.03740  Biso   1.000  H
  H75      1.0000 0.47360  0.63080  0.53740  Biso   1.000  H
  H76      1.0000 0.02640  0.13080  0.96260  Biso   1.000  H
