data_image0
_cell_length_a       9.611
_cell_length_b       10.217
_cell_length_c       12.399
_cell_angle_alpha    98.798
_cell_angle_beta     106.65
_cell_angle_gamma    110.31

_symmetry_space_group_name_H-M    "P 1"
_symmetry_int_tables_number       1

loop_
  _symmetry_equiv_pos_as_xyz
  'x, y, z'

loop_
  _atom_site_label
  _atom_site_occupancy
  _atom_site_fract_x
  _atom_site_fract_y
  _atom_site_fract_z
  _atom_site_thermal_displace_type
  _atom_site_B_iso_or_equiv
  _atom_site_type_symbol
  Cu1      1.0000 0.87255  0.58985  0.71279  Biso   1.000  Cu
  Cu2      1.0000 0.12745  0.41015  0.28721  Biso   1.000  Cu
  N1       1.0000 0.75480  0.40510  0.53110  Biso   1.000  N
  N2       1.0000 0.24520  0.59490  0.46890  Biso   1.000  N
  N3       1.0000 0.76480  0.43910  0.78710  Biso   1.000  N
  N4       1.0000 0.23520  0.56090  0.21290  Biso   1.000  N
  N5       1.0000 0.05860  0.54010  0.78740  Biso   1.000  N
  N6       1.0000 0.94140  0.45990  0.21260  Biso   1.000  N
  O1       1.0000 0.31480  0.36460  0.33430  Biso   1.000  O
  O2       1.0000 0.68520  0.63540  0.66570  Biso   1.000  O
  O3       1.0000 0.28370  0.19010  0.18850  Biso   1.000  O
  O4       1.0000 0.71630  0.80990  0.81150  Biso   1.000  O
  O5       1.0000 0.00750  0.26910  0.35080  Biso   1.000  O
  O6       1.0000 0.99250  0.73090  0.64920  Biso   1.000  O
  O7       1.0000 0.87490  0.10920  0.17680  Biso   1.000  O
  O8       1.0000 0.12510  0.89080  0.82320  Biso   1.000  O
  C1       1.0000 0.35640  0.27440  0.28660  Biso   1.000  C
  C2       1.0000 0.64360  0.72560  0.71340  Biso   1.000  C
  C3       1.0000 0.51230  0.27660  0.36190  Biso   1.000  C
  C4       1.0000 0.48770  0.72340  0.63810  Biso   1.000  C
  C5       1.0000 0.61700  0.39500  0.45710  Biso   1.000  C
  C6       1.0000 0.38300  0.60500  0.54290  Biso   1.000  C
  H1       1.0000 0.58970  0.47320  0.47070  Biso   1.000  H
  H2       1.0000 0.41030  0.52680  0.52930  Biso   1.000  H
  C7       1.0000 0.79250  0.29200  0.50980  Biso   1.000  C
  C8       1.0000 0.20750  0.70800  0.49020  Biso   1.000  C
  H3       1.0000 0.88770  0.29700  0.56060  Biso   1.000  H
  H4       1.0000 0.11230  0.70300  0.43940  Biso   1.000  H
  C9       1.0000 0.69770  0.16740  0.41620  Biso   1.000  C
  C10      1.0000 0.30230  0.83260  0.58380  Biso   1.000  C
  C11      1.0000 0.55580  0.16170  0.34160  Biso   1.000  C
  C12      1.0000 0.44420  0.83830  0.65840  Biso   1.000  C
  H5       1.0000 0.48940  0.08050  0.27770  Biso   1.000  H
  H6       1.0000 0.51060  0.91950  0.72230  Biso   1.000  H
  C13      1.0000 0.74640  0.04280  0.40330  Biso   1.000  C
  C14      1.0000 0.25360  0.95720  0.59670  Biso   1.000  C
  C15      1.0000 0.84250  0.03070  0.34160  Biso   1.000  C
  C16      1.0000 0.15750  0.96930  0.65840  Biso   1.000  C
  C17      1.0000 0.91220  0.14280  0.28310  Biso   1.000  C
  C18      1.0000 0.08780  0.85720  0.71690  Biso   1.000  C
  C19      1.0000 0.88280  0.91140  0.33390  Biso   1.000  C
  C20      1.0000 0.11720  0.08860  0.66610  Biso   1.000  C
  H7       1.0000 0.94450  0.90100  0.29030  Biso   1.000  H
  H8       1.0000 0.05550  0.09900  0.70970  Biso   1.000  H
  C21      1.0000 0.83070  0.80870  0.39130  Biso   1.000  C
  C22      1.0000 0.16930  0.19130  0.60870  Biso   1.000  C
  H9       1.0000 0.85970  0.73070  0.38760  Biso   1.000  H
  H10      1.0000 0.14030  0.26930  0.61240  Biso   1.000  H
  C23      1.0000 0.73720  0.82190  0.45320  Biso   1.000  C
  C24      1.0000 0.26280  0.17810  0.54680  Biso   1.000  C
  H11      1.0000 0.70320  0.75320  0.49190  Biso   1.000  H
  H12      1.0000 0.29680  0.24680  0.50810  Biso   1.000  H
  C25      1.0000 0.69240  0.93780  0.45840  Biso   1.000  C
  C26      1.0000 0.30760  0.06220  0.54160  Biso   1.000  C
  H13      1.0000 0.62620  0.94490  0.49890  Biso   1.000  H
  H14      1.0000 0.37380  0.05510  0.50110  Biso   1.000  H
  C27      1.0000 0.61620  0.38740  0.78160  Biso   1.000  C
  C28      1.0000 0.38380  0.61260  0.21840  Biso   1.000  C
  H15      1.0000 0.54820  0.42470  0.74150  Biso   1.000  H
  H16      1.0000 0.45180  0.57530  0.25850  Biso   1.000  H
  C29      1.0000 0.55520  0.27840  0.83350  Biso   1.000  C
  C30      1.0000 0.44480  0.72160  0.16650  Biso   1.000  C
  H17      1.0000 0.44950  0.24470  0.82790  Biso   1.000  H
  H18      1.0000 0.55050  0.75530  0.17210  Biso   1.000  H
  C31      1.0000 0.65490  0.22300  0.89250  Biso   1.000  C
  C32      1.0000 0.34510  0.77700  0.10750  Biso   1.000  C
  H19      1.0000 0.61760  0.15230  0.92870  Biso   1.000  H
  H20      1.0000 0.38240  0.84770  0.07130  Biso   1.000  H
  C33      1.0000 0.81200  0.27250  0.89820  Biso   1.000  C
  C34      1.0000 0.18800  0.72750  0.10180  Biso   1.000  C
  C35      1.0000 0.86250  0.38090  0.84280  Biso   1.000  C
  C36      1.0000 0.13750  0.61910  0.15720  Biso   1.000  C
  C37      1.0000 0.92640  0.22040  0.95560  Biso   1.000  C
  C38      1.0000 0.07360  0.77960  0.04440  Biso   1.000  C
  H21      1.0000 0.89540  0.14780  0.99180  Biso   1.000  H
  H22      1.0000 0.10460  0.85220  0.00820  Biso   1.000  H
  C39      1.0000 0.07620  0.27370  0.95820  Biso   1.000  C
  C40      1.0000 0.92380  0.72630  0.04180  Biso   1.000  C
  H23      1.0000 0.14740  0.23870  0.99750  Biso   1.000  H
  H24      1.0000 0.85260  0.76130  0.00250  Biso   1.000  H
  C41      1.0000 0.12900  0.38310  0.90200  Biso   1.000  C
  C42      1.0000 0.87100  0.61690  0.09800  Biso   1.000  C
  C43      1.0000 0.02050  0.43600  0.84450  Biso   1.000  C
  C44      1.0000 0.97950  0.56400  0.15550  Biso   1.000  C
  C45      1.0000 0.28090  0.44190  0.90020  Biso   1.000  C
  C46      1.0000 0.71910  0.55810  0.09980  Biso   1.000  C
  H25      1.0000 0.35590  0.40900  0.93670  Biso   1.000  H
  H26      1.0000 0.64410  0.59100  0.06330  Biso   1.000  H
  C47      1.0000 0.32320  0.54880  0.84510  Biso   1.000  C
  C48      1.0000 0.67680  0.45120  0.15490  Biso   1.000  C
  H27      1.0000 0.42600  0.59000  0.84500  Biso   1.000  H
  H28      1.0000 0.57400  0.41000  0.15500  Biso   1.000  H
  C49      1.0000 0.20500  0.59300  0.78910  Biso   1.000  C
  C50      1.0000 0.79500  0.40700  0.21090  Biso   1.000  C
  H29      1.0000 0.23220  0.66400  0.75080  Biso   1.000  H
  H30      1.0000 0.76780  0.33600  0.24920  Biso   1.000  H
  O9       1.0000 0.37600  0.12590  0.99980  Biso   1.000  O
  O10      1.0000 0.62400  0.87410  0.00020  Biso   1.000  O
  H31      1.0000 0.35020  0.13390  0.05970  Biso   1.000  H
  H32      1.0000 0.64980  0.86610  0.94030  Biso   1.000  H
  H33      1.0000 0.29480  0.06710  0.94040  Biso   1.000  H
  H34      1.0000 0.70520  0.93290  0.05960  Biso   1.000  H
