data_image0
_cell_length_a       14.996
_cell_length_b       18.118
_cell_length_c       23.82
_cell_angle_alpha    90
_cell_angle_beta     99.7
_cell_angle_gamma    90

_symmetry_space_group_name_H-M    "P 1"
_symmetry_int_tables_number       1

loop_
  _symmetry_equiv_pos_as_xyz
  'x, y, z'

loop_
  _atom_site_label
  _atom_site_occupancy
  _atom_site_fract_x
  _atom_site_fract_y
  _atom_site_fract_z
  _atom_site_thermal_displace_type
  _atom_site_B_iso_or_equiv
  _atom_site_type_symbol
  Gd1      1.0000 0.85906  0.19184  0.09458  Biso   1.000  Gd
  Gd2      1.0000 0.14094  0.69184  0.40542  Biso   1.000  Gd
  Gd3      1.0000 0.14094  0.80816  0.90542  Biso   1.000  Gd
  Gd4      1.0000 0.85906  0.30816  0.59458  Biso   1.000  Gd
  Cu1      1.0000 0.64153  0.07269  0.07782  Biso   1.000  Cu
  Cu2      1.0000 0.35847  0.57269  0.42218  Biso   1.000  Cu
  Cu3      1.0000 0.35847  0.92731  0.92218  Biso   1.000  Cu
  Cu4      1.0000 0.64153  0.42731  0.57782  Biso   1.000  Cu
  Cu5      1.0000 0.87395  0.04937  0.97514  Biso   1.000  Cu
  Cu6      1.0000 0.12605  0.54937  0.52486  Biso   1.000  Cu
  Cu7      1.0000 0.12605  0.95063  0.02486  Biso   1.000  Cu
  Cu8      1.0000 0.87395  0.45063  0.47514  Biso   1.000  Cu
  Cu9      1.0000 0.07150  0.24113  0.02512  Biso   1.000  Cu
  Cu10     1.0000 0.92850  0.74113  0.47488  Biso   1.000  Cu
  Cu11     1.0000 0.92850  0.75887  0.97488  Biso   1.000  Cu
  Cu12     1.0000 0.07150  0.25887  0.52512  Biso   1.000  Cu
  Cu13     1.0000 0.98921  0.35056  0.18260  Biso   1.000  Cu
  Cu14     1.0000 0.01079  0.85056  0.31740  Biso   1.000  Cu
  Cu15     1.0000 0.01079  0.64944  0.81740  Biso   1.000  Cu
  Cu16     1.0000 0.98921  0.14944  0.68260  Biso   1.000  Cu
  Cu17     1.0000 0.73971  0.22966  0.22698  Biso   1.000  Cu
  Cu18     1.0000 0.26029  0.72966  0.27302  Biso   1.000  Cu
  Cu19     1.0000 0.26029  0.77034  0.77302  Biso   1.000  Cu
  Cu20     1.0000 0.73971  0.27034  0.72698  Biso   1.000  Cu
  O1       1.0000 0.63430  0.99510  0.02050  Biso   1.000  O
  O2       1.0000 0.36570  0.49510  0.47950  Biso   1.000  O
  O3       1.0000 0.36570  0.00490  0.97950  Biso   1.000  O
  O4       1.0000 0.63430  0.50490  0.52050  Biso   1.000  O
  O5       1.0000 0.74960  0.10370  0.05020  Biso   1.000  O
  O6       1.0000 0.25040  0.60370  0.44980  Biso   1.000  O
  O7       1.0000 0.25040  0.89630  0.94980  Biso   1.000  O
  O8       1.0000 0.74960  0.39630  0.55020  Biso   1.000  O
  O9       1.0000 0.98960  0.04920  0.94530  Biso   1.000  O
  O10      1.0000 0.01040  0.54920  0.55470  Biso   1.000  O
  O11      1.0000 0.01040  0.95080  0.05470  Biso   1.000  O
  O12      1.0000 0.98960  0.45080  0.44530  Biso   1.000  O
  O13      1.0000 0.92990  0.12610  0.02530  Biso   1.000  O
  O14      1.0000 0.07010  0.62610  0.47470  Biso   1.000  O
  O15      1.0000 0.07010  0.87390  0.97470  Biso   1.000  O
  O16      1.0000 0.92990  0.37390  0.52530  Biso   1.000  O
  O17      1.0000 0.15490  0.31300  0.06770  Biso   1.000  O
  O18      1.0000 0.84510  0.81300  0.43230  Biso   1.000  O
  O19      1.0000 0.84510  0.68700  0.93230  Biso   1.000  O
  O20      1.0000 0.15490  0.18700  0.56770  Biso   1.000  O
  O21      1.0000 0.99160  0.26450  0.07820  Biso   1.000  O
  O22      1.0000 0.00840  0.76450  0.42180  Biso   1.000  O
  O23      1.0000 0.00840  0.73550  0.92180  Biso   1.000  O
  O24      1.0000 0.99160  0.23550  0.57820  Biso   1.000  O
  O25      1.0000 0.88690  0.28290  0.16820  Biso   1.000  O
  O26      1.0000 0.11310  0.78290  0.33180  Biso   1.000  O
  O27      1.0000 0.11310  0.71710  0.83180  Biso   1.000  O
  O28      1.0000 0.88690  0.21710  0.66820  Biso   1.000  O
  O29      1.0000 0.94830  0.37460  0.25340  Biso   1.000  O
  O30      1.0000 0.05170  0.87460  0.24660  Biso   1.000  O
  O31      1.0000 0.05170  0.62540  0.74660  Biso   1.000  O
  O32      1.0000 0.94830  0.12540  0.75340  Biso   1.000  O
  O33      1.0000 0.74710  0.17820  0.15730  Biso   1.000  O
  O34      1.0000 0.25290  0.67820  0.34270  Biso   1.000  O
  O35      1.0000 0.25290  0.82180  0.84270  Biso   1.000  O
  O36      1.0000 0.74710  0.32180  0.65730  Biso   1.000  O
  O37      1.0000 0.64910  0.15510  0.23820  Biso   1.000  O
  O38      1.0000 0.35090  0.65510  0.26180  Biso   1.000  O
  O39      1.0000 0.35090  0.84490  0.76180  Biso   1.000  O
  O40      1.0000 0.64910  0.34490  0.73820  Biso   1.000  O
  O41      1.0000 0.88540  0.06870  0.14560  Biso   1.000  O
  O42      1.0000 0.11460  0.56870  0.35440  Biso   1.000  O
  O43      1.0000 0.11460  0.93130  0.85440  Biso   1.000  O
  O44      1.0000 0.88540  0.43130  0.64560  Biso   1.000  O
  O45      1.0000 0.99750  0.14360  0.15960  Biso   1.000  O
  O46      1.0000 0.00250  0.64360  0.34040  Biso   1.000  O
  O47      1.0000 0.00250  0.85640  0.84040  Biso   1.000  O
  O48      1.0000 0.99750  0.35640  0.65960  Biso   1.000  O
  O49      1.0000 0.01360  0.03250  0.19330  Biso   1.000  O
  O50      1.0000 0.98640  0.53250  0.30670  Biso   1.000  O
  O51      1.0000 0.98640  0.96750  0.80670  Biso   1.000  O
  O52      1.0000 0.01360  0.46750  0.69330  Biso   1.000  O
  O53      1.0000 0.81580  0.25620  0.00260  Biso   1.000  O
  O54      1.0000 0.18420  0.75620  0.49740  Biso   1.000  O
  O55      1.0000 0.18420  0.74380  0.99740  Biso   1.000  O
  O56      1.0000 0.81580  0.24380  0.50260  Biso   1.000  O
  O57      1.0000 0.73170  0.27930  0.06450  Biso   1.000  O
  O58      1.0000 0.26830  0.77930  0.43550  Biso   1.000  O
  O59      1.0000 0.26830  0.72070  0.93550  Biso   1.000  O
  O60      1.0000 0.73170  0.22070  0.56450  Biso   1.000  O
  O61      1.0000 0.70220  0.32880  0.97790  Biso   1.000  O
  O62      1.0000 0.29780  0.82880  0.52210  Biso   1.000  O
  O63      1.0000 0.29780  0.67120  0.02210  Biso   1.000  O
  O64      1.0000 0.70220  0.17120  0.47790  Biso   1.000  O
  O65      1.0000 0.53330  0.15230  0.03980  Biso   1.000  O
  O66      1.0000 0.46670  0.65230  0.46020  Biso   1.000  O
  O67      1.0000 0.46670  0.84770  0.96020  Biso   1.000  O
  O68      1.0000 0.53330  0.34770  0.53980  Biso   1.000  O
  O69      1.0000 0.58110  0.15870  0.95840  Biso   1.000  O
  O70      1.0000 0.41890  0.65870  0.54160  Biso   1.000  O
  O71      1.0000 0.41890  0.84130  0.04160  Biso   1.000  O
  O72      1.0000 0.58110  0.34130  0.45840  Biso   1.000  O
  O73      1.0000 0.46400  0.22290  0.97140  Biso   1.000  O
  O74      1.0000 0.53600  0.72290  0.52860  Biso   1.000  O
  O75      1.0000 0.53600  0.77710  0.02860  Biso   1.000  O
  O76      1.0000 0.46400  0.27710  0.47140  Biso   1.000  O
  O77      1.0000 0.91640  0.45780  0.12830  Biso   1.000  O
  O78      1.0000 0.08360  0.95780  0.37170  Biso   1.000  O
  O79      1.0000 0.08360  0.54220  0.87170  Biso   1.000  O
  O80      1.0000 0.91640  0.04220  0.62830  Biso   1.000  O
  N1       1.0000 0.76810  0.05280  0.01030  Biso   1.000  N
  N2       1.0000 0.23190  0.55280  0.48970  Biso   1.000  N
  N3       1.0000 0.23190  0.94720  0.98970  Biso   1.000  N
  N4       1.0000 0.76810  0.44720  0.51030  Biso   1.000  N
  N5       1.0000 0.80880  0.95890  0.93810  Biso   1.000  N
  N6       1.0000 0.19120  0.45890  0.56190  Biso   1.000  N
  N7       1.0000 0.19120  0.04110  0.06190  Biso   1.000  N
  N8       1.0000 0.80880  0.54110  0.43810  Biso   1.000  N
  N9       1.0000 0.69440  0.84210  0.89480  Biso   1.000  N
  N10      1.0000 0.30560  0.34210  0.60520  Biso   1.000  N
  N11      1.0000 0.30560  0.15790  0.10520  Biso   1.000  N
  N12      1.0000 0.69440  0.65790  0.39480  Biso   1.000  N
  N13      1.0000 0.00320  0.15280  0.00450  Biso   1.000  N
  N14      1.0000 0.99680  0.65280  0.49550  Biso   1.000  N
  N15      1.0000 0.99680  0.84720  0.99550  Biso   1.000  N
  N16      1.0000 0.00320  0.34720  0.50450  Biso   1.000  N
  N17      1.0000 0.14950  0.19760  0.97240  Biso   1.000  N
  N18      1.0000 0.85050  0.69760  0.52760  Biso   1.000  N
  N19      1.0000 0.85050  0.80240  0.02760  Biso   1.000  N
  N20      1.0000 0.14950  0.30240  0.47240  Biso   1.000  N
  N21      1.0000 0.22830  0.12800  0.88660  Biso   1.000  N
  N22      1.0000 0.77170  0.62800  0.61340  Biso   1.000  N
  N23      1.0000 0.77170  0.87200  0.11340  Biso   1.000  N
  N24      1.0000 0.22830  0.37200  0.38660  Biso   1.000  N
  N25      1.0000 0.03640  0.31310  0.11790  Biso   1.000  N
  N26      1.0000 0.96360  0.81310  0.38210  Biso   1.000  N
  N27      1.0000 0.96360  0.68690  0.88210  Biso   1.000  N
  N28      1.0000 0.03640  0.18690  0.61790  Biso   1.000  N
  N29      1.0000 0.10950  0.40160  0.19560  Biso   1.000  N
  N30      1.0000 0.89050  0.90160  0.30440  Biso   1.000  N
  N31      1.0000 0.89050  0.59840  0.80440  Biso   1.000  N
  N32      1.0000 0.10950  0.09840  0.69560  Biso   1.000  N
  N33      1.0000 0.28450  0.45870  0.20340  Biso   1.000  N
  N34      1.0000 0.71550  0.95870  0.29660  Biso   1.000  N
  N35      1.0000 0.71550  0.54130  0.79660  Biso   1.000  N
  N36      1.0000 0.28450  0.04130  0.70340  Biso   1.000  N
  N37      1.0000 0.84430  0.28610  0.21550  Biso   1.000  N
  N38      1.0000 0.15570  0.78610  0.28450  Biso   1.000  N
  N39      1.0000 0.15570  0.71390  0.78450  Biso   1.000  N
  N40      1.0000 0.84430  0.21390  0.71550  Biso   1.000  N
  N41      1.0000 0.76430  0.28210  0.30340  Biso   1.000  N
  N42      1.0000 0.23570  0.78210  0.19660  Biso   1.000  N
  N43      1.0000 0.23570  0.71790  0.69660  Biso   1.000  N
  N44      1.0000 0.76430  0.21790  0.80340  Biso   1.000  N
  N45      1.0000 0.81450  0.37520  0.39710  Biso   1.000  N
  N46      1.0000 0.18550  0.87520  0.10290  Biso   1.000  N
  N47      1.0000 0.18550  0.62480  0.60290  Biso   1.000  N
  N48      1.0000 0.81450  0.12480  0.89710  Biso   1.000  N
  N49      1.0000 0.67980  0.12750  0.14820  Biso   1.000  N
  N50      1.0000 0.32020  0.62750  0.35180  Biso   1.000  N
  N51      1.0000 0.32020  0.87250  0.85180  Biso   1.000  N
  N52      1.0000 0.67980  0.37250  0.64820  Biso   1.000  N
  N53      1.0000 0.55130  0.03310  0.12450  Biso   1.000  N
  N54      1.0000 0.44870  0.53310  0.37550  Biso   1.000  N
  N55      1.0000 0.44870  0.96690  0.87550  Biso   1.000  N
  N56      1.0000 0.55130  0.46690  0.62450  Biso   1.000  N
  N57      1.0000 0.43290  0.99790  0.19820  Biso   1.000  N
  N58      1.0000 0.56710  0.49790  0.30180  Biso   1.000  N
  N59      1.0000 0.56710  0.00210  0.80180  Biso   1.000  N
  N60      1.0000 0.43290  0.50210  0.69820  Biso   1.000  N
  N61      1.0000 0.96640  0.07920  0.16620  Biso   1.000  N
  N62      1.0000 0.03360  0.57920  0.33380  Biso   1.000  N
  N63      1.0000 0.03360  0.92080  0.83380  Biso   1.000  N
  N64      1.0000 0.96640  0.42080  0.66620  Biso   1.000  N
  N65      1.0000 0.74570  0.28980  0.01500  Biso   1.000  N
  N66      1.0000 0.25430  0.78980  0.48500  Biso   1.000  N
  N67      1.0000 0.25430  0.71020  0.98500  Biso   1.000  N
  N68      1.0000 0.74570  0.21020  0.51500  Biso   1.000  N
  N69      1.0000 0.52770  0.17770  0.98930  Biso   1.000  N
  N70      1.0000 0.47230  0.67770  0.51070  Biso   1.000  N
  N71      1.0000 0.47230  0.82230  0.01070  Biso   1.000  N
  N72      1.0000 0.52770  0.32230  0.48930  Biso   1.000  N
  C1       1.0000 0.70700  0.00210  0.99870  Biso   1.000  C
  C2       1.0000 0.29300  0.50210  0.50130  Biso   1.000  C
  C3       1.0000 0.29300  0.99790  0.00130  Biso   1.000  C
  C4       1.0000 0.70700  0.49790  0.49870  Biso   1.000  C
  C5       1.0000 0.72840  0.94730  0.95610  Biso   1.000  C
  C6       1.0000 0.27160  0.44730  0.54390  Biso   1.000  C
  C7       1.0000 0.27160  0.05270  0.04390  Biso   1.000  C
  C8       1.0000 0.72840  0.55270  0.45610  Biso   1.000  C
  C9       1.0000 0.67320  0.88780  0.93320  Biso   1.000  C
  C10      1.0000 0.32680  0.38780  0.56680  Biso   1.000  C
  C11      1.0000 0.32680  0.11220  0.06680  Biso   1.000  C
  C12      1.0000 0.67320  0.61220  0.43320  Biso   1.000  C
  H1       1.0000 0.61750  0.88030  0.94630  Biso   1.000  H
  H2       1.0000 0.38250  0.38030  0.55370  Biso   1.000  H
  H3       1.0000 0.38250  0.11970  0.05370  Biso   1.000  H
  H4       1.0000 0.61750  0.61970  0.44630  Biso   1.000  H
  C13      1.0000 0.77260  0.85560  0.87650  Biso   1.000  C
  C14      1.0000 0.22740  0.35560  0.62350  Biso   1.000  C
  C15      1.0000 0.22740  0.14440  0.12350  Biso   1.000  C
  C16      1.0000 0.77260  0.64440  0.37650  Biso   1.000  C
  H5       1.0000 0.78990  0.82430  0.84820  Biso   1.000  H
  H6       1.0000 0.21010  0.32430  0.65180  Biso   1.000  H
  H7       1.0000 0.21010  0.17570  0.15180  Biso   1.000  H
  H8       1.0000 0.78990  0.67570  0.34820  Biso   1.000  H
  C17      1.0000 0.82900  0.91320  0.89720  Biso   1.000  C
  C18      1.0000 0.17100  0.41320  0.60280  Biso   1.000  C
  C19      1.0000 0.17100  0.08680  0.10280  Biso   1.000  C
  C20      1.0000 0.82900  0.58680  0.39720  Biso   1.000  C
  H9       1.0000 0.88320  0.92090  0.88230  Biso   1.000  H
  H10      1.0000 0.11680  0.42090  0.61770  Biso   1.000  H
  H11      1.0000 0.11680  0.07910  0.11770  Biso   1.000  H
  H12      1.0000 0.88320  0.57910  0.38230  Biso   1.000  H
  C21      1.0000 0.02970  0.10840  0.96490  Biso   1.000  C
  C22      1.0000 0.97030  0.60840  0.53510  Biso   1.000  C
  C23      1.0000 0.97030  0.89160  0.03510  Biso   1.000  C
  C24      1.0000 0.02970  0.39160  0.46490  Biso   1.000  C
  C25      1.0000 0.11470  0.13800  0.94530  Biso   1.000  C
  C26      1.0000 0.88530  0.63800  0.55470  Biso   1.000  C
  C27      1.0000 0.88530  0.86200  0.05470  Biso   1.000  C
  C28      1.0000 0.11470  0.36200  0.44530  Biso   1.000  C
  C29      1.0000 0.15050  0.10160  0.90340  Biso   1.000  C
  C30      1.0000 0.84950  0.60160  0.59660  Biso   1.000  C
  C31      1.0000 0.84950  0.89840  0.09660  Biso   1.000  C
  C32      1.0000 0.15050  0.39840  0.40340  Biso   1.000  C
  H13      1.0000 0.12180  0.05860  0.88620  Biso   1.000  H
  H14      1.0000 0.87820  0.55860  0.61380  Biso   1.000  H
  H15      1.0000 0.87820  0.94140  0.11380  Biso   1.000  H
  H16      1.0000 0.12180  0.44140  0.38620  Biso   1.000  H
  C33      1.0000 0.26540  0.18700  0.91370  Biso   1.000  C
  C34      1.0000 0.73460  0.68700  0.58630  Biso   1.000  C
  C35      1.0000 0.73460  0.81300  0.08630  Biso   1.000  C
  C36      1.0000 0.26540  0.31300  0.41370  Biso   1.000  C
  H17      1.0000 0.31950  0.20630  0.90360  Biso   1.000  H
  H18      1.0000 0.68050  0.70630  0.59640  Biso   1.000  H
  H19      1.0000 0.68050  0.79370  0.09640  Biso   1.000  H
  H20      1.0000 0.31950  0.29370  0.40360  Biso   1.000  H
  C37      1.0000 0.22710  0.22320  0.95790  Biso   1.000  C
  C38      1.0000 0.77290  0.72320  0.54210  Biso   1.000  C
  C39      1.0000 0.77290  0.77680  0.04210  Biso   1.000  C
  C40      1.0000 0.22710  0.27680  0.45790  Biso   1.000  C
  H21      1.0000 0.25630  0.26500  0.97680  Biso   1.000  H
  H22      1.0000 0.74370  0.76500  0.52320  Biso   1.000  H
  H23      1.0000 0.74370  0.73500  0.02320  Biso   1.000  H
  H24      1.0000 0.25630  0.23500  0.47680  Biso   1.000  H
  C41      1.0000 0.11470  0.33390  0.11120  Biso   1.000  C
  C42      1.0000 0.88530  0.83390  0.38880  Biso   1.000  C
  C43      1.0000 0.88530  0.66610  0.88880  Biso   1.000  C
  C44      1.0000 0.11470  0.16610  0.61120  Biso   1.000  C
  C45      1.0000 0.16070  0.38580  0.15550  Biso   1.000  C
  C46      1.0000 0.83930  0.88580  0.34450  Biso   1.000  C
  C47      1.0000 0.83930  0.61420  0.84450  Biso   1.000  C
  C48      1.0000 0.16070  0.11420  0.65550  Biso   1.000  C
  C49      1.0000 0.24490  0.41190  0.16030  Biso   1.000  C
  C50      1.0000 0.75510  0.91190  0.33970  Biso   1.000  C
  C51      1.0000 0.75510  0.58810  0.83970  Biso   1.000  C
  C52      1.0000 0.24490  0.08810  0.66030  Biso   1.000  C
  H25      1.0000 0.27990  0.39750  0.13240  Biso   1.000  H
  H26      1.0000 0.72010  0.89750  0.36760  Biso   1.000  H
  H27      1.0000 0.72010  0.60250  0.86760  Biso   1.000  H
  H28      1.0000 0.27990  0.10250  0.63240  Biso   1.000  H
  C53      1.0000 0.23020  0.47480  0.24120  Biso   1.000  C
  C54      1.0000 0.76980  0.97480  0.25880  Biso   1.000  C
  C55      1.0000 0.76980  0.52520  0.75880  Biso   1.000  C
  C56      1.0000 0.23020  0.02520  0.74120  Biso   1.000  C
  H29      1.0000 0.25240  0.50820  0.27100  Biso   1.000  H
  H30      1.0000 0.74760  0.00820  0.22900  Biso   1.000  H
  H31      1.0000 0.74760  0.49180  0.72900  Biso   1.000  H
  H32      1.0000 0.25240  0.99180  0.77100  Biso   1.000  H
  C57      1.0000 0.14410  0.44600  0.23980  Biso   1.000  C
  C58      1.0000 0.85590  0.94600  0.26020  Biso   1.000  C
  C59      1.0000 0.85590  0.55400  0.76020  Biso   1.000  C
  C60      1.0000 0.14410  0.05400  0.73980  Biso   1.000  C
  H33      1.0000 0.11020  0.45710  0.26900  Biso   1.000  H
  H34      1.0000 0.88980  0.95710  0.23100  Biso   1.000  H
  H35      1.0000 0.88980  0.54290  0.73100  Biso   1.000  H
  H36      1.0000 0.11020  0.04290  0.76900  Biso   1.000  H
  C61      1.0000 0.88020  0.33180  0.25330  Biso   1.000  C
  C62      1.0000 0.11980  0.83180  0.24670  Biso   1.000  C
  C63      1.0000 0.11980  0.66820  0.74670  Biso   1.000  C
  C64      1.0000 0.88020  0.16820  0.75330  Biso   1.000  C
  C65      1.0000 0.83260  0.33150  0.30490  Biso   1.000  C
  C66      1.0000 0.16740  0.83150  0.19510  Biso   1.000  C
  C67      1.0000 0.16740  0.66850  0.69510  Biso   1.000  C
  C68      1.0000 0.83260  0.16850  0.80490  Biso   1.000  C
  C69      1.0000 0.85580  0.37750  0.35020  Biso   1.000  C
  C70      1.0000 0.14420  0.87750  0.14980  Biso   1.000  C
  C71      1.0000 0.14420  0.62250  0.64980  Biso   1.000  C
  C72      1.0000 0.85580  0.12250  0.85020  Biso   1.000  C
  H37      1.0000 0.90260  0.41260  0.34920  Biso   1.000  H
  H38      1.0000 0.09740  0.91260  0.15080  Biso   1.000  H
  H39      1.0000 0.09740  0.58740  0.65080  Biso   1.000  H
  H40      1.0000 0.90260  0.08740  0.84920  Biso   1.000  H
  C73      1.0000 0.74890  0.32720  0.39590  Biso   1.000  C
  C74      1.0000 0.25110  0.82720  0.10410  Biso   1.000  C
  C75      1.0000 0.25110  0.67280  0.60410  Biso   1.000  C
  C76      1.0000 0.74890  0.17280  0.89590  Biso   1.000  C
  H41      1.0000 0.71800  0.32380  0.42750  Biso   1.000  H
  H42      1.0000 0.28200  0.82380  0.07250  Biso   1.000  H
  H43      1.0000 0.28200  0.67620  0.57250  Biso   1.000  H
  H44      1.0000 0.71800  0.17620  0.92750  Biso   1.000  H
  C77      1.0000 0.72320  0.28050  0.34870  Biso   1.000  C
  C78      1.0000 0.27680  0.78050  0.15130  Biso   1.000  C
  C79      1.0000 0.27680  0.71950  0.65130  Biso   1.000  C
  C80      1.0000 0.72320  0.21950  0.84870  Biso   1.000  C
  H45      1.0000 0.67490  0.24680  0.34920  Biso   1.000  H
  H46      1.0000 0.32510  0.74680  0.15080  Biso   1.000  H
  H47      1.0000 0.32510  0.75320  0.65080  Biso   1.000  H
  H48      1.0000 0.67490  0.25320  0.84920  Biso   1.000  H
  C81      1.0000 0.63240  0.11990  0.18910  Biso   1.000  C
  C82      1.0000 0.36760  0.61990  0.31090  Biso   1.000  C
  C83      1.0000 0.36760  0.88010  0.81090  Biso   1.000  C
  C84      1.0000 0.63240  0.38010  0.68910  Biso   1.000  C
  C85      1.0000 0.56040  0.06520  0.17660  Biso   1.000  C
  C86      1.0000 0.43960  0.56520  0.32340  Biso   1.000  C
  C87      1.0000 0.43960  0.93480  0.82340  Biso   1.000  C
  C88      1.0000 0.56040  0.43480  0.67660  Biso   1.000  C
  C89      1.0000 0.50220  0.04560  0.21350  Biso   1.000  C
  C90      1.0000 0.49780  0.54560  0.28650  Biso   1.000  C
  C91      1.0000 0.49780  0.95440  0.78650  Biso   1.000  C
  C92      1.0000 0.50220  0.45440  0.71350  Biso   1.000  C
  H49      1.0000 0.51130  0.06620  0.25070  Biso   1.000  H
  H50      1.0000 0.48870  0.56620  0.24930  Biso   1.000  H
  H51      1.0000 0.48870  0.93380  0.74930  Biso   1.000  H
  H52      1.0000 0.51130  0.43380  0.75070  Biso   1.000  H
  C93      1.0000 0.43040  0.96610  0.14600  Biso   1.000  C
  C94      1.0000 0.56960  0.46610  0.35400  Biso   1.000  C
  C95      1.0000 0.56960  0.03390  0.85400  Biso   1.000  C
  C96      1.0000 0.43040  0.53390  0.64600  Biso   1.000  C
  H53      1.0000 0.38550  0.92960  0.13500  Biso   1.000  H
  H54      1.0000 0.61450  0.42960  0.36500  Biso   1.000  H
  H55      1.0000 0.61450  0.07040  0.86500  Biso   1.000  H
  H56      1.0000 0.38550  0.57040  0.63500  Biso   1.000  H
  C97      1.0000 0.48580  0.98200  0.10900  Biso   1.000  C
  C98      1.0000 0.51420  0.48200  0.39100  Biso   1.000  C
  C99      1.0000 0.51420  0.01800  0.89100  Biso   1.000  C
  C100     1.0000 0.48580  0.51800  0.60900  Biso   1.000  C
  H57      1.0000 0.47930  0.95810  0.07310  Biso   1.000  H
  H58      1.0000 0.52070  0.45810  0.42690  Biso   1.000  H
  H59      1.0000 0.52070  0.04190  0.92690  Biso   1.000  H
  H60      1.0000 0.47930  0.54190  0.57310  Biso   1.000  H
  O81      1.0000 0.63250  0.31420  0.19460  Biso   1.000  O
  O82      1.0000 0.36750  0.81420  0.30540  Biso   1.000  O
  O83      1.0000 0.36750  0.68580  0.80540  Biso   1.000  O
  O84      1.0000 0.63250  0.18580  0.69460  Biso   1.000  O
  N73      1.0000 0.51100  0.34580  0.13220  Biso   1.000  N
  N74      1.0000 0.48900  0.84580  0.36780  Biso   1.000  N
  N75      1.0000 0.48900  0.65420  0.86780  Biso   1.000  N
  N76      1.0000 0.51100  0.15420  0.63220  Biso   1.000  N
  C101     1.0000 0.58010  0.30310  0.14830  Biso   1.000  C
  C102     1.0000 0.41990  0.80310  0.35170  Biso   1.000  C
  C103     1.0000 0.41990  0.69690  0.85170  Biso   1.000  C
  C104     1.0000 0.58010  0.19690  0.64830  Biso   1.000  C
  H61      1.0000 0.59130  0.26310  0.12470  Biso   1.000  H
  H62      1.0000 0.40870  0.76310  0.37530  Biso   1.000  H
  H63      1.0000 0.40870  0.73690  0.87530  Biso   1.000  H
  H64      1.0000 0.59130  0.23690  0.62470  Biso   1.000  H
  C105     1.0000 0.44230  0.32510  0.07990  Biso   1.000  C
  C106     1.0000 0.55770  0.82510  0.42010  Biso   1.000  C
  C107     1.0000 0.55770  0.67490  0.92010  Biso   1.000  C
  C108     1.0000 0.44230  0.17490  0.57990  Biso   1.000  C
  H65      1.0000 0.45950  0.27800  0.06460  Biso   1.000  H
  H66      1.0000 0.54050  0.77800  0.43540  Biso   1.000  H
  H67      1.0000 0.54050  0.72200  0.93540  Biso   1.000  H
  H68      1.0000 0.45950  0.22200  0.56460  Biso   1.000  H
  H69      1.0000 0.44100  0.36360  0.05080  Biso   1.000  H
  H70      1.0000 0.55900  0.86360  0.44920  Biso   1.000  H
  H71      1.0000 0.55900  0.63640  0.94920  Biso   1.000  H
  H72      1.0000 0.44100  0.13640  0.55080  Biso   1.000  H
  H73      1.0000 0.38220  0.32060  0.09050  Biso   1.000  H
  H74      1.0000 0.61780  0.82060  0.40950  Biso   1.000  H
  H75      1.0000 0.61780  0.67940  0.90950  Biso   1.000  H
  H76      1.0000 0.38220  0.17940  0.59050  Biso   1.000  H
  C109     1.0000 0.50100  0.41910  0.16580  Biso   1.000  C
  C110     1.0000 0.49900  0.91910  0.33420  Biso   1.000  C
  C111     1.0000 0.49900  0.58090  0.83420  Biso   1.000  C
  C112     1.0000 0.50100  0.08090  0.66580  Biso   1.000  C
  H77      1.0000 0.55140  0.42320  0.19780  Biso   1.000  H
  H78      1.0000 0.44860  0.92320  0.30220  Biso   1.000  H
  H79      1.0000 0.44860  0.57680  0.80220  Biso   1.000  H
  H80      1.0000 0.55140  0.07680  0.69780  Biso   1.000  H
  H81      1.0000 0.44380  0.41860  0.18030  Biso   1.000  H
  H82      1.0000 0.55620  0.91860  0.31970  Biso   1.000  H
  H83      1.0000 0.55620  0.58140  0.81970  Biso   1.000  H
  H84      1.0000 0.44380  0.08140  0.68030  Biso   1.000  H
  H85      1.0000 0.50220  0.46150  0.14030  Biso   1.000  H
  H86      1.0000 0.49780  0.96150  0.35970  Biso   1.000  H
  H87      1.0000 0.49780  0.53850  0.85970  Biso   1.000  H
  H88      1.0000 0.50220  0.03850  0.64030  Biso   1.000  H
  O85      1.0000 0.01270  0.31380  0.95270  Biso   1.000  O
  O86      1.0000 0.98730  0.81380  0.54730  Biso   1.000  O
  O87      1.0000 0.98730  0.68620  0.04730  Biso   1.000  O
  O88      1.0000 0.01270  0.18620  0.45270  Biso   1.000  O
  N77      1.0000 0.90820  0.37030  0.88330  Biso   1.000  N
  N78      1.0000 0.09180  0.87030  0.61670  Biso   1.000  N
  N79      1.0000 0.09180  0.62970  0.11670  Biso   1.000  N
  N80      1.0000 0.90820  0.12970  0.38330  Biso   1.000  N
  C113     1.0000 0.95100  0.34600  0.94120  Biso   1.000  C
  C114     1.0000 0.04900  0.84600  0.55880  Biso   1.000  C
  C115     1.0000 0.04900  0.65400  0.05880  Biso   1.000  C
  C116     1.0000 0.95100  0.15400  0.44120  Biso   1.000  C
  H89      1.0000 0.92060  0.36040  0.97160  Biso   1.000  H
  H90      1.0000 0.07940  0.86040  0.52840  Biso   1.000  H
  H91      1.0000 0.07940  0.63960  0.02840  Biso   1.000  H
  H92      1.0000 0.92060  0.13960  0.47160  Biso   1.000  H
  C117     1.0000 0.95500  0.36900  0.83050  Biso   1.000  C
  C118     1.0000 0.04500  0.86900  0.66950  Biso   1.000  C
  C119     1.0000 0.04500  0.63100  0.16950  Biso   1.000  C
  C120     1.0000 0.95500  0.13100  0.33050  Biso   1.000  C
  H93      1.0000 0.01330  0.34290  0.83980  Biso   1.000  H
  H94      1.0000 0.98670  0.84290  0.66020  Biso   1.000  H
  H95      1.0000 0.98670  0.65710  0.16020  Biso   1.000  H
  H96      1.0000 0.01330  0.15710  0.33980  Biso   1.000  H
  H97      1.0000 0.96620  0.41960  0.81890  Biso   1.000  H
  H98      1.0000 0.03380  0.91960  0.68110  Biso   1.000  H
  H99      1.0000 0.03380  0.58040  0.18110  Biso   1.000  H
  H100     1.0000 0.96620  0.08040  0.31890  Biso   1.000  H
  H101     1.0000 0.91670  0.34330  0.79920  Biso   1.000  H
  H102     1.0000 0.08330  0.84330  0.70080  Biso   1.000  H
  H103     1.0000 0.08330  0.65670  0.20080  Biso   1.000  H
  H104     1.0000 0.91670  0.15670  0.29920  Biso   1.000  H
  C121     1.0000 0.83500  0.40300  0.87740  Biso   1.000  C
  C122     1.0000 0.16500  0.90300  0.62260  Biso   1.000  C
  C123     1.0000 0.16500  0.59700  0.12260  Biso   1.000  C
  C124     1.0000 0.83500  0.09700  0.37740  Biso   1.000  C
  H105     1.0000 0.81050  0.40130  0.91310  Biso   1.000  H
  H106     1.0000 0.18950  0.90130  0.58690  Biso   1.000  H
  H107     1.0000 0.18950  0.59870  0.08690  Biso   1.000  H
  H108     1.0000 0.81050  0.09870  0.41310  Biso   1.000  H
  H109     1.0000 0.79180  0.38010  0.84700  Biso   1.000  H
  H110     1.0000 0.20820  0.88010  0.65300  Biso   1.000  H
  H111     1.0000 0.20820  0.61990  0.15300  Biso   1.000  H
  H112     1.0000 0.79180  0.11990  0.34700  Biso   1.000  H
  H113     1.0000 0.84360  0.45510  0.86750  Biso   1.000  H
  H114     1.0000 0.15640  0.95510  0.63250  Biso   1.000  H
  H115     1.0000 0.15640  0.54490  0.13250  Biso   1.000  H
  H116     1.0000 0.84360  0.04490  0.36750  Biso   1.000  H
