data_image0
_cell_length_a       9.5561
_cell_length_b       17.521
_cell_length_c       10.0643
_cell_angle_alpha    90
_cell_angle_beta     90.821
_cell_angle_gamma    90

_symmetry_space_group_name_H-M    "P 1"
_symmetry_int_tables_number       1

loop_
  _symmetry_equiv_pos_as_xyz
  'x, y, z'

loop_
  _atom_site_label
  _atom_site_occupancy
  _atom_site_fract_x
  _atom_site_fract_y
  _atom_site_fract_z
  _atom_site_thermal_displace_type
  _atom_site_B_iso_or_equiv
  _atom_site_type_symbol
  Cu1      1.0000 0.87634  0.16949  0.18523  Biso   1.000  Cu
  Cu2      1.0000 0.12366  0.66949  0.31477  Biso   1.000  Cu
  Cu3      1.0000 0.12366  0.83051  0.81477  Biso   1.000  Cu
  Cu4      1.0000 0.87634  0.33051  0.68523  Biso   1.000  Cu
  Cu5      1.0000 0.50000  0.50000  0.00000  Biso   1.000  Cu
  Cu6      1.0000 0.50000  0.00000  0.50000  Biso   1.000  Cu
  O1       1.0000 0.69013  0.17497  0.26060  Biso   1.000  O
  O2       1.0000 0.30987  0.67497  0.23940  Biso   1.000  O
  O3       1.0000 0.30987  0.82503  0.73940  Biso   1.000  O
  O4       1.0000 0.69013  0.32503  0.76060  Biso   1.000  O
  O5       1.0000 0.51615  0.24627  0.33060  Biso   1.000  O
  O6       1.0000 0.48385  0.74627  0.16940  Biso   1.000  O
  O7       1.0000 0.48385  0.75373  0.66940  Biso   1.000  O
  O8       1.0000 0.51615  0.25373  0.83060  Biso   1.000  O
  O9       1.0000 0.97132  0.29924  0.85098  Biso   1.000  O
  O10      1.0000 0.02868  0.79924  0.64902  Biso   1.000  O
  O11      1.0000 0.02868  0.70076  0.14902  Biso   1.000  O
  O12      1.0000 0.97132  0.20076  0.35098  Biso   1.000  O
  O13      1.0000 0.07096  0.35870  0.02393  Biso   1.000  O
  O14      1.0000 0.92904  0.85870  0.47607  Biso   1.000  O
  O15      1.0000 0.92904  0.64130  0.97607  Biso   1.000  O
  O16      1.0000 0.07096  0.14130  0.52393  Biso   1.000  O
  O17      1.0000 0.85542  0.46136  0.81360  Biso   1.000  O
  O18      1.0000 0.14458  0.96136  0.68640  Biso   1.000  O
  O19      1.0000 0.14458  0.53864  0.18640  Biso   1.000  O
  O20      1.0000 0.85542  0.03864  0.31360  Biso   1.000  O
  O21      1.0000 0.64402  0.50733  0.86363  Biso   1.000  O
  O22      1.0000 0.35598  0.00733  0.63637  Biso   1.000  O
  O23      1.0000 0.35598  0.49267  0.13637  Biso   1.000  O
  O24      1.0000 0.64402  0.99267  0.36363  Biso   1.000  O
  O25      1.0000 0.34795  0.11372  0.40405  Biso   1.000  O
  O26      1.0000 0.65205  0.61372  0.09595  Biso   1.000  O
  O27      1.0000 0.65205  0.88628  0.59595  Biso   1.000  O
  O28      1.0000 0.34795  0.38628  0.90405  Biso   1.000  O
  H1       1.0000 0.27020  0.12850  0.43000  Biso   1.000  H
  H2       1.0000 0.72980  0.62850  0.07000  Biso   1.000  H
  H3       1.0000 0.72980  0.87150  0.57000  Biso   1.000  H
  H4       1.0000 0.27020  0.37150  0.93000  Biso   1.000  H
  H5       1.0000 0.38600  0.15740  0.40100  Biso   1.000  H
  H6       1.0000 0.61400  0.65740  0.09900  Biso   1.000  H
  H7       1.0000 0.61400  0.84260  0.59900  Biso   1.000  H
  H8       1.0000 0.38600  0.34260  0.90100  Biso   1.000  H
  N1       1.0000 0.79093  0.29321  0.11258  Biso   1.000  N
  N2       1.0000 0.20907  0.79321  0.38742  Biso   1.000  N
  N3       1.0000 0.20907  0.70679  0.88742  Biso   1.000  N
  N4       1.0000 0.79093  0.20679  0.61258  Biso   1.000  N
  N5       1.0000 0.61565  0.41382  0.06030  Biso   1.000  N
  N6       1.0000 0.38435  0.91382  0.43970  Biso   1.000  N
  N7       1.0000 0.38435  0.58618  0.93970  Biso   1.000  N
  N8       1.0000 0.61565  0.08618  0.56030  Biso   1.000  N
  N9       1.0000 0.81060  0.10880  0.02680  Biso   1.000  N
  N10      1.0000 0.18940  0.60880  0.47320  Biso   1.000  N
  N11      1.0000 0.18940  0.89120  0.97320  Biso   1.000  N
  N12      1.0000 0.81060  0.39120  0.52680  Biso   1.000  N
  N13      1.0000 0.05533  0.16266  0.08965  Biso   1.000  N
  N14      1.0000 0.94467  0.66266  0.41035  Biso   1.000  N
  N15      1.0000 0.94467  0.83734  0.91035  Biso   1.000  N
  N16      1.0000 0.05533  0.33734  0.58965  Biso   1.000  N
  C1       1.0000 0.62060  0.23608  0.26370  Biso   1.000  C
  C2       1.0000 0.37940  0.73608  0.23630  Biso   1.000  C
  C3       1.0000 0.37940  0.76392  0.73630  Biso   1.000  C
  C4       1.0000 0.62060  0.26392  0.76370  Biso   1.000  C
  C5       1.0000 0.66751  0.30022  0.17351  Biso   1.000  C
  C6       1.0000 0.33249  0.80022  0.32649  Biso   1.000  C
  C7       1.0000 0.33249  0.69978  0.82649  Biso   1.000  C
  C8       1.0000 0.66751  0.19978  0.67351  Biso   1.000  C
  C9       1.0000 0.82672  0.34664  0.02424  Biso   1.000  C
  C10      1.0000 0.17328  0.84664  0.47576  Biso   1.000  C
  C11      1.0000 0.17328  0.65336  0.97576  Biso   1.000  C
  C12      1.0000 0.82672  0.15336  0.52424  Biso   1.000  C
  C13      1.0000 0.73472  0.40677  0.99471  Biso   1.000  C
  C14      1.0000 0.26528  0.90677  0.50529  Biso   1.000  C
  C15      1.0000 0.26528  0.59323  0.00529  Biso   1.000  C
  C16      1.0000 0.73472  0.09323  0.49471  Biso   1.000  C
  C17      1.0000 0.58010  0.36148  0.14992  Biso   1.000  C
  C18      1.0000 0.41990  0.86148  0.35008  Biso   1.000  C
  C19      1.0000 0.41990  0.63852  0.85008  Biso   1.000  C
  C20      1.0000 0.58010  0.13852  0.64992  Biso   1.000  C
  H9       1.0000 0.49700  0.36630  0.19620  Biso   1.000  H
  H10      1.0000 0.50300  0.86630  0.30380  Biso   1.000  H
  H11      1.0000 0.50300  0.63370  0.80380  Biso   1.000  H
  H12      1.0000 0.49700  0.13370  0.69620  Biso   1.000  H
  C21      1.0000 0.97000  0.33612  0.96020  Biso   1.000  C
  C22      1.0000 0.03000  0.83612  0.53980  Biso   1.000  C
  C23      1.0000 0.03000  0.66388  0.03980  Biso   1.000  C
  C24      1.0000 0.97000  0.16388  0.46020  Biso   1.000  C
  C25      1.0000 0.74960  0.46340  0.88108  Biso   1.000  C
  C26      1.0000 0.25040  0.96340  0.61892  Biso   1.000  C
  C27      1.0000 0.25040  0.53660  0.11892  Biso   1.000  C
  C28      1.0000 0.74960  0.03660  0.38108  Biso   1.000  C
  C29      1.0000 0.68220  0.07961  0.00750  Biso   1.000  C
  C30      1.0000 0.31780  0.57961  0.49250  Biso   1.000  C
  C31      1.0000 0.31780  0.92039  0.99250  Biso   1.000  C
  C32      1.0000 0.68220  0.42039  0.50750  Biso   1.000  C
  H13      1.0000 0.61160  0.09280  0.06590  Biso   1.000  H
  H14      1.0000 0.38840  0.59280  0.43410  Biso   1.000  H
  H15      1.0000 0.38840  0.90720  0.93410  Biso   1.000  H
  H16      1.0000 0.61160  0.40720  0.56590  Biso   1.000  H
  C33      1.0000 0.65150  0.03077  0.90430  Biso   1.000  C
  C34      1.0000 0.34850  0.53077  0.59570  Biso   1.000  C
  C35      1.0000 0.34850  0.96923  0.09570  Biso   1.000  C
  C36      1.0000 0.65150  0.46923  0.40430  Biso   1.000  C
  H17      1.0000 0.56110  0.01210  0.89220  Biso   1.000  H
  H18      1.0000 0.43890  0.51210  0.60780  Biso   1.000  H
  H19      1.0000 0.43890  0.98790  0.10780  Biso   1.000  H
  H20      1.0000 0.56110  0.48790  0.39220  Biso   1.000  H
  C37      1.0000 0.75630  0.00971  0.81900  Biso   1.000  C
  C38      1.0000 0.24370  0.50971  0.68100  Biso   1.000  C
  C39      1.0000 0.24370  0.99029  0.18100  Biso   1.000  C
  C40      1.0000 0.75630  0.49029  0.31900  Biso   1.000  C
  H21      1.0000 0.73830  0.97510  0.75080  Biso   1.000  H
  H22      1.0000 0.26170  0.47510  0.74920  Biso   1.000  H
  H23      1.0000 0.26170  0.02490  0.24920  Biso   1.000  H
  H24      1.0000 0.73830  0.52490  0.25080  Biso   1.000  H
  C41      1.0000 0.88870  0.04055  0.83600  Biso   1.000  C
  C42      1.0000 0.11130  0.54055  0.66400  Biso   1.000  C
  C43      1.0000 0.11130  0.95945  0.16400  Biso   1.000  C
  C44      1.0000 0.88870  0.45945  0.33600  Biso   1.000  C
  H25      1.0000 0.96010  0.02840  0.77780  Biso   1.000  H
  H26      1.0000 0.03990  0.52840  0.72220  Biso   1.000  H
  H27      1.0000 0.03990  0.97160  0.22220  Biso   1.000  H
  H28      1.0000 0.96010  0.47160  0.27780  Biso   1.000  H
  C45      1.0000 0.91240  0.08997  0.94170  Biso   1.000  C
  C46      1.0000 0.08760  0.58997  0.55830  Biso   1.000  C
  C47      1.0000 0.08760  0.91003  0.05830  Biso   1.000  C
  C48      1.0000 0.91240  0.41003  0.44170  Biso   1.000  C
  C49      1.0000 0.04980  0.12424  0.97360  Biso   1.000  C
  C50      1.0000 0.95020  0.62424  0.52640  Biso   1.000  C
  C51      1.0000 0.95020  0.87576  0.02640  Biso   1.000  C
  C52      1.0000 0.04980  0.37576  0.47360  Biso   1.000  C
  C53      1.0000 0.16510  0.11753  0.89290  Biso   1.000  C
  C54      1.0000 0.83490  0.61753  0.60710  Biso   1.000  C
  C55      1.0000 0.83490  0.88247  0.10710  Biso   1.000  C
  C56      1.0000 0.16510  0.38247  0.39290  Biso   1.000  C
  H29      1.0000 0.15980  0.09100  0.81300  Biso   1.000  H
  H30      1.0000 0.84020  0.59100  0.68700  Biso   1.000  H
  H31      1.0000 0.84020  0.90900  0.18700  Biso   1.000  H
  H32      1.0000 0.15980  0.40900  0.31300  Biso   1.000  H
  C57      1.0000 0.28870  0.15161  0.93520  Biso   1.000  C
  C58      1.0000 0.71130  0.65161  0.56480  Biso   1.000  C
  C59      1.0000 0.71130  0.84839  0.06480  Biso   1.000  C
  C60      1.0000 0.28870  0.34839  0.43520  Biso   1.000  C
  H33      1.0000 0.36850  0.14750  0.88390  Biso   1.000  H
  H34      1.0000 0.63150  0.64750  0.61610  Biso   1.000  H
  H35      1.0000 0.63150  0.85250  0.11610  Biso   1.000  H
  H36      1.0000 0.36850  0.35250  0.38390  Biso   1.000  H
  C61      1.0000 0.29380  0.19117  0.05160  Biso   1.000  C
  C62      1.0000 0.70620  0.69117  0.44840  Biso   1.000  C
  C63      1.0000 0.70620  0.80883  0.94840  Biso   1.000  C
  C64      1.0000 0.29380  0.30883  0.55160  Biso   1.000  C
  H37      1.0000 0.37610  0.21510  0.07920  Biso   1.000  H
  H38      1.0000 0.62390  0.71510  0.42080  Biso   1.000  H
  H39      1.0000 0.62390  0.78490  0.92080  Biso   1.000  H
  H40      1.0000 0.37610  0.28490  0.57920  Biso   1.000  H
  C65      1.0000 0.17520  0.19548  0.12850  Biso   1.000  C
  C66      1.0000 0.82480  0.69548  0.37150  Biso   1.000  C
  C67      1.0000 0.82480  0.80452  0.87150  Biso   1.000  C
  C68      1.0000 0.17520  0.30452  0.62850  Biso   1.000  C
  H41      1.0000 0.17900  0.22170  0.20880  Biso   1.000  H
  H42      1.0000 0.82100  0.72170  0.29120  Biso   1.000  H
  H43      1.0000 0.82100  0.77830  0.79120  Biso   1.000  H
  H44      1.0000 0.17900  0.27830  0.70880  Biso   1.000  H
