data_image0
_cell_length_a       8.6173
_cell_length_b       8.6173
_cell_length_c       37.986
_cell_angle_alpha    90
_cell_angle_beta     90
_cell_angle_gamma    90

_symmetry_space_group_name_H-M    "P 1"
_symmetry_int_tables_number       1

loop_
  _symmetry_equiv_pos_as_xyz
  'x, y, z'

loop_
  _atom_site_label
  _atom_site_occupancy
  _atom_site_fract_x
  _atom_site_fract_y
  _atom_site_fract_z
  _atom_site_thermal_displace_type
  _atom_site_B_iso_or_equiv
  _atom_site_type_symbol
  Cu1      1.0000 0.39695  0.60305  0.75000  Biso   1.000  Cu
  Cu2      1.0000 0.60305  0.39695  0.25000  Biso   1.000  Cu
  Cu3      1.0000 0.89695  0.89695  0.00000  Biso   1.000  Cu
  Cu4      1.0000 0.10305  0.10305  0.50000  Biso   1.000  Cu
  Cu5      1.0000 0.91110  0.89058  0.70144  Biso   1.000  Cu
  Cu6      1.0000 0.08890  0.10942  0.20144  Biso   1.000  Cu
  Cu7      1.0000 0.60942  0.41110  0.95144  Biso   1.000  Cu
  Cu8      1.0000 0.39058  0.58890  0.45144  Biso   1.000  Cu
  Cu9      1.0000 0.58890  0.39058  0.54856  Biso   1.000  Cu
  Cu10     1.0000 0.41110  0.60942  0.04856  Biso   1.000  Cu
  Cu11     1.0000 0.89058  0.91110  0.29856  Biso   1.000  Cu
  Cu12     1.0000 0.10942  0.08890  0.79856  Biso   1.000  Cu
  O1       1.0000 0.59690  0.59250  0.72653  Biso   1.000  O
  O2       1.0000 0.40310  0.40750  0.22653  Biso   1.000  O
  O3       1.0000 0.90750  0.09690  0.97653  Biso   1.000  O
  O4       1.0000 0.09250  0.90310  0.47653  Biso   1.000  O
  O5       1.0000 0.90310  0.09250  0.52347  Biso   1.000  O
  O6       1.0000 0.09690  0.90750  0.02347  Biso   1.000  O
  O7       1.0000 0.59250  0.59690  0.27347  Biso   1.000  O
  O8       1.0000 0.40750  0.40310  0.77347  Biso   1.000  O
  O9       1.0000 0.73090  0.69700  0.68225  Biso   1.000  O
  O10      1.0000 0.26910  0.30300  0.18225  Biso   1.000  O
  O11      1.0000 0.80300  0.23090  0.93225  Biso   1.000  O
  O12      1.0000 0.19700  0.76910  0.43225  Biso   1.000  O
  O13      1.0000 0.76910  0.19700  0.56775  Biso   1.000  O
  O14      1.0000 0.23090  0.80300  0.06775  Biso   1.000  O
  O15      1.0000 0.69700  0.73090  0.31775  Biso   1.000  O
  O16      1.0000 0.30300  0.26910  0.81775  Biso   1.000  O
  O17      1.0000 0.04280  0.91710  0.66033  Biso   1.000  O
  O18      1.0000 0.95720  0.08290  0.16033  Biso   1.000  O
  O19      1.0000 0.58290  0.54280  0.91033  Biso   1.000  O
  O20      1.0000 0.41710  0.45720  0.41033  Biso   1.000  O
  O21      1.0000 0.45720  0.41710  0.58967  Biso   1.000  O
  O22      1.0000 0.54280  0.58290  0.08967  Biso   1.000  O
  O23      1.0000 0.91710  0.04280  0.33967  Biso   1.000  O
  O24      1.0000 0.08290  0.95720  0.83967  Biso   1.000  O
  O25      1.0000 0.07630  0.76220  0.71975  Biso   1.000  O
  O26      1.0000 0.92370  0.23780  0.21975  Biso   1.000  O
  O27      1.0000 0.73780  0.57630  0.96975  Biso   1.000  O
  O28      1.0000 0.26220  0.42370  0.46975  Biso   1.000  O
  O29      1.0000 0.42370  0.26220  0.53025  Biso   1.000  O
  O30      1.0000 0.57630  0.73780  0.03025  Biso   1.000  O
  O31      1.0000 0.76220  0.07630  0.28025  Biso   1.000  O
  O32      1.0000 0.23780  0.92370  0.78025  Biso   1.000  O
  N1       1.0000 0.33590  0.72310  0.70900  Biso   1.000  N
  N2       1.0000 0.66410  0.27690  0.20900  Biso   1.000  N
  N3       1.0000 0.77690  0.83590  0.95900  Biso   1.000  N
  N4       1.0000 0.22310  0.16410  0.45900  Biso   1.000  N
  N5       1.0000 0.16410  0.22310  0.54100  Biso   1.000  N
  N6       1.0000 0.83590  0.77690  0.04100  Biso   1.000  N
  N7       1.0000 0.72310  0.33590  0.29100  Biso   1.000  N
  N8       1.0000 0.27690  0.66410  0.79100  Biso   1.000  N
  N9       1.0000 0.29780  0.88280  0.64495  Biso   1.000  N
  N10      1.0000 0.70220  0.11720  0.14495  Biso   1.000  N
  N11      1.0000 0.61720  0.79780  0.89495  Biso   1.000  N
  N12      1.0000 0.38280  0.20220  0.39495  Biso   1.000  N
  N13      1.0000 0.20220  0.38280  0.60505  Biso   1.000  N
  N14      1.0000 0.79780  0.61720  0.10505  Biso   1.000  N
  N15      1.0000 0.88280  0.29780  0.35505  Biso   1.000  N
  N16      1.0000 0.11720  0.70220  0.85505  Biso   1.000  N
  N17      1.0000 0.76330  0.05350  0.68687  Biso   1.000  N
  N18      1.0000 0.23670  0.94650  0.18687  Biso   1.000  N
  N19      1.0000 0.44650  0.26330  0.93687  Biso   1.000  N
  N20      1.0000 0.55350  0.73670  0.43687  Biso   1.000  N
  N21      1.0000 0.73670  0.55350  0.56313  Biso   1.000  N
  N22      1.0000 0.26330  0.44650  0.06313  Biso   1.000  N
  N23      1.0000 0.05350  0.76330  0.31313  Biso   1.000  N
  N24      1.0000 0.94650  0.23670  0.81313  Biso   1.000  N
  N25      1.0000 0.79850  0.91690  0.74708  Biso   1.000  N
  N26      1.0000 0.20150  0.08310  0.24708  Biso   1.000  N
  N27      1.0000 0.58310  0.29850  0.99708  Biso   1.000  N
  N28      1.0000 0.41690  0.70150  0.49708  Biso   1.000  N
  N29      1.0000 0.70150  0.41690  0.50292  Biso   1.000  N
  N30      1.0000 0.29850  0.58310  0.00292  Biso   1.000  N
  N31      1.0000 0.91690  0.79850  0.25292  Biso   1.000  N
  N32      1.0000 0.08310  0.20150  0.75292  Biso   1.000  N
  C1       1.0000 0.60700  0.67590  0.69831  Biso   1.000  C
  C2       1.0000 0.39300  0.32410  0.19831  Biso   1.000  C
  C3       1.0000 0.82410  0.10700  0.94831  Biso   1.000  C
  C4       1.0000 0.17590  0.89300  0.44831  Biso   1.000  C
  C5       1.0000 0.89300  0.17590  0.55169  Biso   1.000  C
  C6       1.0000 0.10700  0.82410  0.05169  Biso   1.000  C
  C7       1.0000 0.67590  0.60700  0.30169  Biso   1.000  C
  C8       1.0000 0.32410  0.39300  0.80169  Biso   1.000  C
  C9       1.0000 0.45880  0.74630  0.68616  Biso   1.000  C
  C10      1.0000 0.54120  0.25370  0.18616  Biso   1.000  C
  C11      1.0000 0.75370  0.95880  0.93616  Biso   1.000  C
  C12      1.0000 0.24630  0.04120  0.43616  Biso   1.000  C
  C13      1.0000 0.04120  0.24630  0.56384  Biso   1.000  C
  C14      1.0000 0.95880  0.75370  0.06384  Biso   1.000  C
  C15      1.0000 0.74630  0.45880  0.31384  Biso   1.000  C
  C16      1.0000 0.25370  0.54120  0.81384  Biso   1.000  C
  C17      1.0000 0.43740  0.82270  0.65548  Biso   1.000  C
  C18      1.0000 0.56260  0.17730  0.15548  Biso   1.000  C
  C19      1.0000 0.67730  0.93740  0.90548  Biso   1.000  C
  C20      1.0000 0.32270  0.06260  0.40548  Biso   1.000  C
  C21      1.0000 0.06260  0.32270  0.59452  Biso   1.000  C
  C22      1.0000 0.93740  0.67730  0.09452  Biso   1.000  C
  C23      1.0000 0.82270  0.43740  0.34452  Biso   1.000  C
  C24      1.0000 0.17730  0.56260  0.84452  Biso   1.000  C
  H1       1.0000 0.52240  0.83510  0.64070  Biso   1.000  H
  H2       1.0000 0.47760  0.16490  0.14070  Biso   1.000  H
  H3       1.0000 0.66490  0.02240  0.89070  Biso   1.000  H
  H4       1.0000 0.33510  0.97760  0.39070  Biso   1.000  H
  H5       1.0000 0.97760  0.33510  0.60930  Biso   1.000  H
  H6       1.0000 0.02240  0.66490  0.10930  Biso   1.000  H
  H7       1.0000 0.83510  0.52240  0.35930  Biso   1.000  H
  H8       1.0000 0.16490  0.47760  0.85930  Biso   1.000  H
  C25      1.0000 0.18030  0.86310  0.66653  Biso   1.000  C
  C26      1.0000 0.81970  0.13690  0.16653  Biso   1.000  C
  C27      1.0000 0.63690  0.68030  0.91653  Biso   1.000  C
  C28      1.0000 0.36310  0.31970  0.41653  Biso   1.000  C
  C29      1.0000 0.31970  0.36310  0.58347  Biso   1.000  C
  C30      1.0000 0.68030  0.63690  0.08347  Biso   1.000  C
  C31      1.0000 0.86310  0.18030  0.33347  Biso   1.000  C
  C32      1.0000 0.13690  0.81970  0.83347  Biso   1.000  C
  C33      1.0000 0.19680  0.77770  0.70001  Biso   1.000  C
  C34      1.0000 0.80320  0.22230  0.20001  Biso   1.000  C
  C35      1.0000 0.72230  0.69680  0.95001  Biso   1.000  C
  C36      1.0000 0.27770  0.30320  0.45001  Biso   1.000  C
  C37      1.0000 0.30320  0.27770  0.54999  Biso   1.000  C
  C38      1.0000 0.69680  0.72230  0.04999  Biso   1.000  C
  C39      1.0000 0.77770  0.19680  0.29999  Biso   1.000  C
  C40      1.0000 0.22230  0.80320  0.79999  Biso   1.000  C
  C41      1.0000 0.75490  0.11630  0.65487  Biso   1.000  C
  C42      1.0000 0.24510  0.88370  0.15487  Biso   1.000  C
  C43      1.0000 0.38370  0.25490  0.90487  Biso   1.000  C
  C44      1.0000 0.61630  0.74510  0.40487  Biso   1.000  C
  C45      1.0000 0.74510  0.61630  0.59513  Biso   1.000  C
  C46      1.0000 0.25490  0.38370  0.09513  Biso   1.000  C
  C47      1.0000 0.11630  0.75490  0.34513  Biso   1.000  C
  C48      1.0000 0.88370  0.24510  0.84513  Biso   1.000  C
  H9       1.0000 0.82230  0.08130  0.63750  Biso   1.000  H
  H10      1.0000 0.17770  0.91870  0.13750  Biso   1.000  H
  H11      1.0000 0.41870  0.32230  0.88750  Biso   1.000  H
  H12      1.0000 0.58130  0.67770  0.38750  Biso   1.000  H
  H13      1.0000 0.67770  0.58130  0.61250  Biso   1.000  H
  H14      1.0000 0.32230  0.41870  0.11250  Biso   1.000  H
  H15      1.0000 0.08130  0.82230  0.36250  Biso   1.000  H
  H16      1.0000 0.91870  0.17770  0.86250  Biso   1.000  H
  C49      1.0000 0.65000  0.23140  0.64668  Biso   1.000  C
  C50      1.0000 0.35000  0.76860  0.14668  Biso   1.000  C
  C51      1.0000 0.26860  0.15000  0.89668  Biso   1.000  C
  C52      1.0000 0.73140  0.85000  0.39668  Biso   1.000  C
  C53      1.0000 0.85000  0.73140  0.60332  Biso   1.000  C
  C54      1.0000 0.15000  0.26860  0.10332  Biso   1.000  C
  C55      1.0000 0.23140  0.65000  0.35332  Biso   1.000  C
  C56      1.0000 0.76860  0.35000  0.85332  Biso   1.000  C
  H17      1.0000 0.64500  0.27180  0.62400  Biso   1.000  H
  H18      1.0000 0.35500  0.72820  0.12400  Biso   1.000  H
  H19      1.0000 0.22820  0.14500  0.87400  Biso   1.000  H
  H20      1.0000 0.77180  0.85500  0.37400  Biso   1.000  H
  H21      1.0000 0.85500  0.77180  0.62600  Biso   1.000  H
  H22      1.0000 0.14500  0.22820  0.12600  Biso   1.000  H
  H23      1.0000 0.27180  0.64500  0.37600  Biso   1.000  H
  H24      1.0000 0.72820  0.35500  0.87600  Biso   1.000  H
  C57      1.0000 0.55280  0.28530  0.67264  Biso   1.000  C
  C58      1.0000 0.44720  0.71470  0.17264  Biso   1.000  C
  C59      1.0000 0.21470  0.05280  0.92264  Biso   1.000  C
  C60      1.0000 0.78530  0.94720  0.42264  Biso   1.000  C
  C61      1.0000 0.94720  0.78530  0.57736  Biso   1.000  C
  C62      1.0000 0.05280  0.21470  0.07736  Biso   1.000  C
  C63      1.0000 0.28530  0.55280  0.32736  Biso   1.000  C
  C64      1.0000 0.71470  0.44720  0.82736  Biso   1.000  C
  H25      1.0000 0.48240  0.36420  0.66780  Biso   1.000  H
  H26      1.0000 0.51760  0.63580  0.16780  Biso   1.000  H
  H27      1.0000 0.13580  0.98240  0.91780  Biso   1.000  H
  H28      1.0000 0.86420  0.01760  0.41780  Biso   1.000  H
  H29      1.0000 0.01760  0.86420  0.58220  Biso   1.000  H
  H30      1.0000 0.98240  0.13580  0.08220  Biso   1.000  H
  H31      1.0000 0.36420  0.48240  0.33220  Biso   1.000  H
  H32      1.0000 0.63580  0.51760  0.83220  Biso   1.000  H
  C65      1.0000 0.56050  0.22140  0.70606  Biso   1.000  C
  C66      1.0000 0.43950  0.77860  0.20606  Biso   1.000  C
  C67      1.0000 0.27860  0.06050  0.95606  Biso   1.000  C
  C68      1.0000 0.72140  0.93950  0.45606  Biso   1.000  C
  C69      1.0000 0.93950  0.72140  0.54394  Biso   1.000  C
  C70      1.0000 0.06050  0.27860  0.04394  Biso   1.000  C
  C71      1.0000 0.22140  0.56050  0.29394  Biso   1.000  C
  C72      1.0000 0.77860  0.43950  0.79394  Biso   1.000  C
  H33      1.0000 0.49620  0.25700  0.72400  Biso   1.000  H
  H34      1.0000 0.50380  0.74300  0.22400  Biso   1.000  H
  H35      1.0000 0.24300  0.99620  0.97400  Biso   1.000  H
  H36      1.0000 0.75700  0.00380  0.47400  Biso   1.000  H
  H37      1.0000 0.00380  0.75700  0.52600  Biso   1.000  H
  H38      1.0000 0.99620  0.24300  0.02600  Biso   1.000  H
  H39      1.0000 0.25700  0.49620  0.27600  Biso   1.000  H
  H40      1.0000 0.74300  0.50380  0.77600  Biso   1.000  H
  C73      1.0000 0.66620  0.10310  0.71216  Biso   1.000  C
  C74      1.0000 0.33380  0.89690  0.21216  Biso   1.000  C
  C75      1.0000 0.39690  0.16620  0.96216  Biso   1.000  C
  C76      1.0000 0.60310  0.83380  0.46216  Biso   1.000  C
  C77      1.0000 0.83380  0.60310  0.53784  Biso   1.000  C
  C78      1.0000 0.16620  0.39690  0.03784  Biso   1.000  C
  C79      1.0000 0.10310  0.66620  0.28784  Biso   1.000  C
  C80      1.0000 0.89690  0.33380  0.78784  Biso   1.000  C
  C81      1.0000 0.68340  0.02330  0.74625  Biso   1.000  C
  C82      1.0000 0.31660  0.97670  0.24625  Biso   1.000  C
  C83      1.0000 0.47670  0.18340  0.99625  Biso   1.000  C
  C84      1.0000 0.52330  0.81660  0.49625  Biso   1.000  C
  C85      1.0000 0.81660  0.52330  0.50375  Biso   1.000  C
  C86      1.0000 0.18340  0.47670  0.00375  Biso   1.000  C
  C87      1.0000 0.02330  0.68340  0.25375  Biso   1.000  C
  C88      1.0000 0.97670  0.31660  0.75375  Biso   1.000  C
  C89      1.0000 0.59090  0.04920  0.77567  Biso   1.000  C
  C90      1.0000 0.40910  0.95080  0.27567  Biso   1.000  C
  C91      1.0000 0.45080  0.09090  0.02567  Biso   1.000  C
  C92      1.0000 0.54920  0.90910  0.52567  Biso   1.000  C
  C93      1.0000 0.90910  0.54920  0.47433  Biso   1.000  C
  C94      1.0000 0.09090  0.45080  0.97433  Biso   1.000  C
  C95      1.0000 0.04920  0.59090  0.22433  Biso   1.000  C
  C96      1.0000 0.95080  0.40910  0.72433  Biso   1.000  C
  H41      1.0000 0.51070  0.12130  0.77490  Biso   1.000  H
  H42      1.0000 0.48930  0.87870  0.27490  Biso   1.000  H
  H43      1.0000 0.37870  0.01070  0.02490  Biso   1.000  H
  H44      1.0000 0.62130  0.98930  0.52490  Biso   1.000  H
  H45      1.0000 0.98930  0.62130  0.47510  Biso   1.000  H
  H46      1.0000 0.01070  0.37870  0.97510  Biso   1.000  H
  H47      1.0000 0.12130  0.51070  0.22510  Biso   1.000  H
  H48      1.0000 0.87870  0.48930  0.72510  Biso   1.000  H
  C97      1.0000 0.62030  0.96570  0.80613  Biso   1.000  C
  C98      1.0000 0.37970  0.03430  0.30613  Biso   1.000  C
  C99      1.0000 0.53430  0.12030  0.05613  Biso   1.000  C
  C100     1.0000 0.46570  0.87970  0.55613  Biso   1.000  C
  C101     1.0000 0.87970  0.46570  0.44387  Biso   1.000  C
  C102     1.0000 0.12030  0.53430  0.94387  Biso   1.000  C
  C103     1.0000 0.96570  0.62030  0.19387  Biso   1.000  C
  C104     1.0000 0.03430  0.37970  0.69387  Biso   1.000  C
  H49      1.0000 0.56020  0.98220  0.82610  Biso   1.000  H
  H50      1.0000 0.43980  0.01780  0.32610  Biso   1.000  H
  H51      1.0000 0.51780  0.06020  0.07610  Biso   1.000  H
  H52      1.0000 0.48220  0.93980  0.57610  Biso   1.000  H
  H53      1.0000 0.93980  0.48220  0.42390  Biso   1.000  H
  H54      1.0000 0.06020  0.51780  0.92390  Biso   1.000  H
  H55      1.0000 0.98220  0.56020  0.17390  Biso   1.000  H
  H56      1.0000 0.01780  0.43980  0.67390  Biso   1.000  H
  C105     1.0000 0.73760  0.85930  0.80678  Biso   1.000  C
  C106     1.0000 0.26240  0.14070  0.30678  Biso   1.000  C
  C107     1.0000 0.64070  0.23760  0.05678  Biso   1.000  C
  C108     1.0000 0.35930  0.76240  0.55678  Biso   1.000  C
  C109     1.0000 0.76240  0.35930  0.44322  Biso   1.000  C
  C110     1.0000 0.23760  0.64070  0.94322  Biso   1.000  C
  C111     1.0000 0.85930  0.73760  0.19322  Biso   1.000  C
  C112     1.0000 0.14070  0.26240  0.69322  Biso   1.000  C
  H57      1.0000 0.75790  0.80250  0.82710  Biso   1.000  H
  H58      1.0000 0.24210  0.19750  0.32710  Biso   1.000  H
  H59      1.0000 0.69750  0.25790  0.07710  Biso   1.000  H
  H60      1.0000 0.30250  0.74210  0.57710  Biso   1.000  H
  H61      1.0000 0.74210  0.30250  0.42290  Biso   1.000  H
  H62      1.0000 0.25790  0.69750  0.92290  Biso   1.000  H
  H63      1.0000 0.80250  0.75790  0.17290  Biso   1.000  H
  H64      1.0000 0.19750  0.24210  0.67290  Biso   1.000  H
  C113     1.0000 0.82580  0.83720  0.77680  Biso   1.000  C
  C114     1.0000 0.17420  0.16280  0.27680  Biso   1.000  C
  C115     1.0000 0.66280  0.32580  0.02680  Biso   1.000  C
  C116     1.0000 0.33720  0.67420  0.52680  Biso   1.000  C
  C117     1.0000 0.67420  0.33720  0.47320  Biso   1.000  C
  C118     1.0000 0.32580  0.66280  0.97320  Biso   1.000  C
  C119     1.0000 0.83720  0.82580  0.22320  Biso   1.000  C
  C120     1.0000 0.16280  0.17420  0.72320  Biso   1.000  C
  H65      1.0000 0.90610  0.76520  0.77720  Biso   1.000  H
  H66      1.0000 0.09390  0.23480  0.27720  Biso   1.000  H
  H67      1.0000 0.73480  0.40610  0.02720  Biso   1.000  H
  H68      1.0000 0.26520  0.59390  0.52720  Biso   1.000  H
  H69      1.0000 0.59390  0.26520  0.47280  Biso   1.000  H
  H70      1.0000 0.40610  0.73480  0.97280  Biso   1.000  H
  H71      1.0000 0.76520  0.90610  0.22280  Biso   1.000  H
  H72      1.0000 0.23480  0.09390  0.72280  Biso   1.000  H
