data_image0
_cell_length_a       8.513
_cell_length_b       17.983
_cell_length_c       7.493
_cell_angle_alpha    90
_cell_angle_beta     114.486
_cell_angle_gamma    90

_symmetry_space_group_name_H-M    "P 1"
_symmetry_int_tables_number       1

loop_
  _symmetry_equiv_pos_as_xyz
  'x, y, z'

loop_
  _atom_site_label
  _atom_site_occupancy
  _atom_site_fract_x
  _atom_site_fract_y
  _atom_site_fract_z
  _atom_site_thermal_displace_type
  _atom_site_B_iso_or_equiv
  _atom_site_type_symbol
  Cu1      1.0000 0.00453  0.11867  0.25189  Biso   1.000  Cu
  Cu2      1.0000 0.00453  0.88133  0.75189  Biso   1.000  Cu
  Cu3      1.0000 0.50453  0.61867  0.25189  Biso   1.000  Cu
  Cu4      1.0000 0.50453  0.38133  0.75189  Biso   1.000  Cu
  C1       1.0000 0.31070  0.38750  0.28270  Biso   1.000  C
  C2       1.0000 0.31070  0.61250  0.78270  Biso   1.000  C
  C3       1.0000 0.81070  0.88750  0.28270  Biso   1.000  C
  C4       1.0000 0.81070  0.11250  0.78270  Biso   1.000  C
  C5       1.0000 0.01620  0.27760  0.24170  Biso   1.000  C
  C6       1.0000 0.01620  0.72240  0.74170  Biso   1.000  C
  C7       1.0000 0.51620  0.77760  0.24170  Biso   1.000  C
  C8       1.0000 0.51620  0.22240  0.74170  Biso   1.000  C
  C9       1.0000 0.19090  0.25420  0.23980  Biso   1.000  C
  C10      1.0000 0.19090  0.74580  0.73980  Biso   1.000  C
  C11      1.0000 0.69090  0.75420  0.23980  Biso   1.000  C
  C12      1.0000 0.69090  0.24580  0.73980  Biso   1.000  C
  C13      1.0000 0.31880  0.30440  0.24680  Biso   1.000  C
  C14      1.0000 0.31880  0.69560  0.74680  Biso   1.000  C
  C15      1.0000 0.81880  0.80440  0.24680  Biso   1.000  C
  C16      1.0000 0.81880  0.19560  0.74680  Biso   1.000  C
  C17      1.0000 0.46120  0.28160  0.22560  Biso   1.000  C
  C18      1.0000 0.46120  0.71840  0.72560  Biso   1.000  C
  C19      1.0000 0.96120  0.78160  0.22560  Biso   1.000  C
  C20      1.0000 0.96120  0.21840  0.72560  Biso   1.000  C
  H1       1.0000 0.54430  0.31540  0.22660  Biso   1.000  H
  H2       1.0000 0.54430  0.68460  0.72660  Biso   1.000  H
  H3       1.0000 0.04430  0.81540  0.22660  Biso   1.000  H
  H4       1.0000 0.04430  0.18460  0.72660  Biso   1.000  H
  C21      1.0000 0.47810  0.20940  0.20340  Biso   1.000  C
  C22      1.0000 0.47810  0.79060  0.70340  Biso   1.000  C
  C23      1.0000 0.97810  0.70940  0.20340  Biso   1.000  C
  C24      1.0000 0.97810  0.29060  0.70340  Biso   1.000  C
  H5       1.0000 0.57470  0.19220  0.18780  Biso   1.000  H
  H6       1.0000 0.57470  0.80780  0.68780  Biso   1.000  H
  H7       1.0000 0.07470  0.69220  0.18780  Biso   1.000  H
  H8       1.0000 0.07470  0.30780  0.68780  Biso   1.000  H
  C25      1.0000 0.35540  0.15920  0.20280  Biso   1.000  C
  C26      1.0000 0.35540  0.84080  0.70280  Biso   1.000  C
  C27      1.0000 0.85540  0.65920  0.20280  Biso   1.000  C
  C28      1.0000 0.85540  0.34080  0.70280  Biso   1.000  C
  H9       1.0000 0.37190  0.10880  0.18900  Biso   1.000  H
  H10      1.0000 0.37190  0.89120  0.68900  Biso   1.000  H
  H11      1.0000 0.87190  0.60880  0.18900  Biso   1.000  H
  H12      1.0000 0.87190  0.39120  0.68900  Biso   1.000  H
  N1       1.0000 0.21180  0.18178  0.22180  Biso   1.000  N
  N2       1.0000 0.21180  0.81822  0.72180  Biso   1.000  N
  N3       1.0000 0.71180  0.68178  0.22180  Biso   1.000  N
  N4       1.0000 0.71180  0.31822  0.72180  Biso   1.000  N
  O1       1.0000 0.36000  0.40890  0.45300  Biso   1.000  O
  O2       1.0000 0.36000  0.59110  0.95300  Biso   1.000  O
  O3       1.0000 0.86000  0.90890  0.45300  Biso   1.000  O
  O4       1.0000 0.86000  0.09110  0.95300  Biso   1.000  O
  O5       1.0000 0.26080  0.42843  0.13330  Biso   1.000  O
  O6       1.0000 0.26080  0.57157  0.63330  Biso   1.000  O
  O7       1.0000 0.76080  0.92843  0.13330  Biso   1.000  O
  O8       1.0000 0.76080  0.07157  0.63330  Biso   1.000  O
  O9       1.0000 0.91660  0.22671  0.23990  Biso   1.000  O
  O10      1.0000 0.91660  0.77329  0.73990  Biso   1.000  O
  O11      1.0000 0.41660  0.72671  0.23990  Biso   1.000  O
  O12      1.0000 0.41660  0.27329  0.73990  Biso   1.000  O
  O13      1.0000 0.98700  0.34452  0.23870  Biso   1.000  O
  O14      1.0000 0.98700  0.65548  0.73870  Biso   1.000  O
  O15      1.0000 0.48700  0.84452  0.23870  Biso   1.000  O
  O16      1.0000 0.48700  0.15548  0.73870  Biso   1.000  O
  O17      1.0000 0.14200  0.12328  0.56990  Biso   1.000  O
  O18      1.0000 0.14200  0.87672  0.06990  Biso   1.000  O
  O19      1.0000 0.64200  0.62328  0.56990  Biso   1.000  O
  O20      1.0000 0.64200  0.37672  0.06990  Biso   1.000  O
  O21      1.0000 0.12660  0.01799  0.26640  Biso   1.000  O
  O22      1.0000 0.12660  0.98201  0.76640  Biso   1.000  O
  O23      1.0000 0.62660  0.51799  0.26640  Biso   1.000  O
  O24      1.0000 0.62660  0.48201  0.76640  Biso   1.000  O
  O25      1.0000 0.79790  0.07356  0.28980  Biso   1.000  O
  O26      1.0000 0.79790  0.92644  0.78980  Biso   1.000  O
  O27      1.0000 0.29790  0.57356  0.28980  Biso   1.000  O
  O28      1.0000 0.29790  0.42644  0.78980  Biso   1.000  O
  H13      1.0000 0.10500  0.08000  0.55100  Biso   1.000  H
  H14      1.0000 0.10500  0.92000  0.05100  Biso   1.000  H
  H15      1.0000 0.60500  0.58000  0.55100  Biso   1.000  H
  H16      1.0000 0.60500  0.42000  0.05100  Biso   1.000  H
  H17      1.0000 0.09200  0.99200  0.16700  Biso   1.000  H
  H18      1.0000 0.09200  0.00800  0.66700  Biso   1.000  H
  H19      1.0000 0.59200  0.49200  0.16700  Biso   1.000  H
  H20      1.0000 0.59200  0.50800  0.66700  Biso   1.000  H
  H21      1.0000 0.22900  0.01100  0.34000  Biso   1.000  H
  H22      1.0000 0.22900  0.98900  0.84000  Biso   1.000  H
  H23      1.0000 0.72900  0.51100  0.34000  Biso   1.000  H
  H24      1.0000 0.72900  0.48900  0.84000  Biso   1.000  H
  H25      1.0000 0.78600  0.06700  0.39300  Biso   1.000  H
  H26      1.0000 0.78600  0.93300  0.89300  Biso   1.000  H
  H27      1.0000 0.28600  0.56700  0.39300  Biso   1.000  H
  H28      1.0000 0.28600  0.43300  0.89300  Biso   1.000  H
  H29      1.0000 0.80500  0.03400  0.23800  Biso   1.000  H
  H30      1.0000 0.80500  0.96600  0.73800  Biso   1.000  H
  H31      1.0000 0.30500  0.53400  0.23800  Biso   1.000  H
  H32      1.0000 0.30500  0.46600  0.73800  Biso   1.000  H
  H33      1.0000 0.24800  0.12600  0.62000  Biso   1.000  H
  H34      1.0000 0.24800  0.87400  0.12000  Biso   1.000  H
  H35      1.0000 0.74800  0.62600  0.62000  Biso   1.000  H
  H36      1.0000 0.74800  0.37400  0.12000  Biso   1.000  H
  O29      1.0000 0.46010  0.98190  0.42570  Biso   1.000  O
  O30      1.0000 0.46010  0.01810  0.92570  Biso   1.000  O
  O31      1.0000 0.96010  0.48190  0.42570  Biso   1.000  O
  O32      1.0000 0.96010  0.51810  0.92570  Biso   1.000  O
  H37      1.0000 0.55300  0.99600  0.51500  Biso   1.000  H
  H38      1.0000 0.55300  0.00400  0.01500  Biso   1.000  H
  H39      1.0000 0.05300  0.49600  0.51500  Biso   1.000  H
  H40      1.0000 0.05300  0.50400  0.01500  Biso   1.000  H
  H41      1.0000 0.37700  0.99400  0.45100  Biso   1.000  H
  H42      1.0000 0.37700  0.00600  0.95100  Biso   1.000  H
  H43      1.0000 0.87700  0.49400  0.45100  Biso   1.000  H
  H44      1.0000 0.87700  0.50600  0.95100  Biso   1.000  H
