data_image0
_cell_length_a       12.9215
_cell_length_b       8.5454
_cell_length_c       17.597
_cell_angle_alpha    90
_cell_angle_beta     90.96
_cell_angle_gamma    90

_symmetry_space_group_name_H-M    "P 1"
_symmetry_int_tables_number       1

loop_
  _symmetry_equiv_pos_as_xyz
  'x, y, z'

loop_
  _atom_site_label
  _atom_site_occupancy
  _atom_site_fract_x
  _atom_site_fract_y
  _atom_site_fract_z
  _atom_site_thermal_displace_type
  _atom_site_B_iso_or_equiv
  _atom_site_type_symbol
  Cu1      1.0000 0.87122  0.24503  0.18465  Biso   1.000  Cu
  Cu2      1.0000 0.62878  0.74503  0.31535  Biso   1.000  Cu
  Cu3      1.0000 0.12878  0.75497  0.81535  Biso   1.000  Cu
  Cu4      1.0000 0.37122  0.25497  0.68465  Biso   1.000  Cu
  C1       1.0000 0.01853  0.29510  0.30370  Biso   1.000  C
  C2       1.0000 0.48147  0.79510  0.19630  Biso   1.000  C
  C3       1.0000 0.98147  0.70490  0.69630  Biso   1.000  C
  C4       1.0000 0.51853  0.20490  0.80370  Biso   1.000  C
  C5       1.0000 0.03192  0.11820  0.30175  Biso   1.000  C
  C6       1.0000 0.46808  0.61820  0.19825  Biso   1.000  C
  C7       1.0000 0.96808  0.88180  0.69825  Biso   1.000  C
  C8       1.0000 0.53192  0.38180  0.80175  Biso   1.000  C
  H1       1.0000 0.10410  0.09270  0.29070  Biso   1.000  H
  H2       1.0000 0.39590  0.59270  0.20930  Biso   1.000  H
  H3       1.0000 0.89590  0.90730  0.70930  Biso   1.000  H
  H4       1.0000 0.60410  0.40730  0.79070  Biso   1.000  H
  C9       1.0000 0.00314  0.04810  0.37973  Biso   1.000  C
  C10      1.0000 0.49686  0.54810  0.12027  Biso   1.000  C
  C11      1.0000 0.99686  0.95190  0.62027  Biso   1.000  C
  C12      1.0000 0.50314  0.45190  0.87973  Biso   1.000  C
  H5       1.0000 0.95460  0.12040  0.40360  Biso   1.000  H
  H6       1.0000 0.54540  0.62040  0.09640  Biso   1.000  H
  H7       1.0000 0.04540  0.87960  0.59640  Biso   1.000  H
  H8       1.0000 0.45460  0.37960  0.90360  Biso   1.000  H
  C13      1.0000 0.09486  0.02750  0.43410  Biso   1.000  C
  C14      1.0000 0.40514  0.52750  0.06590  Biso   1.000  C
  C15      1.0000 0.90514  0.97250  0.56590  Biso   1.000  C
  C16      1.0000 0.59486  0.47250  0.93410  Biso   1.000  C
  C17      1.0000 0.94334  0.89930  0.35956  Biso   1.000  C
  C18      1.0000 0.55666  0.39930  0.14044  Biso   1.000  C
  C19      1.0000 0.05666  0.10070  0.64044  Biso   1.000  C
  C20      1.0000 0.44334  0.60070  0.85956  Biso   1.000  C
  H9       1.0000 0.89240  0.87420  0.39840  Biso   1.000  H
  H10      1.0000 0.60760  0.37420  0.10160  Biso   1.000  H
  H11      1.0000 0.10760  0.12580  0.60160  Biso   1.000  H
  H12      1.0000 0.39240  0.62580  0.89840  Biso   1.000  H
  C21      1.0000 0.01493  0.76140  0.34529  Biso   1.000  C
  C22      1.0000 0.48507  0.26140  0.15471  Biso   1.000  C
  C23      1.0000 0.98507  0.23860  0.65471  Biso   1.000  C
  C24      1.0000 0.51493  0.73860  0.84529  Biso   1.000  C
  C25      1.0000 0.89004  0.94930  0.28438  Biso   1.000  C
  C26      1.0000 0.60996  0.44930  0.21562  Biso   1.000  C
  C27      1.0000 0.10996  0.05070  0.71562  Biso   1.000  C
  C28      1.0000 0.39004  0.55070  0.78438  Biso   1.000  C
  H13      1.0000 0.87640  0.85580  0.25350  Biso   1.000  H
  H14      1.0000 0.62360  0.35580  0.24650  Biso   1.000  H
  H15      1.0000 0.12360  0.14420  0.74650  Biso   1.000  H
  H16      1.0000 0.37640  0.64420  0.75350  Biso   1.000  H
  C29      1.0000 0.78735  0.03740  0.29592  Biso   1.000  C
  C30      1.0000 0.71265  0.53740  0.20408  Biso   1.000  C
  C31      1.0000 0.21265  0.96260  0.70408  Biso   1.000  C
  C32      1.0000 0.28735  0.46260  0.79592  Biso   1.000  C
  O1       1.0000 0.95434  0.36239  0.26139  Biso   1.000  O
  O2       1.0000 0.54566  0.86239  0.23861  Biso   1.000  O
  O3       1.0000 0.04566  0.63761  0.73861  Biso   1.000  O
  O4       1.0000 0.45434  0.13761  0.76139  Biso   1.000  O
  O5       1.0000 0.07474  0.36491  0.35212  Biso   1.000  O
  O6       1.0000 0.42526  0.86491  0.14788  Biso   1.000  O
  O7       1.0000 0.92526  0.63509  0.64788  Biso   1.000  O
  O8       1.0000 0.57474  0.13509  0.85212  Biso   1.000  O
  O9       1.0000 0.15462  0.15169  0.44451  Biso   1.000  O
  O10      1.0000 0.34538  0.65169  0.05549  Biso   1.000  O
  O11      1.0000 0.84538  0.84831  0.55549  Biso   1.000  O
  O12      1.0000 0.65462  0.34831  0.94451  Biso   1.000  O
  H17      1.0000 0.13220  0.22470  0.41890  Biso   1.000  H
  H18      1.0000 0.36780  0.72470  0.08110  Biso   1.000  H
  H19      1.0000 0.86780  0.77530  0.58110  Biso   1.000  H
  H20      1.0000 0.63220  0.27530  0.91890  Biso   1.000  H
  O13      1.0000 0.11204  0.90863  0.46799  Biso   1.000  O
  O14      1.0000 0.38796  0.40863  0.03201  Biso   1.000  O
  O15      1.0000 0.88796  0.09137  0.53201  Biso   1.000  O
  O16      1.0000 0.61204  0.59137  0.96799  Biso   1.000  O
  O17      1.0000 0.08560  0.76700  0.30242  Biso   1.000  O
  O18      1.0000 0.41440  0.26700  0.19758  Biso   1.000  O
  O19      1.0000 0.91440  0.23300  0.69758  Biso   1.000  O
  O20      1.0000 0.58560  0.73300  0.80242  Biso   1.000  O
  O21      1.0000 0.98836  0.63734  0.38404  Biso   1.000  O
  O22      1.0000 0.51164  0.13734  0.11596  Biso   1.000  O
  O23      1.0000 0.01164  0.36266  0.61596  Biso   1.000  O
  O24      1.0000 0.48836  0.86266  0.88404  Biso   1.000  O
  H21      1.0000 0.02090  0.56130  0.36900  Biso   1.000  H
  H22      1.0000 0.47910  0.06130  0.13100  Biso   1.000  H
  H23      1.0000 0.97910  0.43870  0.63100  Biso   1.000  H
  H24      1.0000 0.52090  0.93870  0.86900  Biso   1.000  H
  O25      1.0000 0.77478  0.16687  0.26127  Biso   1.000  O
  O26      1.0000 0.72522  0.66687  0.23873  Biso   1.000  O
  O27      1.0000 0.22522  0.83313  0.73873  Biso   1.000  O
  O28      1.0000 0.27478  0.33313  0.76127  Biso   1.000  O
  O29      1.0000 0.72265  0.97485  0.33703  Biso   1.000  O
  O30      1.0000 0.77735  0.47485  0.16297  Biso   1.000  O
  O31      1.0000 0.27735  0.02515  0.66297  Biso   1.000  O
  O32      1.0000 0.22265  0.52515  0.83703  Biso   1.000  O
  O33      1.0000 0.96504  0.04507  0.24653  Biso   1.000  O
  O34      1.0000 0.53496  0.54507  0.25347  Biso   1.000  O
  O35      1.0000 0.03496  0.95493  0.75347  Biso   1.000  O
  O36      1.0000 0.46504  0.45493  0.74653  Biso   1.000  O
  N1       1.0000 0.80817  0.11450  0.09986  Biso   1.000  N
  N2       1.0000 0.69183  0.61450  0.40014  Biso   1.000  N
  N3       1.0000 0.19183  0.88550  0.90014  Biso   1.000  N
  N4       1.0000 0.30817  0.38550  0.59986  Biso   1.000  N
  N5       1.0000 0.97214  0.29810  0.10238  Biso   1.000  N
  N6       1.0000 0.52786  0.79810  0.39762  Biso   1.000  N
  N7       1.0000 0.02786  0.70190  0.89762  Biso   1.000  N
  N8       1.0000 0.47214  0.20190  0.60238  Biso   1.000  N
  C33      1.0000 0.72683  0.01880  0.10127  Biso   1.000  C
  C34      1.0000 0.77317  0.51880  0.39873  Biso   1.000  C
  C35      1.0000 0.27317  0.98120  0.89873  Biso   1.000  C
  C36      1.0000 0.22683  0.48120  0.60127  Biso   1.000  C
  H25      1.0000 0.69180  0.00660  0.14660  Biso   1.000  H
  H26      1.0000 0.80820  0.50660  0.35340  Biso   1.000  H
  H27      1.0000 0.30820  0.99340  0.85340  Biso   1.000  H
  H28      1.0000 0.19180  0.49340  0.64660  Biso   1.000  H
  C37      1.0000 0.69200  0.93590  0.03716  Biso   1.000  C
  C38      1.0000 0.80800  0.43590  0.46284  Biso   1.000  C
  C39      1.0000 0.30800  0.06410  0.96284  Biso   1.000  C
  C40      1.0000 0.19200  0.56410  0.53716  Biso   1.000  C
  H29      1.0000 0.63520  0.86950  0.04050  Biso   1.000  H
  H30      1.0000 0.86480  0.36950  0.45950  Biso   1.000  H
  H31      1.0000 0.36480  0.13050  0.95950  Biso   1.000  H
  H32      1.0000 0.13520  0.63050  0.54050  Biso   1.000  H
  C41      1.0000 0.74090  0.95270  0.97073  Biso   1.000  C
  C42      1.0000 0.75910  0.45270  0.52927  Biso   1.000  C
  C43      1.0000 0.25910  0.04730  0.02927  Biso   1.000  C
  C44      1.0000 0.24090  0.54730  0.47073  Biso   1.000  C
  H33      1.0000 0.71770  0.89840  0.92790  Biso   1.000  H
  H34      1.0000 0.78230  0.39840  0.57210  Biso   1.000  H
  H35      1.0000 0.28230  0.10160  0.07210  Biso   1.000  H
  H36      1.0000 0.21770  0.60160  0.42790  Biso   1.000  H
  C45      1.0000 0.82630  0.05160  0.96609  Biso   1.000  C
  C46      1.0000 0.67370  0.55160  0.53391  Biso   1.000  C
  C47      1.0000 0.17370  0.94840  0.03391  Biso   1.000  C
  C48      1.0000 0.32630  0.44840  0.46609  Biso   1.000  C
  C49      1.0000 0.88500  0.07780  0.89958  Biso   1.000  C
  C50      1.0000 0.61500  0.57780  0.60042  Biso   1.000  C
  C51      1.0000 0.11500  0.92220  0.10042  Biso   1.000  C
  C52      1.0000 0.38500  0.42220  0.39958  Biso   1.000  C
  H37      1.0000 0.86470  0.02980  0.85430  Biso   1.000  H
  H38      1.0000 0.63530  0.52980  0.64570  Biso   1.000  H
  H39      1.0000 0.13530  0.97020  0.14570  Biso   1.000  H
  H40      1.0000 0.36470  0.47020  0.35430  Biso   1.000  H
  C53      1.0000 0.96820  0.16930  0.90071  Biso   1.000  C
  C54      1.0000 0.53180  0.66930  0.59929  Biso   1.000  C
  C55      1.0000 0.03180  0.83070  0.09929  Biso   1.000  C
  C56      1.0000 0.46820  0.33070  0.40071  Biso   1.000  C
  H41      1.0000 0.00410  0.18350  0.85590  Biso   1.000  H
  H42      1.0000 0.49590  0.68350  0.64410  Biso   1.000  H
  H43      1.0000 0.99590  0.81650  0.14410  Biso   1.000  H
  H44      1.0000 0.50410  0.31650  0.35590  Biso   1.000  H
  C57      1.0000 0.00520  0.24790  0.96889  Biso   1.000  C
  C58      1.0000 0.49480  0.74790  0.53111  Biso   1.000  C
  C59      1.0000 0.99480  0.75210  0.03111  Biso   1.000  C
  C60      1.0000 0.50520  0.25210  0.46889  Biso   1.000  C
  C61      1.0000 0.09190  0.34060  0.97430  Biso   1.000  C
  C62      1.0000 0.40810  0.84060  0.52570  Biso   1.000  C
  C63      1.0000 0.90810  0.65940  0.02570  Biso   1.000  C
  C64      1.0000 0.59190  0.15940  0.47430  Biso   1.000  C
  H45      1.0000 0.13220  0.35640  0.93160  Biso   1.000  H
  H46      1.0000 0.36780  0.85640  0.56840  Biso   1.000  H
  H47      1.0000 0.86780  0.64360  0.06840  Biso   1.000  H
  H48      1.0000 0.63220  0.14360  0.43160  Biso   1.000  H
  C65      1.0000 0.11940  0.40990  0.04160  Biso   1.000  C
  C66      1.0000 0.38060  0.90990  0.45840  Biso   1.000  C
  C67      1.0000 0.88060  0.59010  0.95840  Biso   1.000  C
  C68      1.0000 0.61940  0.09010  0.54160  Biso   1.000  C
  H49      1.0000 0.17890  0.47090  0.04520  Biso   1.000  H
  H50      1.0000 0.32110  0.97090  0.45480  Biso   1.000  H
  H51      1.0000 0.82110  0.52910  0.95480  Biso   1.000  H
  H52      1.0000 0.67890  0.02910  0.54520  Biso   1.000  H
  C69      1.0000 0.05587  0.38770  0.10668  Biso   1.000  C
  C70      1.0000 0.44413  0.88770  0.39332  Biso   1.000  C
  C71      1.0000 0.94413  0.61230  0.89332  Biso   1.000  C
  C72      1.0000 0.55587  0.11230  0.60668  Biso   1.000  C
  H53      1.0000 0.07350  0.43640  0.15230  Biso   1.000  H
  H54      1.0000 0.42650  0.93640  0.34770  Biso   1.000  H
  H55      1.0000 0.92650  0.56360  0.84770  Biso   1.000  H
  H56      1.0000 0.57350  0.06360  0.65230  Biso   1.000  H
  C73      1.0000 0.94710  0.22850  0.03524  Biso   1.000  C
  C74      1.0000 0.55290  0.72850  0.46476  Biso   1.000  C
  C75      1.0000 0.05290  0.77150  0.96476  Biso   1.000  C
  C76      1.0000 0.44710  0.27150  0.53524  Biso   1.000  C
  C77      1.0000 0.85840  0.13100  0.03349  Biso   1.000  C
  C78      1.0000 0.64160  0.63100  0.46651  Biso   1.000  C
  C79      1.0000 0.14160  0.86900  0.96651  Biso   1.000  C
  C80      1.0000 0.35840  0.36900  0.53349  Biso   1.000  C
  O37      1.0000 0.27660  0.06280  0.26740  Biso   1.000  O
  O38      1.0000 0.22340  0.56280  0.23260  Biso   1.000  O
  O39      1.0000 0.72340  0.93720  0.73260  Biso   1.000  O
  O40      1.0000 0.77660  0.43720  0.76740  Biso   1.000  O
  H57      1.0000 0.25400  0.15400  0.25000  Biso   1.000  H
  H58      1.0000 0.24600  0.65400  0.25000  Biso   1.000  H
  H59      1.0000 0.74600  0.84600  0.75000  Biso   1.000  H
  H60      1.0000 0.75400  0.34600  0.75000  Biso   1.000  H
  H61      1.0000 0.25200  0.97100  0.26500  Biso   1.000  H
  H62      1.0000 0.24800  0.47100  0.23500  Biso   1.000  H
  H63      1.0000 0.74800  0.02900  0.73500  Biso   1.000  H
  H64      1.0000 0.75200  0.52900  0.76500  Biso   1.000  H
