data_image0
_cell_length_a       12.8919
_cell_length_b       12.9977
_cell_length_c       13.4006
_cell_angle_alpha    90
_cell_angle_beta     90
_cell_angle_gamma    90

_symmetry_space_group_name_H-M    "P 1"
_symmetry_int_tables_number       1

loop_
  _symmetry_equiv_pos_as_xyz
  'x, y, z'

loop_
  _atom_site_label
  _atom_site_occupancy
  _atom_site_fract_x
  _atom_site_fract_y
  _atom_site_fract_z
  _atom_site_thermal_displace_type
  _atom_site_B_iso_or_equiv
  _atom_site_type_symbol
  Cu1      1.0000 0.19450  0.14570  0.05280  Biso   1.000  Cu
  Cu2      1.0000 0.30550  0.85430  0.55280  Biso   1.000  Cu
  Cu3      1.0000 0.69450  0.35430  0.94720  Biso   1.000  Cu
  Cu4      1.0000 0.80550  0.64570  0.44720  Biso   1.000  Cu
  Cu5      1.0000 0.38180  0.15330  0.92640  Biso   1.000  Cu
  Cu6      1.0000 0.11820  0.84670  0.42640  Biso   1.000  Cu
  Cu7      1.0000 0.88180  0.34670  0.07360  Biso   1.000  Cu
  Cu8      1.0000 0.61820  0.65330  0.57360  Biso   1.000  Cu
  C1       1.0000 0.51520  0.98300  0.97730  Biso   1.000  C
  C2       1.0000 0.98480  0.01700  0.47730  Biso   1.000  C
  C3       1.0000 0.01520  0.51700  0.02270  Biso   1.000  C
  C4       1.0000 0.48480  0.48300  0.52270  Biso   1.000  C
  O1       1.0000 0.60070  0.93420  0.95330  Biso   1.000  O
  O2       1.0000 0.89930  0.06580  0.45330  Biso   1.000  O
  O3       1.0000 0.10070  0.56580  0.04670  Biso   1.000  O
  O4       1.0000 0.39930  0.43420  0.54670  Biso   1.000  O
  C5       1.0000 0.64560  0.85580  0.01920  Biso   1.000  C
  C6       1.0000 0.85440  0.14420  0.51920  Biso   1.000  C
  C7       1.0000 0.14560  0.64420  0.98080  Biso   1.000  C
  C8       1.0000 0.35440  0.35580  0.48080  Biso   1.000  C
  C9       1.0000 0.56240  0.78600  0.05690  Biso   1.000  C
  C10      1.0000 0.93760  0.21400  0.55690  Biso   1.000  C
  C11      1.0000 0.06240  0.71400  0.94310  Biso   1.000  C
  C12      1.0000 0.43760  0.28600  0.44310  Biso   1.000  C
  C13      1.0000 0.41690  0.81290  0.18200  Biso   1.000  C
  C14      1.0000 0.08310  0.18710  0.68200  Biso   1.000  C
  C15      1.0000 0.91690  0.68710  0.81800  Biso   1.000  C
  C16      1.0000 0.58310  0.31290  0.31800  Biso   1.000  C
  C17      1.0000 0.33380  0.86860  0.21790  Biso   1.000  C
  C18      1.0000 0.16620  0.13140  0.71790  Biso   1.000  C
  C19      1.0000 0.83380  0.63140  0.78210  Biso   1.000  C
  C20      1.0000 0.66620  0.36860  0.28210  Biso   1.000  C
  C21      1.0000 0.30300  0.95960  0.17580  Biso   1.000  C
  C22      1.0000 0.19700  0.04040  0.67580  Biso   1.000  C
  C23      1.0000 0.80300  0.54040  0.82420  Biso   1.000  C
  C24      1.0000 0.69700  0.45960  0.32420  Biso   1.000  C
  C25      1.0000 0.36070  0.99980  0.09240  Biso   1.000  C
  C26      1.0000 0.13930  0.00020  0.59240  Biso   1.000  C
  C27      1.0000 0.86070  0.50020  0.90760  Biso   1.000  C
  C28      1.0000 0.63930  0.49980  0.40760  Biso   1.000  C
  C29      1.0000 0.44950  0.94340  0.05960  Biso   1.000  C
  C30      1.0000 0.05050  0.05660  0.55960  Biso   1.000  C
  C31      1.0000 0.94950  0.55660  0.94040  Biso   1.000  C
  C32      1.0000 0.55050  0.44340  0.44040  Biso   1.000  C
  C33      1.0000 0.47530  0.84810  0.10160  Biso   1.000  C
  C34      1.0000 0.02470  0.15190  0.60160  Biso   1.000  C
  C35      1.0000 0.97530  0.65190  0.89840  Biso   1.000  C
  C36      1.0000 0.52470  0.34810  0.39840  Biso   1.000  C
  C37      1.0000 0.72780  0.80160  0.95780  Biso   1.000  C
  C38      1.0000 0.77220  0.19840  0.45780  Biso   1.000  C
  C39      1.0000 0.22780  0.69840  0.04220  Biso   1.000  C
  C40      1.0000 0.27220  0.30160  0.54220  Biso   1.000  C
  C41      1.0000 0.21040  0.01110  0.22540  Biso   1.000  C
  C42      1.0000 0.28960  0.98890  0.72540  Biso   1.000  C
  C43      1.0000 0.71040  0.48890  0.77460  Biso   1.000  C
  C44      1.0000 0.78960  0.51110  0.27460  Biso   1.000  C
  N1       1.0000 0.15930  0.08210  0.17660  Biso   1.000  N
  N2       1.0000 0.34070  0.91790  0.67660  Biso   1.000  N
  N3       1.0000 0.65930  0.41790  0.82340  Biso   1.000  N
  N4       1.0000 0.84070  0.58210  0.32340  Biso   1.000  N
  C45      1.0000 0.07260  0.13610  0.22500  Biso   1.000  C
  C46      1.0000 0.42740  0.86390  0.72500  Biso   1.000  C
  C47      1.0000 0.57260  0.36390  0.77500  Biso   1.000  C
  C48      1.0000 0.92740  0.63610  0.27500  Biso   1.000  C
  C49      1.0000 0.10710  0.20380  0.31400  Biso   1.000  C
  C50      1.0000 0.39290  0.79620  0.81400  Biso   1.000  C
  C51      1.0000 0.60710  0.29620  0.68600  Biso   1.000  C
  C52      1.0000 0.89290  0.70380  0.18600  Biso   1.000  C
  C53      1.0000 0.17170  0.29460  0.28130  Biso   1.000  C
  C54      1.0000 0.32830  0.70540  0.78130  Biso   1.000  C
  C55      1.0000 0.67170  0.20540  0.71870  Biso   1.000  C
  C56      1.0000 0.82830  0.79460  0.21870  Biso   1.000  C
  C57      1.0000 0.13370  0.39390  0.28290  Biso   1.000  C
  C58      1.0000 0.36630  0.60610  0.78290  Biso   1.000  C
  C59      1.0000 0.63370  0.10610  0.71710  Biso   1.000  C
  C60      1.0000 0.86630  0.89390  0.21710  Biso   1.000  C
  C61      1.0000 0.19220  0.47550  0.25030  Biso   1.000  C
  C62      1.0000 0.30780  0.52450  0.75030  Biso   1.000  C
  C63      1.0000 0.69220  0.02450  0.74970  Biso   1.000  C
  C64      1.0000 0.80780  0.97550  0.24970  Biso   1.000  C
  C65      1.0000 0.29030  0.46070  0.21260  Biso   1.000  C
  C66      1.0000 0.20970  0.53930  0.71260  Biso   1.000  C
  C67      1.0000 0.79030  0.03930  0.78740  Biso   1.000  C
  C68      1.0000 0.70970  0.96070  0.28740  Biso   1.000  C
  C69      1.0000 0.32960  0.36240  0.20950  Biso   1.000  C
  C70      1.0000 0.17040  0.63760  0.70950  Biso   1.000  C
  C71      1.0000 0.82960  0.13760  0.79050  Biso   1.000  C
  C72      1.0000 0.67040  0.86240  0.29050  Biso   1.000  C
  C73      1.0000 0.27260  0.27950  0.24340  Biso   1.000  C
  C74      1.0000 0.22740  0.72050  0.74340  Biso   1.000  C
  C75      1.0000 0.77260  0.22050  0.75660  Biso   1.000  C
  C76      1.0000 0.72740  0.77950  0.25660  Biso   1.000  C
  C77      1.0000 0.01950  0.20390  0.14780  Biso   1.000  C
  C78      1.0000 0.48050  0.79610  0.64780  Biso   1.000  C
  C79      1.0000 0.51950  0.29610  0.85220  Biso   1.000  C
  C80      1.0000 0.98050  0.70390  0.35220  Biso   1.000  C
  O5       1.0000 0.93780  0.25080  0.17330  Biso   1.000  O
  O6       1.0000 0.56220  0.74920  0.67330  Biso   1.000  O
  O7       1.0000 0.43780  0.24920  0.82670  Biso   1.000  O
  O8       1.0000 0.06220  0.75080  0.32670  Biso   1.000  O
  O9       1.0000 0.05950  0.21350  0.06210  Biso   1.000  O
  O10      1.0000 0.44050  0.78650  0.56210  Biso   1.000  O
  O11      1.0000 0.55950  0.28650  0.93790  Biso   1.000  O
  O12      1.0000 0.94050  0.71350  0.43790  Biso   1.000  O
  O13      1.0000 0.18860  0.98140  0.31330  Biso   1.000  O
  O14      1.0000 0.31140  0.01860  0.81330  Biso   1.000  O
  O15      1.0000 0.68860  0.51860  0.68670  Biso   1.000  O
  O16      1.0000 0.81140  0.48140  0.18670  Biso   1.000  O
  O17      1.0000 0.33440  0.08670  0.04980  Biso   1.000  O
  O18      1.0000 0.16560  0.91330  0.54980  Biso   1.000  O
  O19      1.0000 0.83440  0.41330  0.95020  Biso   1.000  O
  O20      1.0000 0.66560  0.58670  0.45020  Biso   1.000  O
  O21      1.0000 0.49880  0.06150  0.92840  Biso   1.000  O
  O22      1.0000 0.00120  0.93850  0.42840  Biso   1.000  O
  O23      1.0000 0.99880  0.43850  0.07160  Biso   1.000  O
  O24      1.0000 0.50120  0.56150  0.57160  Biso   1.000  O
  Cl1      1.0000 0.44860  0.69720  0.24170  Biso   1.000  Cl
  Cl2      1.0000 0.05140  0.30280  0.74170  Biso   1.000  Cl
  Cl3      1.0000 0.94860  0.80280  0.75830  Biso   1.000  Cl
  Cl4      1.0000 0.55140  0.19720  0.25830  Biso   1.000  Cl
  O25      1.0000 0.25290  0.22330  0.94460  Biso   1.000  O
  O26      1.0000 0.24710  0.77670  0.44460  Biso   1.000  O
  O27      1.0000 0.75290  0.27670  0.05540  Biso   1.000  O
  O28      1.0000 0.74710  0.72330  0.55540  Biso   1.000  O
  C81      1.0000 0.24100  0.33050  0.93870  Biso   1.000  C
  C82      1.0000 0.25900  0.66950  0.43870  Biso   1.000  C
  C83      1.0000 0.74100  0.16950  0.06130  Biso   1.000  C
  C84      1.0000 0.75900  0.83050  0.56130  Biso   1.000  C
  O29      1.0000 0.15230  0.99900  0.95180  Biso   1.000  O
  O30      1.0000 0.34770  0.00100  0.45180  Biso   1.000  O
  O31      1.0000 0.65230  0.50100  0.04820  Biso   1.000  O
  O32      1.0000 0.84770  0.49900  0.54820  Biso   1.000  O
  C85      1.0000 0.05090  0.00830  0.91820  Biso   1.000  C
  C86      1.0000 0.44910  0.99170  0.41820  Biso   1.000  C
  C87      1.0000 0.55090  0.49170  0.08180  Biso   1.000  C
  C88      1.0000 0.94910  0.50830  0.58180  Biso   1.000  C
  H1       1.0000 0.67950  0.89060  0.07720  Biso   1.000  H
  H2       1.0000 0.82050  0.10940  0.57720  Biso   1.000  H
  H3       1.0000 0.17950  0.60940  0.92280  Biso   1.000  H
  H4       1.0000 0.32050  0.39060  0.42280  Biso   1.000  H
  H5       1.0000 0.59140  0.73920  0.10800  Biso   1.000  H
  H6       1.0000 0.90860  0.26080  0.60800  Biso   1.000  H
  H7       1.0000 0.09140  0.76080  0.89200  Biso   1.000  H
  H8       1.0000 0.40860  0.23920  0.39200  Biso   1.000  H
  H9       1.0000 0.53540  0.74360  0.00130  Biso   1.000  H
  H10      1.0000 0.96460  0.25640  0.50130  Biso   1.000  H
  H11      1.0000 0.03540  0.75640  0.99870  Biso   1.000  H
  H12      1.0000 0.46460  0.24360  0.49870  Biso   1.000  H
  H13      1.0000 0.29660  0.84280  0.27380  Biso   1.000  H
  H14      1.0000 0.20340  0.15720  0.77380  Biso   1.000  H
  H15      1.0000 0.79660  0.65720  0.72620  Biso   1.000  H
  H16      1.0000 0.70340  0.34280  0.22620  Biso   1.000  H
  H17      1.0000 0.78450  0.84960  0.94340  Biso   1.000  H
  H18      1.0000 0.71550  0.15040  0.44340  Biso   1.000  H
  H19      1.0000 0.28450  0.65040  0.05660  Biso   1.000  H
  H20      1.0000 0.21550  0.34960  0.55660  Biso   1.000  H
  H21      1.0000 0.69720  0.77760  0.89500  Biso   1.000  H
  H22      1.0000 0.80280  0.22240  0.39500  Biso   1.000  H
  H23      1.0000 0.19720  0.72240  0.10500  Biso   1.000  H
  H24      1.0000 0.30280  0.27760  0.60500  Biso   1.000  H
  H25      1.0000 0.75470  0.74270  0.99520  Biso   1.000  H
  H26      1.0000 0.74530  0.25730  0.49520  Biso   1.000  H
  H27      1.0000 0.25470  0.75730  0.00480  Biso   1.000  H
  H28      1.0000 0.24530  0.24270  0.50480  Biso   1.000  H
  H29      1.0000 0.02160  0.08390  0.24950  Biso   1.000  H
  H30      1.0000 0.47840  0.91610  0.74950  Biso   1.000  H
  H31      1.0000 0.52160  0.41610  0.75050  Biso   1.000  H
  H32      1.0000 0.97840  0.58390  0.25050  Biso   1.000  H
  H33      1.0000 0.04490  0.22910  0.34970  Biso   1.000  H
  H34      1.0000 0.45510  0.77090  0.84970  Biso   1.000  H
  H35      1.0000 0.54490  0.27090  0.65030  Biso   1.000  H
  H36      1.0000 0.95510  0.72910  0.15030  Biso   1.000  H
  H37      1.0000 0.14790  0.16140  0.36120  Biso   1.000  H
  H38      1.0000 0.35210  0.83860  0.86120  Biso   1.000  H
  H39      1.0000 0.64790  0.33860  0.63880  Biso   1.000  H
  H40      1.0000 0.85210  0.66140  0.13880  Biso   1.000  H
  H41      1.0000 0.06550  0.40600  0.30700  Biso   1.000  H
  H42      1.0000 0.43450  0.59400  0.80700  Biso   1.000  H
  H43      1.0000 0.56550  0.09400  0.69300  Biso   1.000  H
  H44      1.0000 0.93450  0.90600  0.19300  Biso   1.000  H
  H45      1.0000 0.16460  0.54320  0.25380  Biso   1.000  H
  H46      1.0000 0.33540  0.45680  0.75380  Biso   1.000  H
  H47      1.0000 0.66460  0.95680  0.74620  Biso   1.000  H
  H48      1.0000 0.83540  0.04320  0.24620  Biso   1.000  H
  H49      1.0000 0.33020  0.51720  0.18910  Biso   1.000  H
  H50      1.0000 0.16980  0.48280  0.68910  Biso   1.000  H
  H51      1.0000 0.83020  0.98280  0.81090  Biso   1.000  H
  H52      1.0000 0.66980  0.01720  0.31090  Biso   1.000  H
  H53      1.0000 0.39720  0.35130  0.18360  Biso   1.000  H
  H54      1.0000 0.10280  0.64870  0.68360  Biso   1.000  H
  H55      1.0000 0.89720  0.14870  0.81640  Biso   1.000  H
  H56      1.0000 0.60280  0.85130  0.31640  Biso   1.000  H
  H57      1.0000 0.30130  0.21220  0.24110  Biso   1.000  H
  H58      1.0000 0.19870  0.78780  0.74110  Biso   1.000  H
  H59      1.0000 0.80130  0.28780  0.75890  Biso   1.000  H
  H60      1.0000 0.69870  0.71220  0.25890  Biso   1.000  H
  H61      1.0000 0.17080  0.34940  0.95980  Biso   1.000  H
  H62      1.0000 0.32920  0.65060  0.45980  Biso   1.000  H
  H63      1.0000 0.67080  0.15060  0.04020  Biso   1.000  H
  H64      1.0000 0.82920  0.84940  0.54020  Biso   1.000  H
  H65      1.0000 0.25220  0.35300  0.86970  Biso   1.000  H
  H66      1.0000 0.24780  0.64700  0.36970  Biso   1.000  H
  H67      1.0000 0.75220  0.14700  0.13030  Biso   1.000  H
  H68      1.0000 0.74780  0.85300  0.63030  Biso   1.000  H
  H69      1.0000 0.29180  0.36400  0.98240  Biso   1.000  H
  H70      1.0000 0.20820  0.63600  0.48240  Biso   1.000  H
  H71      1.0000 0.79180  0.13600  0.01760  Biso   1.000  H
  H72      1.0000 0.70820  0.86400  0.51760  Biso   1.000  H
  H73      1.0000 0.18960  0.99930  0.89930  Biso   1.000  H
  H74      1.0000 0.31040  0.00070  0.39930  Biso   1.000  H
  H75      1.0000 0.68960  0.50070  0.10070  Biso   1.000  H
  H76      1.0000 0.81040  0.49930  0.60070  Biso   1.000  H
  H77      1.0000 0.04170  0.96650  0.85800  Biso   1.000  H
  H78      1.0000 0.45830  0.03350  0.35800  Biso   1.000  H
  H79      1.0000 0.54170  0.53350  0.14200  Biso   1.000  H
  H80      1.0000 0.95830  0.46650  0.64200  Biso   1.000  H
  H81      1.0000 0.03630  0.08060  0.90260  Biso   1.000  H
  H82      1.0000 0.46370  0.91940  0.40260  Biso   1.000  H
  H83      1.0000 0.53630  0.41940  0.09740  Biso   1.000  H
  H84      1.0000 0.96370  0.58060  0.59740  Biso   1.000  H
  H85      1.0000 0.00320  0.98450  0.97010  Biso   1.000  H
  H86      1.0000 0.49680  0.01550  0.47010  Biso   1.000  H
  H87      1.0000 0.50320  0.51550  0.02990  Biso   1.000  H
  H88      1.0000 0.99680  0.48450  0.52990  Biso   1.000  H
