data_image0
_cell_length_a       12.724
_cell_length_b       6.104
_cell_length_c       17.223
_cell_angle_alpha    90
_cell_angle_beta     100.15
_cell_angle_gamma    90

_symmetry_space_group_name_H-M    "P 1"
_symmetry_int_tables_number       1

loop_
  _symmetry_equiv_pos_as_xyz
  'x, y, z'

loop_
  _atom_site_label
  _atom_site_occupancy
  _atom_site_fract_x
  _atom_site_fract_y
  _atom_site_fract_z
  _atom_site_thermal_displace_type
  _atom_site_B_iso_or_equiv
  _atom_site_type_symbol
  Cu1      1.0000 0.22950  0.57950  0.42815  Biso   1.000  Cu
  Cu2      1.0000 0.77050  0.07950  0.07185  Biso   1.000  Cu
  Cu3      1.0000 0.77050  0.42050  0.57185  Biso   1.000  Cu
  Cu4      1.0000 0.22950  0.92050  0.92815  Biso   1.000  Cu
  Cu5      1.0000 0.24582  0.10180  0.32700  Biso   1.000  Cu
  Cu6      1.0000 0.75418  0.60180  0.17300  Biso   1.000  Cu
  Cu7      1.0000 0.75418  0.89820  0.67300  Biso   1.000  Cu
  Cu8      1.0000 0.24582  0.39820  0.82700  Biso   1.000  Cu
  Cl1      1.0000 0.34285  0.86560  0.45618  Biso   1.000  Cl
  Cl2      1.0000 0.65715  0.36560  0.04382  Biso   1.000  Cl
  Cl3      1.0000 0.65715  0.13440  0.54382  Biso   1.000  Cl
  Cl4      1.0000 0.34285  0.63440  0.95618  Biso   1.000  Cl
  Cl5      1.0000 0.35253  0.40700  0.36066  Biso   1.000  Cl
  Cl6      1.0000 0.64747  0.90700  0.13934  Biso   1.000  Cl
  Cl7      1.0000 0.64747  0.59300  0.63934  Biso   1.000  Cl
  Cl8      1.0000 0.35253  0.09300  0.86066  Biso   1.000  Cl
  Cl9      1.0000 0.12175  0.29070  0.38209  Biso   1.000  Cl
  Cl10     1.0000 0.87825  0.79070  0.11791  Biso   1.000  Cl
  Cl11     1.0000 0.87825  0.70930  0.61791  Biso   1.000  Cl
  Cl12     1.0000 0.12175  0.20930  0.88209  Biso   1.000  Cl
  Cl13     1.0000 0.10917  0.71430  0.49730  Biso   1.000  Cl
  Cl14     1.0000 0.89083  0.21430  0.00270  Biso   1.000  Cl
  Cl15     1.0000 0.89083  0.28570  0.50270  Biso   1.000  Cl
  Cl16     1.0000 0.10917  0.78570  0.99730  Biso   1.000  Cl
  Cl17     1.0000 0.12252  0.84560  0.28404  Biso   1.000  Cl
  Cl18     1.0000 0.87748  0.34560  0.21596  Biso   1.000  Cl
  Cl19     1.0000 0.87748  0.15440  0.71596  Biso   1.000  Cl
  Cl20     1.0000 0.12252  0.65440  0.78404  Biso   1.000  Cl
  Cl21     1.0000 0.35738  0.97590  0.24768  Biso   1.000  Cl
  Cl22     1.0000 0.64262  0.47590  0.25232  Biso   1.000  Cl
  Cl23     1.0000 0.64262  0.02410  0.75232  Biso   1.000  Cl
  Cl24     1.0000 0.35738  0.52410  0.74768  Biso   1.000  Cl
  N1       1.0000 0.44340  0.14290  0.62170  Biso   1.000  N
  N2       1.0000 0.55660  0.64290  0.87830  Biso   1.000  N
  N3       1.0000 0.55660  0.85710  0.37830  Biso   1.000  N
  N4       1.0000 0.44340  0.35710  0.12170  Biso   1.000  N
  N5       1.0000 0.30310  0.34680  0.54930  Biso   1.000  N
  N6       1.0000 0.69690  0.84680  0.95070  Biso   1.000  N
  N7       1.0000 0.69690  0.65320  0.45070  Biso   1.000  N
  N8       1.0000 0.30310  0.15320  0.04930  Biso   1.000  N
  N9       1.0000 0.18720  0.99010  0.66960  Biso   1.000  N
  N10      1.0000 0.81280  0.49010  0.83040  Biso   1.000  N
  N11      1.0000 0.81280  0.00990  0.33040  Biso   1.000  N
  N12      1.0000 0.18720  0.50990  0.16960  Biso   1.000  N
  N13      1.0000 0.13360  0.24540  0.58390  Biso   1.000  N
  N14      1.0000 0.86640  0.74540  0.91610  Biso   1.000  N
  N15      1.0000 0.86640  0.75460  0.41610  Biso   1.000  N
  N16      1.0000 0.13360  0.25460  0.08390  Biso   1.000  N
  C1       1.0000 0.40440  0.29640  0.56780  Biso   1.000  C
  C2       1.0000 0.59560  0.79640  0.93220  Biso   1.000  C
  C3       1.0000 0.59560  0.70360  0.43220  Biso   1.000  C
  C4       1.0000 0.40440  0.20360  0.06780  Biso   1.000  C
  C5       1.0000 0.24150  0.22930  0.58790  Biso   1.000  C
  C6       1.0000 0.75850  0.72930  0.91210  Biso   1.000  C
  C7       1.0000 0.75850  0.77070  0.41210  Biso   1.000  C
  C8       1.0000 0.24150  0.27070  0.08790  Biso   1.000  C
  C9       1.0000 0.27600  0.06580  0.64260  Biso   1.000  C
  C10      1.0000 0.72400  0.56580  0.85740  Biso   1.000  C
  C11      1.0000 0.72400  0.93420  0.35740  Biso   1.000  C
  C12      1.0000 0.27600  0.43420  0.14260  Biso   1.000  C
  C13      1.0000 0.38330  0.02390  0.66050  Biso   1.000  C
  C14      1.0000 0.61670  0.52390  0.83950  Biso   1.000  C
  C15      1.0000 0.61670  0.97610  0.33950  Biso   1.000  C
  C16      1.0000 0.38330  0.47610  0.16050  Biso   1.000  C
  C17      1.0000 0.10460  0.09660  0.63270  Biso   1.000  C
  C18      1.0000 0.89540  0.59660  0.86730  Biso   1.000  C
  C19      1.0000 0.89540  0.90340  0.36730  Biso   1.000  C
  C20      1.0000 0.10460  0.40340  0.13270  Biso   1.000  C
  H1       1.0000 0.50500  0.12400  0.62500  Biso   1.000  H
  H2       1.0000 0.49500  0.62400  0.87500  Biso   1.000  H
  H3       1.0000 0.49500  0.87600  0.37500  Biso   1.000  H
  H4       1.0000 0.50500  0.37600  0.12500  Biso   1.000  H
  H5       1.0000 0.45900  0.36100  0.54200  Biso   1.000  H
  H6       1.0000 0.54100  0.86100  0.95800  Biso   1.000  H
  H7       1.0000 0.54100  0.63900  0.45800  Biso   1.000  H
  H8       1.0000 0.45900  0.13900  0.04200  Biso   1.000  H
  H9       1.0000 0.18100  0.88800  0.69900  Biso   1.000  H
  H10      1.0000 0.81900  0.38800  0.80100  Biso   1.000  H
  H11      1.0000 0.81900  0.11200  0.30100  Biso   1.000  H
  H12      1.0000 0.18100  0.61200  0.19900  Biso   1.000  H
  H13      1.0000 0.03600  0.08900  0.64000  Biso   1.000  H
  H14      1.0000 0.96400  0.58900  0.86000  Biso   1.000  H
  H15      1.0000 0.96400  0.91100  0.36000  Biso   1.000  H
  H16      1.0000 0.03600  0.41100  0.14000  Biso   1.000  H
  H17      1.0000 0.09500  0.33200  0.55500  Biso   1.000  H
  H18      1.0000 0.90500  0.83200  0.94500  Biso   1.000  H
  H19      1.0000 0.90500  0.66800  0.44500  Biso   1.000  H
  H20      1.0000 0.09500  0.16800  0.05500  Biso   1.000  H
  H21      1.0000 0.40900  0.87340  0.69100  Biso   1.000  H
  H22      1.0000 0.59100  0.37340  0.80900  Biso   1.000  H
  H23      1.0000 0.59100  0.12660  0.30900  Biso   1.000  H
  H24      1.0000 0.40900  0.62660  0.19100  Biso   1.000  H
