data_image0
_cell_length_a       9.179
_cell_length_b       13.17
_cell_length_c       9.886
_cell_angle_alpha    90
_cell_angle_beta     113.5
_cell_angle_gamma    90

_symmetry_space_group_name_H-M    "P 1"
_symmetry_int_tables_number       1

loop_
  _symmetry_equiv_pos_as_xyz
  'x, y, z'

loop_
  _atom_site_label
  _atom_site_occupancy
  _atom_site_fract_x
  _atom_site_fract_y
  _atom_site_fract_z
  _atom_site_thermal_displace_type
  _atom_site_B_iso_or_equiv
  _atom_site_type_symbol
  Cu1      1.0000 0.00000  0.00000  0.00000  Biso   1.000  Cu
  Cu2      1.0000 0.50000  0.50000  0.00000  Biso   1.000  Cu
  Cl1      1.0000 0.29880  0.18030  0.43650  Biso   1.000  Cl
  Cl2      1.0000 0.20120  0.68030  0.56350  Biso   1.000  Cl
  Cl3      1.0000 0.70120  0.81970  0.56350  Biso   1.000  Cl
  Cl4      1.0000 0.79880  0.31970  0.43650  Biso   1.000  Cl
  O1       1.0000 0.89540  0.01120  0.13730  Biso   1.000  O
  O2       1.0000 0.60460  0.51120  0.86270  Biso   1.000  O
  O3       1.0000 0.10460  0.98880  0.86270  Biso   1.000  O
  O4       1.0000 0.39540  0.48880  0.13730  Biso   1.000  O
  O5       1.0000 0.27370  0.99650  0.22020  Biso   1.000  O
  O6       1.0000 0.22630  0.49650  0.77980  Biso   1.000  O
  O7       1.0000 0.72630  0.00350  0.77980  Biso   1.000  O
  O8       1.0000 0.77370  0.50350  0.22020  Biso   1.000  O
  O9       1.0000 0.65790  0.20010  0.64990  Biso   1.000  O
  O10      1.0000 0.84210  0.70010  0.35010  Biso   1.000  O
  O11      1.0000 0.34210  0.79990  0.35010  Biso   1.000  O
  O12      1.0000 0.15790  0.29990  0.64990  Biso   1.000  O
  N1       1.0000 0.98380  0.15040  0.99810  Biso   1.000  N
  N2       1.0000 0.51620  0.65040  0.00190  Biso   1.000  N
  N3       1.0000 0.01620  0.84960  0.00190  Biso   1.000  N
  N4       1.0000 0.48380  0.34960  0.99810  Biso   1.000  N
  N5       1.0000 0.83130  0.12250  0.27680  Biso   1.000  N
  N6       1.0000 0.66870  0.62250  0.72320  Biso   1.000  N
  N7       1.0000 0.16870  0.87750  0.72320  Biso   1.000  N
  N8       1.0000 0.33130  0.37750  0.27680  Biso   1.000  N
  C1       1.0000 0.92620  0.18560  0.09570  Biso   1.000  C
  C2       1.0000 0.57380  0.68560  0.90430  Biso   1.000  C
  C3       1.0000 0.07380  0.81440  0.90430  Biso   1.000  C
  C4       1.0000 0.42620  0.31440  0.09570  Biso   1.000  C
  C5       1.0000 0.01750  0.21620  0.91240  Biso   1.000  C
  C6       1.0000 0.48250  0.71620  0.08760  Biso   1.000  C
  C7       1.0000 0.98250  0.78380  0.08760  Biso   1.000  C
  C8       1.0000 0.51750  0.28380  0.91240  Biso   1.000  C
  C9       1.0000 0.99670  0.31940  0.92050  Biso   1.000  C
  C10      1.0000 0.50330  0.81940  0.07950  Biso   1.000  C
  C11      1.0000 0.00330  0.68060  0.07950  Biso   1.000  C
  C12      1.0000 0.49670  0.18060  0.92050  Biso   1.000  C
  C13      1.0000 0.94110  0.35480  0.02130  Biso   1.000  C
  C14      1.0000 0.55890  0.85480  0.97870  Biso   1.000  C
  C15      1.0000 0.05890  0.64520  0.97870  Biso   1.000  C
  C16      1.0000 0.44110  0.14520  0.02130  Biso   1.000  C
  C17      1.0000 0.90570  0.28780  0.11170  Biso   1.000  C
  C18      1.0000 0.59430  0.78780  0.88830  Biso   1.000  C
  C19      1.0000 0.09430  0.71220  0.88830  Biso   1.000  C
  C20      1.0000 0.40570  0.21220  0.11170  Biso   1.000  C
  C21      1.0000 0.88400  0.10080  0.17500  Biso   1.000  C
  C22      1.0000 0.61600  0.60080  0.82500  Biso   1.000  C
  C23      1.0000 0.11600  0.89920  0.82500  Biso   1.000  C
  C24      1.0000 0.38400  0.39920  0.17500  Biso   1.000  C
  C25      1.0000 0.79140  0.04580  0.36320  Biso   1.000  C
  C26      1.0000 0.70860  0.54580  0.63680  Biso   1.000  C
  C27      1.0000 0.20860  0.95420  0.63680  Biso   1.000  C
  C28      1.0000 0.29140  0.45420  0.36320  Biso   1.000  C
  C29      1.0000 0.93030  0.02560  0.50830  Biso   1.000  C
  C30      1.0000 0.56970  0.52560  0.49170  Biso   1.000  C
  C31      1.0000 0.06970  0.97440  0.49170  Biso   1.000  C
  C32      1.0000 0.43030  0.47440  0.50830  Biso   1.000  C
  H1       1.0000 0.05718  0.19121  0.84350  Biso   1.000  H
  H2       1.0000 0.44282  0.69121  0.15650  Biso   1.000  H
  H3       1.0000 0.94282  0.80879  0.15650  Biso   1.000  H
  H4       1.0000 0.55718  0.30879  0.84350  Biso   1.000  H
  H5       1.0000 0.02036  0.36490  0.85748  Biso   1.000  H
  H6       1.0000 0.47964  0.86490  0.14252  Biso   1.000  H
  H7       1.0000 0.97964  0.63510  0.14252  Biso   1.000  H
  H8       1.0000 0.52036  0.13510  0.85748  Biso   1.000  H
  H9       1.0000 0.92679  0.42570  0.02917  Biso   1.000  H
  H10      1.0000 0.57321  0.92570  0.97083  Biso   1.000  H
  H11      1.0000 0.07321  0.57430  0.97083  Biso   1.000  H
  H12      1.0000 0.42679  0.07430  0.02917  Biso   1.000  H
  H13      1.0000 0.86832  0.31162  0.18283  Biso   1.000  H
  H14      1.0000 0.63168  0.81162  0.81717  Biso   1.000  H
  H15      1.0000 0.13168  0.68838  0.81717  Biso   1.000  H
  H16      1.0000 0.36832  0.18838  0.18283  Biso   1.000  H
  H17      1.0000 0.83100  0.17400  0.30000  Biso   1.000  H
  H18      1.0000 0.66900  0.67400  0.70000  Biso   1.000  H
  H19      1.0000 0.16900  0.82600  0.70000  Biso   1.000  H
  H20      1.0000 0.33100  0.32600  0.30000  Biso   1.000  H
  H21      1.0000 0.76342  0.98449  0.30814  Biso   1.000  H
  H22      1.0000 0.73658  0.48449  0.69186  Biso   1.000  H
  H23      1.0000 0.23658  0.01551  0.69186  Biso   1.000  H
  H24      1.0000 0.26342  0.51551  0.30814  Biso   1.000  H
  H25      1.0000 0.70368  0.06905  0.38269  Biso   1.000  H
  H26      1.0000 0.79632  0.56905  0.61731  Biso   1.000  H
  H27      1.0000 0.29632  0.93095  0.61731  Biso   1.000  H
  H28      1.0000 0.20368  0.43095  0.38269  Biso   1.000  H
  H29      1.0000 0.96000  0.08600  0.55700  Biso   1.000  H
  H30      1.0000 0.54000  0.58600  0.44300  Biso   1.000  H
  H31      1.0000 0.04000  0.91400  0.44300  Biso   1.000  H
  H32      1.0000 0.46000  0.41400  0.55700  Biso   1.000  H
  H33      1.0000 0.89400  0.98300  0.56300  Biso   1.000  H
  H34      1.0000 0.60600  0.48300  0.43700  Biso   1.000  H
  H35      1.0000 0.10600  0.01700  0.43700  Biso   1.000  H
  H36      1.0000 0.39400  0.51700  0.56300  Biso   1.000  H
  H37      1.0000 0.27000  0.01700  0.25000  Biso   1.000  H
  H38      1.0000 0.23000  0.51700  0.75000  Biso   1.000  H
  H39      1.0000 0.73000  0.98300  0.75000  Biso   1.000  H
  H40      1.0000 0.77000  0.48300  0.25000  Biso   1.000  H
  H41      1.0000 0.27000  0.96800  0.23000  Biso   1.000  H
  H42      1.0000 0.23000  0.46800  0.77000  Biso   1.000  H
  H43      1.0000 0.73000  0.03200  0.77000  Biso   1.000  H
  H44      1.0000 0.77000  0.53200  0.23000  Biso   1.000  H
  H45      1.0000 0.55900  0.19300  0.58000  Biso   1.000  H
  H46      1.0000 0.94100  0.69300  0.42000  Biso   1.000  H
  H47      1.0000 0.44100  0.80700  0.42000  Biso   1.000  H
  H48      1.0000 0.05900  0.30700  0.58000  Biso   1.000  H
  H49      1.0000 0.68800  0.21900  0.61100  Biso   1.000  H
  H50      1.0000 0.81200  0.71900  0.38900  Biso   1.000  H
  H51      1.0000 0.31200  0.78100  0.38900  Biso   1.000  H
  H52      1.0000 0.18800  0.28100  0.61100  Biso   1.000  H
