data_image0
_cell_length_a       9.141
_cell_length_b       12.406
_cell_length_c       15.064
_cell_angle_alpha    95.19
_cell_angle_beta     94.46
_cell_angle_gamma    109.51

_symmetry_space_group_name_H-M    "P 1"
_symmetry_int_tables_number       1

loop_
  _symmetry_equiv_pos_as_xyz
  'x, y, z'

loop_
  _atom_site_label
  _atom_site_occupancy
  _atom_site_fract_x
  _atom_site_fract_y
  _atom_site_fract_z
  _atom_site_thermal_displace_type
  _atom_site_B_iso_or_equiv
  _atom_site_type_symbol
  Cu1      1.0000 0.00000  0.00000  0.00000  Biso   1.000  Cu
  N1       1.0000 0.96580  0.10300  0.90960  Biso   1.000  N
  N2       1.0000 0.03420  0.89700  0.09040  Biso   1.000  N
  H1       1.0000 0.98050  0.07600  0.85470  Biso   1.000  H
  H2       1.0000 0.01950  0.92400  0.14530  Biso   1.000  H
  H3       1.0000 0.86710  0.10270  0.90740  Biso   1.000  H
  H4       1.0000 0.13290  0.89730  0.09260  Biso   1.000  H
  C1       1.0000 0.07500  0.22040  0.93500  Biso   1.000  C
  C2       1.0000 0.92500  0.77960  0.06500  Biso   1.000  C
  H5       1.0000 0.16330  0.21200  0.90570  Biso   1.000  H
  H6       1.0000 0.83670  0.78800  0.09430  Biso   1.000  H
  C3       1.0000 0.05110  0.31140  0.88540  Biso   1.000  C
  C4       1.0000 0.94890  0.68860  0.11460  Biso   1.000  C
  H7       1.0000 0.94630  0.31220  0.89060  Biso   1.000  H
  H8       1.0000 0.05370  0.68780  0.10940  Biso   1.000  H
  H9       1.0000 0.05890  0.29300  0.82240  Biso   1.000  H
  H10      1.0000 0.94110  0.70700  0.17760  Biso   1.000  H
  C5       1.0000 0.16790  0.43100  0.91870  Biso   1.000  C
  C6       1.0000 0.83210  0.56900  0.08130  Biso   1.000  C
  H11      1.0000 0.25300  0.44540  0.88160  Biso   1.000  H
  H12      1.0000 0.74700  0.55460  0.11840  Biso   1.000  H
  H13      1.0000 0.11670  0.48640  0.90810  Biso   1.000  H
  H14      1.0000 0.88330  0.51360  0.09190  Biso   1.000  H
  C7       1.0000 0.23110  0.45350  0.00580  Biso   1.000  C
  C8       1.0000 0.76890  0.54650  0.99420  Biso   1.000  C
  H15      1.0000 0.16190  0.48020  0.04030  Biso   1.000  H
  H16      1.0000 0.83810  0.51980  0.95970  Biso   1.000  H
  H17      1.0000 0.32890  0.51740  0.00990  Biso   1.000  H
  H18      1.0000 0.67110  0.48260  0.99010  Biso   1.000  H
  C9       1.0000 0.26420  0.35950  0.05220  Biso   1.000  C
  C10      1.0000 0.73580  0.64050  0.94780  Biso   1.000  C
  H19      1.0000 0.36630  0.35790  0.04040  Biso   1.000  H
  H20      1.0000 0.63370  0.64210  0.95960  Biso   1.000  H
  H21      1.0000 0.26620  0.37680  0.11640  Biso   1.000  H
  H22      1.0000 0.73380  0.62320  0.88360  Biso   1.000  H
  C11      1.0000 0.14370  0.24340  0.02080  Biso   1.000  C
  C12      1.0000 0.85630  0.75660  0.97920  Biso   1.000  C
  H23      1.0000 0.05670  0.25230  0.05120  Biso   1.000  H
  H24      1.0000 0.94330  0.74770  0.94880  Biso   1.000  H
  N3       1.0000 0.16160  0.14670  0.06230  Biso   1.000  N
  N4       1.0000 0.83840  0.85330  0.93770  Biso   1.000  N
  H25      1.0000 0.14920  0.15490  0.12090  Biso   1.000  H
  H26      1.0000 0.85080  0.84510  0.87910  Biso   1.000  H
  H27      1.0000 0.25800  0.14420  0.05760  Biso   1.000  H
  H28      1.0000 0.74200  0.85580  0.94240  Biso   1.000  H
  Cu2      1.0000 0.54335  0.02277  0.31589  Biso   1.000  Cu
  Cu3      1.0000 0.45665  0.97723  0.68411  Biso   1.000  Cu
  N5       1.0000 0.61060  0.89520  0.25940  Biso   1.000  N
  N6       1.0000 0.38940  0.10480  0.74060  Biso   1.000  N
  H29      1.0000 0.59510  0.88970  0.19920  Biso   1.000  H
  H30      1.0000 0.40490  0.11030  0.80080  Biso   1.000  H
  H31      1.0000 0.71270  0.90970  0.27610  Biso   1.000  H
  H32      1.0000 0.28730  0.09030  0.72390  Biso   1.000  H
  C13      1.0000 0.51600  0.78780  0.29050  Biso   1.000  C
  C14      1.0000 0.48400  0.21220  0.70950  Biso   1.000  C
  H33      1.0000 0.55520  0.79450  0.35390  Biso   1.000  H
  H34      1.0000 0.44480  0.20550  0.64610  Biso   1.000  H
  C15      1.0000 0.53360  0.67830  0.24760  Biso   1.000  C
  C16      1.0000 0.46640  0.32170  0.75240  Biso   1.000  C
  H35      1.0000 0.51290  0.67320  0.18300  Biso   1.000  H
  H36      1.0000 0.48710  0.32680  0.81700  Biso   1.000  H
  H37      1.0000 0.64050  0.68160  0.26160  Biso   1.000  H
  H38      1.0000 0.35950  0.31840  0.73840  Biso   1.000  H
  C17      1.0000 0.42500  0.57210  0.27920  Biso   1.000  C
  C18      1.0000 0.57500  0.42790  0.72080  Biso   1.000  C
  H39      1.0000 0.42490  0.50510  0.24050  Biso   1.000  H
  H40      1.0000 0.57510  0.49490  0.75950  Biso   1.000  H
  H41      1.0000 0.46550  0.56630  0.33930  Biso   1.000  H
  H42      1.0000 0.53450  0.43370  0.66070  Biso   1.000  H
  C19      1.0000 0.26640  0.56890  0.28020  Biso   1.000  C
  C20      1.0000 0.73360  0.43110  0.71980  Biso   1.000  C
  H43      1.0000 0.21000  0.50430  0.31040  Biso   1.000  H
  H44      1.0000 0.79000  0.49570  0.68960  Biso   1.000  H
  H45      1.0000 0.21740  0.55520  0.21880  Biso   1.000  H
  H46      1.0000 0.78260  0.44480  0.78120  Biso   1.000  H
  C21      1.0000 0.25000  0.67810  0.32620  Biso   1.000  C
  C22      1.0000 0.75000  0.32190  0.67380  Biso   1.000  C
  H47      1.0000 0.14200  0.67410  0.31610  Biso   1.000  H
  H48      1.0000 0.85800  0.32590  0.68390  Biso   1.000  H
  H49      1.0000 0.27790  0.68390  0.39030  Biso   1.000  H
  H50      1.0000 0.72210  0.31610  0.60970  Biso   1.000  H
  C23      1.0000 0.35390  0.78390  0.29050  Biso   1.000  C
  C24      1.0000 0.64610  0.21610  0.70950  Biso   1.000  C
  H51      1.0000 0.31280  0.77960  0.22780  Biso   1.000  H
  H52      1.0000 0.68720  0.22040  0.77220  Biso   1.000  H
  N7       1.0000 0.35200  0.89320  0.33680  Biso   1.000  N
  N8       1.0000 0.64800  0.10680  0.66320  Biso   1.000  N
  H53      1.0000 0.35020  0.88870  0.39610  Biso   1.000  H
  H54      1.0000 0.64980  0.11130  0.60390  Biso   1.000  H
  H55      1.0000 0.26560  0.90670  0.31580  Biso   1.000  H
  H56      1.0000 0.73440  0.09330  0.68420  Biso   1.000  H
  N9       1.0000 0.47770  0.14840  0.37530  Biso   1.000  N
  N10      1.0000 0.52230  0.85160  0.62470  Biso   1.000  N
  H57      1.0000 0.40010  0.15800  0.33990  Biso   1.000  H
  H58      1.0000 0.59990  0.84200  0.66010  Biso   1.000  H
  H59      1.0000 0.44250  0.12930  0.42790  Biso   1.000  H
  H60      1.0000 0.55750  0.87070  0.57210  Biso   1.000  H
  C25      1.0000 0.61360  0.25590  0.39060  Biso   1.000  C
  C26      1.0000 0.38640  0.74410  0.60940  Biso   1.000  C
  H61      1.0000 0.68020  0.24860  0.44220  Biso   1.000  H
  H62      1.0000 0.31980  0.75140  0.55780  Biso   1.000  H
  C27      1.0000 0.57400  0.36300  0.41570  Biso   1.000  C
  C28      1.0000 0.42600  0.63700  0.58430  Biso   1.000  C
  H63      1.0000 0.49650  0.36810  0.37010  Biso   1.000  H
  H64      1.0000 0.50350  0.63190  0.62990  Biso   1.000  H
  H65      1.0000 0.52920  0.35730  0.47210  Biso   1.000  H
  H66      1.0000 0.47080  0.64270  0.52790  Biso   1.000  H
  C29      1.0000 0.71620  0.47010  0.42460  Biso   1.000  C
  C30      1.0000 0.28380  0.52990  0.57540  Biso   1.000  C
  H67      1.0000 0.68370  0.53700  0.43060  Biso   1.000  H
  H68      1.0000 0.31630  0.46300  0.56940  Biso   1.000  H
  H69      1.0000 0.78250  0.47310  0.47900  Biso   1.000  H
  H70      1.0000 0.21750  0.52690  0.52100  Biso   1.000  H
  C31      1.0000 0.80790  0.47610  0.34770  Biso   1.000  C
  C32      1.0000 0.19210  0.52390  0.65230  Biso   1.000  C
  H71      1.0000 0.90400  0.54170  0.36120  Biso   1.000  H
  H72      1.0000 0.09600  0.45830  0.63880  Biso   1.000  H
  H73      1.0000 0.74910  0.48910  0.29580  Biso   1.000  H
  H74      1.0000 0.25090  0.51090  0.70420  Biso   1.000  H
  C33      1.0000 0.84840  0.36930  0.32380  Biso   1.000  C
  C34      1.0000 0.15160  0.63070  0.67620  Biso   1.000  C
  H75      1.0000 0.92430  0.36400  0.37030  Biso   1.000  H
  H76      1.0000 0.07570  0.63600  0.62970  Biso   1.000  H
  H77      1.0000 0.89510  0.37490  0.26790  Biso   1.000  H
  H78      1.0000 0.10490  0.62510  0.73210  Biso   1.000  H
  C35      1.0000 0.70420  0.26170  0.31370  Biso   1.000  C
  C36      1.0000 0.29580  0.73830  0.68630  Biso   1.000  C
  H79      1.0000 0.63670  0.26630  0.26140  Biso   1.000  H
  H80      1.0000 0.36330  0.73370  0.73860  Biso   1.000  H
  N11      1.0000 0.73520  0.15360  0.29600  Biso   1.000  N
  N12      1.0000 0.26480  0.84640  0.70400  Biso   1.000  N
  H81      1.0000 0.81790  0.15480  0.33310  Biso   1.000  H
  H82      1.0000 0.18210  0.84520  0.66690  Biso   1.000  H
  H83      1.0000 0.75680  0.14440  0.23910  Biso   1.000  H
  H84      1.0000 0.24320  0.85560  0.76090  Biso   1.000  H
  Co1      1.0000 0.50000  0.00000  0.00000  Biso   1.000  Co
  N13      1.0000 0.38310  0.04160  0.17790  Biso   1.000  N
  N14      1.0000 0.61690  0.95840  0.82210  Biso   1.000  N
  C37      1.0000 0.42540  0.02790  0.11020  Biso   1.000  C
  C38      1.0000 0.57460  0.97210  0.88980  Biso   1.000  C
  C39      1.0000 0.69810  0.03320  0.06520  Biso   1.000  C
  C40      1.0000 0.30190  0.96680  0.93480  Biso   1.000  C
  N15      1.0000 0.81610  0.05210  0.10750  Biso   1.000  N
  N16      1.0000 0.18390  0.94790  0.89250  Biso   1.000  N
  N17      1.0000 0.42310  0.75110  0.03460  Biso   1.000  N
  N18      1.0000 0.57690  0.24890  0.96540  Biso   1.000  N
  C41      1.0000 0.45060  0.84400  0.01870  Biso   1.000  C
  C42      1.0000 0.54940  0.15600  0.98130  Biso   1.000  C
  Co2      1.0000 0.00000  0.00000  0.50000  Biso   1.000  Co
  N19      1.0000 0.67250  0.00660  0.46550  Biso   1.000  N
  N20      1.0000 0.32750  0.99340  0.53450  Biso   1.000  N
  C43      1.0000 0.79660  0.00310  0.47890  Biso   1.000  C
  C44      1.0000 0.20340  0.99690  0.52110  Biso   1.000  C
  N21      1.0000 0.12230  0.24700  0.45670  Biso   1.000  N
  N22      1.0000 0.87770  0.75300  0.54330  Biso   1.000  N
  C45      1.0000 0.07760  0.15540  0.47650  Biso   1.000  C
  C46      1.0000 0.92240  0.84460  0.52350  Biso   1.000  C
  N23      1.0000 0.00670  0.06850  0.69940  Biso   1.000  N
  N24      1.0000 0.99330  0.93150  0.30060  Biso   1.000  N
  C47      1.0000 0.00470  0.04560  0.62420  Biso   1.000  C
  C48      1.0000 0.99530  0.95440  0.37580  Biso   1.000  C
  O1       1.0000 0.16380  0.19830  0.26910  Biso   1.000  O
  O2       1.0000 0.83620  0.80170  0.73090  Biso   1.000  O
  H85      1.0000 0.16140  0.25530  0.33540  Biso   1.000  H
  H86      1.0000 0.83860  0.74470  0.66460  Biso   1.000  H
  H87      1.0000 0.27270  0.24510  0.24280  Biso   1.000  H
  H88      1.0000 0.72730  0.75490  0.75720  Biso   1.000  H
