data_image0
_cell_length_a       9.732
_cell_length_b       10.596
_cell_length_c       12.592
_cell_angle_alpha    111.37
_cell_angle_beta     106.05
_cell_angle_gamma    96.36

_symmetry_space_group_name_H-M    "P 1"
_symmetry_int_tables_number       1

loop_
  _symmetry_equiv_pos_as_xyz
  'x, y, z'

loop_
  _atom_site_label
  _atom_site_occupancy
  _atom_site_fract_x
  _atom_site_fract_y
  _atom_site_fract_z
  _atom_site_thermal_displace_type
  _atom_site_B_iso_or_equiv
  _atom_site_type_symbol
  Cu1      1.0000 0.35613  0.00712  0.40434  Biso   1.000  Cu
  Cu2      1.0000 0.64387  0.99288  0.59566  Biso   1.000  Cu
  Cu3      1.0000 0.06698  0.89069  0.41221  Biso   1.000  Cu
  Cu4      1.0000 0.93302  0.10931  0.58779  Biso   1.000  Cu
  Cu5      1.0000 0.24215  0.20603  0.58546  Biso   1.000  Cu
  Cu6      1.0000 0.75785  0.79397  0.41454  Biso   1.000  Cu
  Cu7      1.0000 0.65971  0.10660  0.39411  Biso   1.000  Cu
  Cu8      1.0000 0.34029  0.89340  0.60589  Biso   1.000  Cu
  O1       1.0000 0.29650  0.34190  0.75310  Biso   1.000  O
  O2       1.0000 0.70350  0.65810  0.24690  Biso   1.000  O
  O3       1.0000 0.51780  0.30050  0.81850  Biso   1.000  O
  O4       1.0000 0.48220  0.69950  0.18150  Biso   1.000  O
  C1       1.0000 0.41590  0.35810  0.83490  Biso   1.000  C
  C2       1.0000 0.58410  0.64190  0.16510  Biso   1.000  C
  C3       1.0000 0.43040  0.45560  0.96270  Biso   1.000  C
  C4       1.0000 0.56960  0.54440  0.03730  Biso   1.000  C
  H1       1.0000 0.36000  0.51300  0.95670  Biso   1.000  H
  H2       1.0000 0.64000  0.48700  0.04330  Biso   1.000  H
  H3       1.0000 0.40260  0.39940  0.00270  Biso   1.000  H
  H4       1.0000 0.59740  0.60060  0.99730  Biso   1.000  H
  O5       1.0000 0.99480  0.73720  0.45470  Biso   1.000  O
  O6       1.0000 0.00520  0.26280  0.54530  Biso   1.000  O
  O7       1.0000 0.19930  0.73390  0.58890  Biso   1.000  O
  O8       1.0000 0.80070  0.26610  0.41110  Biso   1.000  O
  C5       1.0000 0.06460  0.69010  0.52570  Biso   1.000  C
  C6       1.0000 0.93540  0.30990  0.47430  Biso   1.000  C
  C7       1.0000 0.98080  0.56670  0.53470  Biso   1.000  C
  C8       1.0000 0.01920  0.43330  0.46530  Biso   1.000  C
  H5       1.0000 0.87590  0.55810  0.50170  Biso   1.000  H
  H6       1.0000 0.12410  0.44190  0.49830  Biso   1.000  H
  H7       1.0000 0.00540  0.58210  0.61920  Biso   1.000  H
  H8       1.0000 0.99460  0.41790  0.38080  Biso   1.000  H
  O9       1.0000 0.75260  0.96300  0.17520  Biso   1.000  O
  O10      1.0000 0.24740  0.03700  0.82480  Biso   1.000  O
  O11      1.0000 0.57280  0.05740  0.22050  Biso   1.000  O
  O12      1.0000 0.42720  0.94260  0.77950  Biso   1.000  O
  C9       1.0000 0.63440  0.99680  0.14670  Biso   1.000  C
  C10      1.0000 0.36560  0.00320  0.85330  Biso   1.000  C
  C11      1.0000 0.55970  0.96510  0.01400  Biso   1.000  C
  C12      1.0000 0.44030  0.03490  0.98600  Biso   1.000  C
  H9       1.0000 0.63420  0.99040  0.98290  Biso   1.000  H
  H10      1.0000 0.36580  0.00960  0.01710  Biso   1.000  H
  H11      1.0000 0.51990  0.86510  0.97020  Biso   1.000  H
  H12      1.0000 0.48010  0.13490  0.02980  Biso   1.000  H
  O13      1.0000 0.35660  0.33620  0.54840  Biso   1.000  O
  O14      1.0000 0.64340  0.66380  0.45160  Biso   1.000  O
  O15      1.0000 0.45360  0.19340  0.42470  Biso   1.000  O
  O16      1.0000 0.54640  0.80660  0.57530  Biso   1.000  O
  C13      1.0000 0.43450  0.31170  0.48230  Biso   1.000  C
  C14      1.0000 0.56550  0.68830  0.51770  Biso   1.000  C
  C15      1.0000 0.51580  0.43190  0.46980  Biso   1.000  C
  C16      1.0000 0.48420  0.56810  0.53020  Biso   1.000  C
  H13      1.0000 0.62060  0.43990  0.50280  Biso   1.000  H
  H14      1.0000 0.37940  0.56010  0.49720  Biso   1.000  H
  H15      1.0000 0.49140  0.41060  0.38410  Biso   1.000  H
  H16      1.0000 0.50860  0.58940  0.61590  Biso   1.000  H
  O17      1.0000 0.17480  0.06420  0.41600  Biso   1.000  O
  O18      1.0000 0.82520  0.93580  0.58400  Biso   1.000  O
  O19      1.0000 0.87460  0.93120  0.38670  Biso   1.000  O
  O20      1.0000 0.12540  0.06880  0.61330  Biso   1.000  O
  O21      1.0000 0.25980  0.84920  0.43050  Biso   1.000  O
  O22      1.0000 0.74020  0.15080  0.56950  Biso   1.000  O
  O23      1.0000 0.53160  0.94550  0.38470  Biso   1.000  O
  O24      1.0000 0.46840  0.05450  0.61530  Biso   1.000  O
  O25      1.0000 0.97960  0.71750  0.20320  Biso   1.000  O
  O26      1.0000 0.02040  0.28250  0.79680  Biso   1.000  O
  O27      1.0000 0.26450  0.95000  0.18660  Biso   1.000  O
  O28      1.0000 0.73550  0.05000  0.81340  Biso   1.000  O
  O29      1.0000 0.05010  0.14110  0.23400  Biso   1.000  O
  O30      1.0000 0.94990  0.85890  0.76600  Biso   1.000  O
  O31      1.0000 0.67640  0.36810  0.22340  Biso   1.000  O
  O32      1.0000 0.32360  0.63190  0.77660  Biso   1.000  O
  O33      1.0000 0.26160  0.59410  0.26880  Biso   1.000  O
  O34      1.0000 0.73840  0.40590  0.73120  Biso   1.000  O
  O35      1.0000 0.90010  0.82790  0.03620  Biso   1.000  O
  O36      1.0000 0.09990  0.17210  0.96380  Biso   1.000  O
  O37      1.0000 0.20700  0.70600  0.97000  Biso   1.000  O
  O38      1.0000 0.79300  0.29400  0.03000  Biso   1.000  O
  O39      1.0000 0.19200  0.68400  0.06400  Biso   1.000  O
  O40      1.0000 0.80800  0.31600  0.93600  Biso   1.000  O
  O41      1.0000 0.92000  0.65900  0.84300  Biso   1.000  O
  O42      1.0000 0.08000  0.34100  0.15700  Biso   1.000  O
  O43      1.0000 0.70200  0.67600  0.81000  Biso   1.000  O
  O44      1.0000 0.29800  0.32400  0.19000  Biso   1.000  O
  H17      1.0000 0.15110  0.10900  0.37070  Biso   1.000  H
  H18      1.0000 0.84890  0.89100  0.62930  Biso   1.000  H
  H19      1.0000 0.83450  0.95230  0.32470  Biso   1.000  H
  H20      1.0000 0.16550  0.04770  0.67530  Biso   1.000  H
  H21      1.0000 0.29880  0.80270  0.40180  Biso   1.000  H
  H22      1.0000 0.70120  0.19730  0.59820  Biso   1.000  H
  H23      1.0000 0.51540  0.87290  0.33120  Biso   1.000  H
  H24      1.0000 0.48460  0.12710  0.66880  Biso   1.000  H
  H25      1.0000 0.89850  0.70230  0.21690  Biso   1.000  H
  H26      1.0000 0.10150  0.29770  0.78310  Biso   1.000  H
  H27      1.0000 0.95230  0.75440  0.14920  Biso   1.000  H
  H28      1.0000 0.04770  0.24560  0.85080  Biso   1.000  H
  H29      1.0000 0.35530  0.98370  0.19740  Biso   1.000  H
  H30      1.0000 0.64470  0.01630  0.80260  Biso   1.000  H
  H31      1.0000 0.21050  0.98880  0.15000  Biso   1.000  H
  H32      1.0000 0.78950  0.01120  0.85000  Biso   1.000  H
  H33      1.0000 0.08010  0.07710  0.24810  Biso   1.000  H
  H34      1.0000 0.91990  0.92290  0.75190  Biso   1.000  H
  H35      1.0000 0.96070  0.10400  0.19900  Biso   1.000  H
  H36      1.0000 0.03930  0.89600  0.80100  Biso   1.000  H
  H37      1.0000 0.71070  0.31130  0.25110  Biso   1.000  H
  H38      1.0000 0.28930  0.68870  0.74890  Biso   1.000  H
  H39      1.0000 0.71160  0.34450  0.16420  Biso   1.000  H
  H40      1.0000 0.28840  0.65550  0.83580  Biso   1.000  H
  H41      1.0000 0.18660  0.62960  0.25060  Biso   1.000  H
  H42      1.0000 0.81340  0.37040  0.74940  Biso   1.000  H
  H43      1.0000 0.32720  0.62750  0.24170  Biso   1.000  H
  H44      1.0000 0.67280  0.37250  0.75830  Biso   1.000  H
