data_image0
_cell_length_a       10.263
_cell_length_b       18.75
_cell_length_c       9.883
_cell_angle_alpha    90
_cell_angle_beta     113.24
_cell_angle_gamma    90

_symmetry_space_group_name_H-M    "P 1"
_symmetry_int_tables_number       1

loop_
  _symmetry_equiv_pos_as_xyz
  'x, y, z'

loop_
  _atom_site_label
  _atom_site_occupancy
  _atom_site_fract_x
  _atom_site_fract_y
  _atom_site_fract_z
  _atom_site_thermal_displace_type
  _atom_site_B_iso_or_equiv
  _atom_site_type_symbol
  Cu1      1.0000 0.21513  0.19199  0.43831  Biso   1.000  Cu
  Cu2      1.0000 0.78487  0.69199  0.06169  Biso   1.000  Cu
  Cu3      1.0000 0.78487  0.80801  0.56169  Biso   1.000  Cu
  Cu4      1.0000 0.21513  0.30801  0.93831  Biso   1.000  Cu
  Cu5      1.0000 0.09914  0.19015  0.08230  Biso   1.000  Cu
  Cu6      1.0000 0.90086  0.69015  0.41770  Biso   1.000  Cu
  Cu7      1.0000 0.90086  0.80985  0.91770  Biso   1.000  Cu
  Cu8      1.0000 0.09914  0.30985  0.58230  Biso   1.000  Cu
  Cu9      1.0000 0.33700  0.28305  0.28196  Biso   1.000  Cu
  Cu10     1.0000 0.66300  0.78305  0.21804  Biso   1.000  Cu
  Cu11     1.0000 0.66300  0.71695  0.71804  Biso   1.000  Cu
  Cu12     1.0000 0.33700  0.21695  0.78196  Biso   1.000  Cu
  O1       1.0000 0.26970  0.18363  0.27170  Biso   1.000  O
  O2       1.0000 0.73030  0.68363  0.22830  Biso   1.000  O
  O3       1.0000 0.73030  0.81637  0.72830  Biso   1.000  O
  O4       1.0000 0.26970  0.31637  0.77170  Biso   1.000  O
  O5       1.0000 0.16410  0.21017  0.60210  Biso   1.000  O
  O6       1.0000 0.83590  0.71017  0.89790  Biso   1.000  O
  O7       1.0000 0.83590  0.78983  0.39790  Biso   1.000  O
  O8       1.0000 0.16410  0.28983  0.10210  Biso   1.000  O
  O9       1.0000 0.18790  0.07420  0.45410  Biso   1.000  O
  O10      1.0000 0.81210  0.57420  0.04590  Biso   1.000  O
  O11      1.0000 0.81210  0.92580  0.54590  Biso   1.000  O
  O12      1.0000 0.18790  0.42580  0.95410  Biso   1.000  O
  O13      1.0000 0.02280  0.09430  0.08140  Biso   1.000  O
  O14      1.0000 0.97720  0.59430  0.41860  Biso   1.000  O
  O15      1.0000 0.97720  0.90570  0.91860  Biso   1.000  O
  O16      1.0000 0.02280  0.40570  0.58140  Biso   1.000  O
  O17      1.0000 0.41330  0.20740  0.58510  Biso   1.000  O
  O18      1.0000 0.58670  0.70740  0.91490  Biso   1.000  O
  O19      1.0000 0.58670  0.79260  0.41490  Biso   1.000  O
  O20      1.0000 0.41330  0.29260  0.08510  Biso   1.000  O
  O21      1.0000 0.51130  0.26600  0.45190  Biso   1.000  O
  O22      1.0000 0.48870  0.76600  0.04810  Biso   1.000  O
  O23      1.0000 0.48870  0.73400  0.54810  Biso   1.000  O
  O24      1.0000 0.51130  0.23400  0.95190  Biso   1.000  O
  C1       1.0000 0.51810  0.23680  0.56880  Biso   1.000  C
  C2       1.0000 0.48190  0.73680  0.93120  Biso   1.000  C
  C3       1.0000 0.48190  0.76320  0.43120  Biso   1.000  C
  C4       1.0000 0.51810  0.26320  0.06880  Biso   1.000  C
  C5       1.0000 0.65600  0.23720  0.69940  Biso   1.000  C
  C6       1.0000 0.34400  0.73720  0.80060  Biso   1.000  C
  C7       1.0000 0.34400  0.76280  0.30060  Biso   1.000  C
  C8       1.0000 0.65600  0.26280  0.19940  Biso   1.000  C
  H1       1.0000 0.66980  0.19060  0.74580  Biso   1.000  H
  H2       1.0000 0.33020  0.69060  0.75420  Biso   1.000  H
  H3       1.0000 0.33020  0.80940  0.25420  Biso   1.000  H
  H4       1.0000 0.66980  0.30940  0.24580  Biso   1.000  H
  H5       1.0000 0.64990  0.27170  0.76990  Biso   1.000  H
  H6       1.0000 0.35010  0.77170  0.73010  Biso   1.000  H
  H7       1.0000 0.35010  0.72830  0.23010  Biso   1.000  H
  H8       1.0000 0.64990  0.22830  0.26990  Biso   1.000  H
  C9       1.0000 0.78340  0.25440  0.66720  Biso   1.000  C
  C10      1.0000 0.21660  0.75440  0.83280  Biso   1.000  C
  C11      1.0000 0.21660  0.74560  0.33280  Biso   1.000  C
  C12      1.0000 0.78340  0.24560  0.16720  Biso   1.000  C
  H9       1.0000 0.77160  0.30180  0.62470  Biso   1.000  H
  H10      1.0000 0.22840  0.80180  0.87530  Biso   1.000  H
  H11      1.0000 0.22840  0.69820  0.37530  Biso   1.000  H
  H12      1.0000 0.77160  0.19820  0.12470  Biso   1.000  H
  H13      1.0000 0.78770  0.22110  0.59400  Biso   1.000  H
  H14      1.0000 0.21230  0.72110  0.90600  Biso   1.000  H
  H15      1.0000 0.21230  0.77890  0.40600  Biso   1.000  H
  H16      1.0000 0.78770  0.27890  0.09400  Biso   1.000  H
  C13      1.0000 0.92200  0.25170  0.79930  Biso   1.000  C
  C14      1.0000 0.07800  0.75170  0.70070  Biso   1.000  C
  C15      1.0000 0.07800  0.74830  0.20070  Biso   1.000  C
  C16      1.0000 0.92200  0.24830  0.29930  Biso   1.000  C
  O25      1.0000 0.93070  0.21330  0.90580  Biso   1.000  O
  O26      1.0000 0.06930  0.71330  0.59420  Biso   1.000  O
  O27      1.0000 0.06930  0.78670  0.09420  Biso   1.000  O
  O28      1.0000 0.93070  0.28670  0.40580  Biso   1.000  O
  O29      1.0000 0.02250  0.28820  0.79080  Biso   1.000  O
  O30      1.0000 0.97750  0.78820  0.70920  Biso   1.000  O
  O31      1.0000 0.97750  0.71180  0.20920  Biso   1.000  O
  O32      1.0000 0.02250  0.21180  0.29080  Biso   1.000  O
  O33      1.0000 0.23610  0.15420  0.94530  Biso   1.000  O
  O34      1.0000 0.76390  0.65420  0.55470  Biso   1.000  O
  O35      1.0000 0.76390  0.84580  0.05470  Biso   1.000  O
  O36      1.0000 0.23610  0.34580  0.44530  Biso   1.000  O
  O37      1.0000 0.34930  0.11284  0.81430  Biso   1.000  O
  O38      1.0000 0.65070  0.61284  0.68570  Biso   1.000  O
  O39      1.0000 0.65070  0.88716  0.18570  Biso   1.000  O
  O40      1.0000 0.34930  0.38716  0.31430  Biso   1.000  O
  C17      1.0000 0.28700  0.10420  0.90110  Biso   1.000  C
  C18      1.0000 0.71300  0.60420  0.59890  Biso   1.000  C
  C19      1.0000 0.71300  0.89580  0.09890  Biso   1.000  C
  C20      1.0000 0.28700  0.39580  0.40110  Biso   1.000  C
  C21      1.0000 0.27960  0.02890  0.95550  Biso   1.000  C
  C22      1.0000 0.72040  0.52890  0.54450  Biso   1.000  C
  C23      1.0000 0.72040  0.97110  0.04450  Biso   1.000  C
  C24      1.0000 0.27960  0.47110  0.45550  Biso   1.000  C
  H17      1.0000 0.18370  0.02050  0.94760  Biso   1.000  H
  H18      1.0000 0.81630  0.52050  0.55240  Biso   1.000  H
  H19      1.0000 0.81630  0.97950  0.05240  Biso   1.000  H
  H20      1.0000 0.18370  0.47950  0.44760  Biso   1.000  H
  H21      1.0000 0.34150  0.02650  0.05910  Biso   1.000  H
  H22      1.0000 0.65850  0.52650  0.44090  Biso   1.000  H
  H23      1.0000 0.65850  0.97350  0.94090  Biso   1.000  H
  H24      1.0000 0.34150  0.47350  0.55910  Biso   1.000  H
  C25      1.0000 0.32000  0.96850  0.87580  Biso   1.000  C
  C26      1.0000 0.68000  0.46850  0.62420  Biso   1.000  C
  C27      1.0000 0.68000  0.03150  0.12420  Biso   1.000  C
  C28      1.0000 0.32000  0.53150  0.37580  Biso   1.000  C
  H25      1.0000 0.40720  0.98150  0.86560  Biso   1.000  H
  H26      1.0000 0.59280  0.48150  0.63440  Biso   1.000  H
  H27      1.0000 0.59280  0.01850  0.13440  Biso   1.000  H
  H28      1.0000 0.40720  0.51850  0.36560  Biso   1.000  H
  H29      1.0000 0.33930  0.92610  0.93690  Biso   1.000  H
  H30      1.0000 0.66070  0.42610  0.56310  Biso   1.000  H
  H31      1.0000 0.66070  0.07390  0.06310  Biso   1.000  H
  H32      1.0000 0.33930  0.57390  0.43690  Biso   1.000  H
  C29      1.0000 0.20980  0.95020  0.72500  Biso   1.000  C
  C30      1.0000 0.79020  0.45020  0.77500  Biso   1.000  C
  C31      1.0000 0.79020  0.04980  0.27500  Biso   1.000  C
  C32      1.0000 0.20980  0.54980  0.22500  Biso   1.000  C
  O41      1.0000 0.08770  0.97430  0.68860  Biso   1.000  O
  O42      1.0000 0.91230  0.47430  0.81140  Biso   1.000  O
  O43      1.0000 0.91230  0.02570  0.31140  Biso   1.000  O
  O44      1.0000 0.08770  0.52570  0.18860  Biso   1.000  O
  O45      1.0000 0.24590  0.90980  0.64700  Biso   1.000  O
  O46      1.0000 0.75410  0.40980  0.85300  Biso   1.000  O
  O47      1.0000 0.75410  0.09020  0.35300  Biso   1.000  O
  O48      1.0000 0.24590  0.59020  0.14700  Biso   1.000  O
  O49      1.0000 0.50610  0.91100  0.63070  Biso   1.000  O
  O50      1.0000 0.49390  0.41100  0.86930  Biso   1.000  O
  O51      1.0000 0.49390  0.08900  0.36930  Biso   1.000  O
  O52      1.0000 0.50610  0.58900  0.13070  Biso   1.000  O
  O53      1.0000 0.53230  0.05760  0.67540  Biso   1.000  O
  O54      1.0000 0.46770  0.55760  0.82460  Biso   1.000  O
  O55      1.0000 0.46770  0.94240  0.32460  Biso   1.000  O
  O56      1.0000 0.53230  0.44240  0.17540  Biso   1.000  O
  O57      1.0000 0.97270  0.11170  0.61590  Biso   1.000  O
  O58      1.0000 0.02730  0.61170  0.88410  Biso   1.000  O
  O59      1.0000 0.02730  0.88830  0.38410  Biso   1.000  O
  O60      1.0000 0.97270  0.38830  0.11590  Biso   1.000  O
  O61      1.0000 0.82870  0.04560  0.78410  Biso   1.000  O
  O62      1.0000 0.17130  0.54560  0.71590  Biso   1.000  O
  O63      1.0000 0.17130  0.95440  0.21590  Biso   1.000  O
  O64      1.0000 0.82870  0.45440  0.28410  Biso   1.000  O
  H33      1.0000 0.34170  0.15380  0.29580  Biso   1.000  H
  H34      1.0000 0.65830  0.65380  0.20420  Biso   1.000  H
  H35      1.0000 0.65830  0.84620  0.70420  Biso   1.000  H
  H36      1.0000 0.34170  0.34620  0.79580  Biso   1.000  H
  H37      1.0000 0.09480  0.17630  0.60980  Biso   1.000  H
  H38      1.0000 0.90520  0.67630  0.89020  Biso   1.000  H
  H39      1.0000 0.90520  0.82370  0.39020  Biso   1.000  H
  H40      1.0000 0.09480  0.32370  0.10980  Biso   1.000  H
  H41      1.0000 0.27530  0.05890  0.48140  Biso   1.000  H
  H42      1.0000 0.72470  0.55890  0.01860  Biso   1.000  H
  H43      1.0000 0.72470  0.94110  0.51860  Biso   1.000  H
  H44      1.0000 0.27530  0.44110  0.98140  Biso   1.000  H
  H45      1.0000 0.11880  0.04640  0.39730  Biso   1.000  H
  H46      1.0000 0.88120  0.54640  0.10270  Biso   1.000  H
  H47      1.0000 0.88120  0.95360  0.60270  Biso   1.000  H
  H48      1.0000 0.11880  0.45360  0.89730  Biso   1.000  H
  H49      1.0000 0.09150  0.06310  0.11320  Biso   1.000  H
  H50      1.0000 0.90850  0.56310  0.38680  Biso   1.000  H
  H51      1.0000 0.90850  0.93690  0.88680  Biso   1.000  H
  H52      1.0000 0.09150  0.43690  0.61320  Biso   1.000  H
  H53      1.0000 0.98120  0.07670  0.13600  Biso   1.000  H
  H54      1.0000 0.01880  0.57670  0.36400  Biso   1.000  H
  H55      1.0000 0.01880  0.92330  0.86400  Biso   1.000  H
  H56      1.0000 0.98120  0.42330  0.63600  Biso   1.000  H
  H57      1.0000 0.90550  0.13010  0.53880  Biso   1.000  H
  H58      1.0000 0.09450  0.63010  0.96120  Biso   1.000  H
  H59      1.0000 0.09450  0.86990  0.46120  Biso   1.000  H
  H60      1.0000 0.90550  0.36990  0.03880  Biso   1.000  H
  H61      1.0000 0.92940  0.09180  0.66570  Biso   1.000  H
  H62      1.0000 0.07060  0.59180  0.83430  Biso   1.000  H
  H63      1.0000 0.07060  0.90820  0.33430  Biso   1.000  H
  H64      1.0000 0.92940  0.40820  0.16570  Biso   1.000  H
  H65      1.0000 0.49250  0.91990  0.53980  Biso   1.000  H
  H66      1.0000 0.50750  0.41990  0.96020  Biso   1.000  H
  H67      1.0000 0.50750  0.08010  0.46020  Biso   1.000  H
  H68      1.0000 0.49250  0.58010  0.03980  Biso   1.000  H
  H69      1.0000 0.42390  0.91010  0.63550  Biso   1.000  H
  H70      1.0000 0.57610  0.41010  0.86450  Biso   1.000  H
  H71      1.0000 0.57610  0.08990  0.36450  Biso   1.000  H
  H72      1.0000 0.42390  0.58990  0.13550  Biso   1.000  H
  H73      1.0000 0.52420  0.01200  0.66310  Biso   1.000  H
  H74      1.0000 0.47580  0.51200  0.83690  Biso   1.000  H
  H75      1.0000 0.47580  0.98800  0.33690  Biso   1.000  H
  H76      1.0000 0.52420  0.48800  0.16310  Biso   1.000  H
  H77      1.0000 0.46320  0.08180  0.67710  Biso   1.000  H
  H78      1.0000 0.53680  0.58180  0.82290  Biso   1.000  H
  H79      1.0000 0.53680  0.91820  0.32290  Biso   1.000  H
  H80      1.0000 0.46320  0.41820  0.17710  Biso   1.000  H
  H81      1.0000 0.88520  0.05940  0.87210  Biso   1.000  H
  H82      1.0000 0.11480  0.55940  0.62790  Biso   1.000  H
  H83      1.0000 0.11480  0.94060  0.12790  Biso   1.000  H
  H84      1.0000 0.88520  0.44060  0.37210  Biso   1.000  H
  H85      1.0000 0.74810  0.06520  0.76620  Biso   1.000  H
  H86      1.0000 0.25190  0.56520  0.73380  Biso   1.000  H
  H87      1.0000 0.25190  0.93480  0.23380  Biso   1.000  H
  H88      1.0000 0.74810  0.43480  0.26620  Biso   1.000  H
