data_image0
_cell_length_a       8.112
_cell_length_b       8.651
_cell_length_c       11.318
_cell_angle_alpha    80.07
_cell_angle_beta     84.18
_cell_angle_gamma    80.23

_symmetry_space_group_name_H-M    "P 1"
_symmetry_int_tables_number       1

loop_
  _symmetry_equiv_pos_as_xyz
  'x, y, z'

loop_
  _atom_site_label
  _atom_site_occupancy
  _atom_site_fract_x
  _atom_site_fract_y
  _atom_site_fract_z
  _atom_site_thermal_displace_type
  _atom_site_B_iso_or_equiv
  _atom_site_type_symbol
  Cu1      1.0000 0.23175  0.75665  0.03166  Biso   1.000  Cu
  Cu2      1.0000 0.76825  0.24335  0.96834  Biso   1.000  Cu
  Cu3      1.0000 0.86343  0.86590  0.02335  Biso   1.000  Cu
  Cu4      1.0000 0.13657  0.13410  0.97665  Biso   1.000  Cu
  Cu5      1.0000 0.38008  0.38893  0.98486  Biso   1.000  Cu
  Cu6      1.0000 0.61992  0.61107  0.01514  Biso   1.000  Cu
  Cu7      1.0000 0.00000  0.50000  0.00000  Biso   1.000  Cu
  Cu8      1.0000 0.50000  0.00000  0.00000  Biso   1.000  Cu
  O1       1.0000 0.40620  0.76010  0.14370  Biso   1.000  O
  O2       1.0000 0.59380  0.23990  0.85630  Biso   1.000  O
  O3       1.0000 0.28570  0.63610  0.30880  Biso   1.000  O
  O4       1.0000 0.71430  0.36390  0.69120  Biso   1.000  O
  C1       1.0000 0.39430  0.71410  0.25710  Biso   1.000  C
  C2       1.0000 0.60570  0.28590  0.74290  Biso   1.000  C
  C3       1.0000 0.52340  0.75550  0.32810  Biso   1.000  C
  C4       1.0000 0.47660  0.24450  0.67190  Biso   1.000  C
  H1       1.0000 0.54600  0.86110  0.29360  Biso   1.000  H
  H2       1.0000 0.45400  0.13890  0.70640  Biso   1.000  H
  H3       1.0000 0.62660  0.68230  0.31780  Biso   1.000  H
  H4       1.0000 0.37340  0.31770  0.68220  Biso   1.000  H
  C5       1.0000 0.47890  0.75200  0.46130  Biso   1.000  C
  C6       1.0000 0.52110  0.24800  0.53870  Biso   1.000  C
  H5       1.0000 0.45780  0.64650  0.49780  Biso   1.000  H
  H6       1.0000 0.54220  0.35350  0.50220  Biso   1.000  H
  H7       1.0000 0.37710  0.82620  0.47360  Biso   1.000  H
  H8       1.0000 0.62290  0.17380  0.52640  Biso   1.000  H
  C7       1.0000 0.61980  0.79570  0.52190  Biso   1.000  C
  C8       1.0000 0.38020  0.20430  0.47810  Biso   1.000  C
  H9       1.0000 0.71760  0.71530  0.51410  Biso   1.000  H
  H10      1.0000 0.28240  0.28470  0.48590  Biso   1.000  H
  H11      1.0000 0.64820  0.89530  0.47780  Biso   1.000  H
  H12      1.0000 0.35180  0.10470  0.52220  Biso   1.000  H
  C9       1.0000 0.58710  0.81290  0.65350  Biso   1.000  C
  C10      1.0000 0.41290  0.18710  0.34650  Biso   1.000  C
  O5       1.0000 0.70620  0.84570  0.70340  Biso   1.000  O
  O6       1.0000 0.29380  0.15430  0.29660  Biso   1.000  O
  O7       1.0000 0.44770  0.79330  0.70770  Biso   1.000  O
  O8       1.0000 0.55230  0.20670  0.29230  Biso   1.000  O
  O9       1.0000 0.31130  0.97470  0.91580  Biso   1.000  O
  O10      1.0000 0.68870  0.02530  0.08420  Biso   1.000  O
  O11      1.0000 0.40860  0.61980  0.94320  Biso   1.000  O
  O12      1.0000 0.59140  0.38020  0.05680  Biso   1.000  O
  O13      1.0000 0.04380  0.72060  0.94440  Biso   1.000  O
  O14      1.0000 0.95620  0.27940  0.05560  Biso   1.000  O
  O15      1.0000 0.66620  0.83070  0.94330  Biso   1.000  O
  O16      1.0000 0.33380  0.16930  0.05670  Biso   1.000  O
  O17      1.0000 0.05240  0.89100  0.10640  Biso   1.000  O
  O18      1.0000 0.94760  0.10900  0.89360  Biso   1.000  O
  O19      1.0000 0.18620  0.40720  0.89900  Biso   1.000  O
  O20      1.0000 0.81380  0.59280  0.10100  Biso   1.000  O
  O21      1.0000 0.18370  0.46160  0.16590  Biso   1.000  O
  O22      1.0000 0.81630  0.53840  0.83410  Biso   1.000  O
  O23      1.0000 0.97460  0.02030  0.65130  Biso   1.000  O
  O24      1.0000 0.02540  0.97970  0.34870  Biso   1.000  O
  O25      1.0000 0.16490  0.67840  0.70890  Biso   1.000  O
  O26      1.0000 0.83510  0.32160  0.29110  Biso   1.000  O
  O27      1.0000 0.06200  0.67900  0.49100  Biso   1.000  O
  O28      1.0000 0.93800  0.32100  0.50900  Biso   1.000  O
  O29      1.0000 0.05500  0.61700  0.50800  Biso   1.000  O
  O30      1.0000 0.94500  0.38300  0.49200  Biso   1.000  O
  H13      1.0000 0.33360  0.96330  0.83940  Biso   1.000  H
  H14      1.0000 0.66640  0.03670  0.16060  Biso   1.000  H
  H15      1.0000 0.40920  0.66110  0.87370  Biso   1.000  H
  H16      1.0000 0.59080  0.33890  0.12630  Biso   1.000  H
  H17      1.0000 0.08160  0.72150  0.87240  Biso   1.000  H
  H18      1.0000 0.91840  0.27850  0.12760  Biso   1.000  H
  H19      1.0000 0.64810  0.83480  0.87560  Biso   1.000  H
  H20      1.0000 0.35190  0.16520  0.12440  Biso   1.000  H
  H21      1.0000 0.04040  0.88630  0.17530  Biso   1.000  H
  H22      1.0000 0.95960  0.11370  0.82470  Biso   1.000  H
  H23      1.0000 0.17990  0.48490  0.84400  Biso   1.000  H
  H24      1.0000 0.82010  0.51510  0.15600  Biso   1.000  H
  H25      1.0000 0.20250  0.37630  0.20460  Biso   1.000  H
  H26      1.0000 0.79750  0.62370  0.79540  Biso   1.000  H
  H27      1.0000 0.19810  0.52900  0.21030  Biso   1.000  H
  H28      1.0000 0.80190  0.47100  0.78970  Biso   1.000  H
  H29      1.0000 0.90250  0.98130  0.62170  Biso   1.000  H
  H30      1.0000 0.09750  0.01870  0.37830  Biso   1.000  H
  H31      1.0000 0.04890  0.07780  0.61190  Biso   1.000  H
  H32      1.0000 0.95110  0.92220  0.38810  Biso   1.000  H
  H33      1.0000 0.15910  0.61650  0.65720  Biso   1.000  H
  H34      1.0000 0.84090  0.38350  0.34280  Biso   1.000  H
  H35      1.0000 0.14660  0.77350  0.69690  Biso   1.000  H
  H36      1.0000 0.85340  0.22650  0.30310  Biso   1.000  H
  H37      1.0000 0.11770  0.66600  0.43620  Biso   1.000  H
  H38      1.0000 0.88230  0.33400  0.56380  Biso   1.000  H
  H39      1.0000 0.03270  0.56040  0.50870  Biso   1.000  H
  H40      1.0000 0.96730  0.43960  0.49130  Biso   1.000  H
