data_image0
_cell_length_a       3.888
_cell_length_b       8.641
_cell_length_c       17.944
_cell_angle_alpha    90
_cell_angle_beta     92.63
_cell_angle_gamma    90

_symmetry_space_group_name_H-M    "P 1"
_symmetry_int_tables_number       1

loop_
  _symmetry_equiv_pos_as_xyz
  'x, y, z'

loop_
  _atom_site_label
  _atom_site_occupancy
  _atom_site_fract_x
  _atom_site_fract_y
  _atom_site_fract_z
  _atom_site_thermal_displace_type
  _atom_site_B_iso_or_equiv
  _atom_site_type_symbol
  Cu1      1.0000 0.70120  0.17220  0.76090  Biso   1.000  Cu
  Cu2      1.0000 0.70120  0.82780  0.26090  Biso   1.000  Cu
  Br1      1.0000 0.13260  0.02730  0.83180  Biso   1.000  Br
  Br2      1.0000 0.13260  0.97270  0.33180  Biso   1.000  Br
  N1       1.0000 0.70910  0.36000  0.82860  Biso   1.000  N
  N2       1.0000 0.70910  0.64000  0.32860  Biso   1.000  N
  N3       1.0000 0.46040  0.31090  0.69440  Biso   1.000  N
  N4       1.0000 0.46040  0.68910  0.19440  Biso   1.000  N
  N5       1.0000 0.65470  0.02820  0.67230  Biso   1.000  N
  N6       1.0000 0.65470  0.97180  0.17230  Biso   1.000  N
  O1       1.0000 0.21200  0.55950  0.68650  Biso   1.000  O
  O2       1.0000 0.21200  0.44050  0.18650  Biso   1.000  O
  O3       1.0000 0.20610  0.33130  0.57370  Biso   1.000  O
  O4       1.0000 0.20610  0.66870  0.07370  Biso   1.000  O
  C1       1.0000 0.84820  0.37600  0.89710  Biso   1.000  C
  C2       1.0000 0.84820  0.62400  0.39710  Biso   1.000  C
  C3       1.0000 0.83530  0.50860  0.93790  Biso   1.000  C
  C4       1.0000 0.83530  0.49140  0.43790  Biso   1.000  C
  C5       1.0000 0.67780  0.63880  0.90310  Biso   1.000  C
  C6       1.0000 0.67780  0.36120  0.40310  Biso   1.000  C
  C7       1.0000 0.52520  0.62610  0.83360  Biso   1.000  C
  C8       1.0000 0.52520  0.37390  0.33360  Biso   1.000  C
  C9       1.0000 0.55120  0.48440  0.79650  Biso   1.000  C
  C10      1.0000 0.55120  0.51560  0.29650  Biso   1.000  C
  C11      1.0000 0.38280  0.45630  0.71890  Biso   1.000  C
  C12      1.0000 0.38280  0.54370  0.21890  Biso   1.000  C
  C13      1.0000 0.35540  0.25980  0.62320  Biso   1.000  C
  C14      1.0000 0.35540  0.74020  0.12320  Biso   1.000  C
  C15      1.0000 0.48150  0.09640  0.61260  Biso   1.000  C
  C16      1.0000 0.48150  0.90360  0.11260  Biso   1.000  C
  C17      1.0000 0.40860  0.01570  0.54670  Biso   1.000  C
  C18      1.0000 0.40860  0.98430  0.04670  Biso   1.000  C
  C19      1.0000 0.52220  0.86500  0.54050  Biso   1.000  C
  C20      1.0000 0.52220  0.13500  0.04050  Biso   1.000  C
  C21      1.0000 0.69290  0.79940  0.60210  Biso   1.000  C
  C22      1.0000 0.69290  0.20060  0.10210  Biso   1.000  C
  C23      1.0000 0.75680  0.88360  0.66550  Biso   1.000  C
  C24      1.0000 0.75680  0.11640  0.16550  Biso   1.000  C
  H1       1.0000 0.96500  0.27200  0.92100  Biso   1.000  H
  H2       1.0000 0.96500  0.72800  0.42100  Biso   1.000  H
  H3       1.0000 0.94500  0.51600  0.99400  Biso   1.000  H
  H4       1.0000 0.94500  0.48400  0.49400  Biso   1.000  H
  H5       1.0000 0.62500  0.71300  0.93700  Biso   1.000  H
  H6       1.0000 0.62500  0.28700  0.43700  Biso   1.000  H
  H7       1.0000 0.37800  0.70600  0.80400  Biso   1.000  H
  H8       1.0000 0.37800  0.29400  0.30400  Biso   1.000  H
  H9       1.0000 0.28300  0.06300  0.50400  Biso   1.000  H
  H10      1.0000 0.28300  0.93700  0.00400  Biso   1.000  H
  H11      1.0000 0.48400  0.82200  0.49000  Biso   1.000  H
  H12      1.0000 0.48400  0.17800  0.99000  Biso   1.000  H
  H13      1.0000 0.77800  0.68000  0.60000  Biso   1.000  H
  H14      1.0000 0.77800  0.32000  0.10000  Biso   1.000  H
  H15      1.0000 0.86100  0.84600  0.70100  Biso   1.000  H
  H16      1.0000 0.86100  0.15400  0.20100  Biso   1.000  H
