data_image0
_cell_length_a       3.7319
_cell_length_b       8.4825
_cell_length_c       18.0255
_cell_angle_alpha    90
_cell_angle_beta     93.081
_cell_angle_gamma    90

_symmetry_space_group_name_H-M    "P 1"
_symmetry_int_tables_number       1

loop_
  _symmetry_equiv_pos_as_xyz
  'x, y, z'

loop_
  _atom_site_label
  _atom_site_occupancy
  _atom_site_fract_x
  _atom_site_fract_y
  _atom_site_fract_z
  _atom_site_thermal_displace_type
  _atom_site_B_iso_or_equiv
  _atom_site_type_symbol
  Cu1      1.0000 0.97679  0.83187  0.74466  Biso   1.000  Cu
  Cu2      1.0000 0.97679  0.16813  0.24466  Biso   1.000  Cu
  Cl1      1.0000 0.54800  0.97049  0.68019  Biso   1.000  Cl
  Cl2      1.0000 0.54800  0.02951  0.18019  Biso   1.000  Cl
  N1       1.0000 0.03140  0.97330  0.83490  Biso   1.000  N
  N2       1.0000 0.03140  0.02670  0.33490  Biso   1.000  N
  N3       1.0000 0.96580  0.64320  0.67740  Biso   1.000  N
  N4       1.0000 0.96580  0.35680  0.17740  Biso   1.000  N
  N5       1.0000 0.22920  0.68480  0.80990  Biso   1.000  N
  N6       1.0000 0.22920  0.31520  0.30990  Biso   1.000  N
  C1       1.0000 0.92690  0.12030  0.84140  Biso   1.000  C
  C2       1.0000 0.92690  0.87970  0.34140  Biso   1.000  C
  H1       1.0000 0.80340  0.16950  0.80010  Biso   1.000  H
  H2       1.0000 0.80340  0.83050  0.30010  Biso   1.000  H
  C3       1.0000 0.99050  0.20730  0.90670  Biso   1.000  C
  C4       1.0000 0.99050  0.79270  0.40670  Biso   1.000  C
  H3       1.0000 0.91750  0.31430  0.91010  Biso   1.000  H
  H4       1.0000 0.91750  0.68570  0.41010  Biso   1.000  H
  C5       1.0000 0.16490  0.13080  0.96660  Biso   1.000  C
  C6       1.0000 0.16490  0.86920  0.46660  Biso   1.000  C
  H5       1.0000 0.20750  0.18500  0.01230  Biso   1.000  H
  H6       1.0000 0.20750  0.81500  0.51230  Biso   1.000  H
  C7       1.0000 0.27600  0.97740  0.96010  Biso   1.000  C
  C8       1.0000 0.27600  0.02260  0.46010  Biso   1.000  C
  H7       1.0000 0.39810  0.92510  0.00060  Biso   1.000  H
  H8       1.0000 0.39810  0.07490  0.50060  Biso   1.000  H
  C9       1.0000 0.20580  0.90080  0.89310  Biso   1.000  C
  C10      1.0000 0.20580  0.09920  0.39310  Biso   1.000  C
  C11      1.0000 0.12790  0.51540  0.70770  Biso   1.000  C
  C12      1.0000 0.12790  0.48460  0.20770  Biso   1.000  C
  C13      1.0000 0.13670  0.37220  0.66900  Biso   1.000  C
  C14      1.0000 0.13670  0.62780  0.16900  Biso   1.000  C
  H9       1.0000 0.24590  0.28170  0.69150  Biso   1.000  H
  H10      1.0000 0.24590  0.71830  0.19150  Biso   1.000  H
  C15      1.0000 0.98400  0.36520  0.59770  Biso   1.000  C
  C16      1.0000 0.98400  0.63480  0.09770  Biso   1.000  C
  H11      1.0000 0.98680  0.26920  0.57060  Biso   1.000  H
  H12      1.0000 0.98680  0.73080  0.07060  Biso   1.000  H
  C17      1.0000 0.83000  0.49550  0.56650  Biso   1.000  C
  C18      1.0000 0.83000  0.50450  0.06650  Biso   1.000  C
  H13      1.0000 0.72790  0.49290  0.51710  Biso   1.000  H
  H14      1.0000 0.72790  0.50710  0.01710  Biso   1.000  H
  C19      1.0000 0.82450  0.63290  0.60830  Biso   1.000  C
  C20      1.0000 0.82450  0.36710  0.10830  Biso   1.000  C
  H15      1.0000 0.71430  0.72380  0.58640  Biso   1.000  H
  H16      1.0000 0.71430  0.27620  0.08640  Biso   1.000  H
  C21      1.0000 0.32630  0.73380  0.88110  Biso   1.000  C
  C22      1.0000 0.32630  0.26620  0.38110  Biso   1.000  C
  C23      1.0000 0.29630  0.53620  0.78430  Biso   1.000  C
  C24      1.0000 0.29630  0.46380  0.28430  Biso   1.000  C
  O1       1.0000 0.49000  0.66250  0.93010  Biso   1.000  O
  O2       1.0000 0.49000  0.33750  0.43010  Biso   1.000  O
  O3       1.0000 0.46910  0.43040  0.81520  Biso   1.000  O
  O4       1.0000 0.46910  0.56960  0.31520  Biso   1.000  O
