data_image0
_cell_length_a       13.2309
_cell_length_b       12.6158
_cell_length_c       8.9271
_cell_angle_alpha    90
_cell_angle_beta     105.862
_cell_angle_gamma    90

_symmetry_space_group_name_H-M    "P 1"
_symmetry_int_tables_number       1

loop_
  _symmetry_equiv_pos_as_xyz
  'x, y, z'

loop_
  _atom_site_label
  _atom_site_occupancy
  _atom_site_fract_x
  _atom_site_fract_y
  _atom_site_fract_z
  _atom_site_thermal_displace_type
  _atom_site_B_iso_or_equiv
  _atom_site_type_symbol
  Cu1      1.0000 0.50000  0.50000  0.50000  Biso   1.000  Cu
  Cu2      1.0000 0.50000  0.00000  0.00000  Biso   1.000  Cu
  C1       1.0000 0.67033  0.03843  0.59624  Biso   1.000  C
  C2       1.0000 0.32967  0.53843  0.90376  Biso   1.000  C
  C3       1.0000 0.32967  0.96157  0.40376  Biso   1.000  C
  C4       1.0000 0.67033  0.46157  0.09624  Biso   1.000  C
  C5       1.0000 0.68514  0.94719  0.68760  Biso   1.000  C
  C6       1.0000 0.31486  0.44719  0.81240  Biso   1.000  C
  C7       1.0000 0.31486  0.05281  0.31240  Biso   1.000  C
  C8       1.0000 0.68514  0.55281  0.18760  Biso   1.000  C
  C9       1.0000 0.63278  0.93726  0.80217  Biso   1.000  C
  C10      1.0000 0.36722  0.43726  0.69783  Biso   1.000  C
  C11      1.0000 0.36722  0.06274  0.19783  Biso   1.000  C
  C12      1.0000 0.63278  0.56274  0.30217  Biso   1.000  C
  C13      1.0000 0.60229  0.11720  0.62032  Biso   1.000  C
  C14      1.0000 0.39771  0.61720  0.87968  Biso   1.000  C
  C15      1.0000 0.39771  0.88280  0.37968  Biso   1.000  C
  C16      1.0000 0.60229  0.38280  0.12032  Biso   1.000  C
  C17      1.0000 0.55216  0.10056  0.73675  Biso   1.000  C
  C18      1.0000 0.44784  0.60056  0.76325  Biso   1.000  C
  C19      1.0000 0.44784  0.89944  0.26325  Biso   1.000  C
  C20      1.0000 0.55216  0.39944  0.23675  Biso   1.000  C
  C21      1.0000 0.58048  0.21684  0.52267  Biso   1.000  C
  C22      1.0000 0.41952  0.71684  0.97733  Biso   1.000  C
  C23      1.0000 0.41952  0.78316  0.47733  Biso   1.000  C
  C24      1.0000 0.58048  0.28316  0.02267  Biso   1.000  C
  O1       1.0000 0.55263  0.30455  0.60284  Biso   1.000  O
  O2       1.0000 0.44737  0.80455  0.89716  Biso   1.000  O
  O3       1.0000 0.44737  0.69545  0.39716  Biso   1.000  O
  O4       1.0000 0.55263  0.19545  0.10284  Biso   1.000  O
  N1       1.0000 0.56760  0.01320  0.82606  Biso   1.000  N
  N2       1.0000 0.43240  0.51320  0.67394  Biso   1.000  N
  N3       1.0000 0.43240  0.98680  0.17394  Biso   1.000  N
  N4       1.0000 0.56760  0.48680  0.32606  Biso   1.000  N
  H1       1.0000 0.71155  0.04905  0.50694  Biso   1.000  H
  H2       1.0000 0.28845  0.54905  0.99306  Biso   1.000  H
  H3       1.0000 0.28845  0.95095  0.49306  Biso   1.000  H
  H4       1.0000 0.71155  0.45095  0.00694  Biso   1.000  H
  H5       1.0000 0.73761  0.88430  0.67204  Biso   1.000  H
  H6       1.0000 0.26239  0.38430  0.82796  Biso   1.000  H
  H7       1.0000 0.26239  0.11570  0.32796  Biso   1.000  H
  H8       1.0000 0.73761  0.61570  0.17204  Biso   1.000  H
  H9       1.0000 0.64183  0.86890  0.87861  Biso   1.000  H
  H10      1.0000 0.35817  0.36890  0.62139  Biso   1.000  H
  H11      1.0000 0.35817  0.13110  0.12139  Biso   1.000  H
  H12      1.0000 0.64183  0.63110  0.37861  Biso   1.000  H
  H13      1.0000 0.49835  0.15909  0.76035  Biso   1.000  H
  H14      1.0000 0.50165  0.65909  0.73965  Biso   1.000  H
  H15      1.0000 0.50165  0.84091  0.23965  Biso   1.000  H
  H16      1.0000 0.49835  0.34091  0.26035  Biso   1.000  H
  H17      1.0000 0.64886  0.23483  0.47924  Biso   1.000  H
  H18      1.0000 0.35114  0.73483  0.02076  Biso   1.000  H
  H19      1.0000 0.35114  0.76517  0.52076  Biso   1.000  H
  H20      1.0000 0.64886  0.26517  0.97924  Biso   1.000  H
  H21      1.0000 0.51454  0.20093  0.41929  Biso   1.000  H
  H22      1.0000 0.48546  0.70093  0.08071  Biso   1.000  H
  H23      1.0000 0.48546  0.79907  0.58071  Biso   1.000  H
  H24      1.0000 0.51454  0.29907  0.91929  Biso   1.000  H
  H25      1.0000 0.61875  0.34541  0.65448  Biso   1.000  H
  H26      1.0000 0.38125  0.84541  0.84552  Biso   1.000  H
  H27      1.0000 0.38125  0.65459  0.34552  Biso   1.000  H
  H28      1.0000 0.61875  0.15459  0.15448  Biso   1.000  H
  C25      1.0000 0.77470  0.67851  0.87804  Biso   1.000  C
  C26      1.0000 0.22530  0.17851  0.62196  Biso   1.000  C
  C27      1.0000 0.22530  0.32149  0.12196  Biso   1.000  C
  C28      1.0000 0.77470  0.82149  0.37804  Biso   1.000  C
  C29      1.0000 0.85294  0.74503  0.96256  Biso   1.000  C
  C30      1.0000 0.14706  0.24503  0.53744  Biso   1.000  C
  C31      1.0000 0.14706  0.25497  0.03744  Biso   1.000  C
  C32      1.0000 0.85294  0.75497  0.46256  Biso   1.000  C
  C33      1.0000 0.79824  0.58841  0.80224  Biso   1.000  C
  C34      1.0000 0.20176  0.08841  0.69776  Biso   1.000  C
  C35      1.0000 0.20176  0.41159  0.19776  Biso   1.000  C
  C36      1.0000 0.79824  0.91159  0.30224  Biso   1.000  C
  C37      1.0000 0.95661  0.71956  0.96448  Biso   1.000  C
  C38      1.0000 0.04339  0.21956  0.53552  Biso   1.000  C
  C39      1.0000 0.04339  0.28044  0.03552  Biso   1.000  C
  C40      1.0000 0.95661  0.78044  0.46448  Biso   1.000  C
  C41      1.0000 0.90570  0.57149  0.81339  Biso   1.000  C
  C42      1.0000 0.09430  0.07149  0.68661  Biso   1.000  C
  C43      1.0000 0.09430  0.42851  0.18661  Biso   1.000  C
  C44      1.0000 0.90570  0.92851  0.31339  Biso   1.000  C
  C45      1.0000 0.71133  0.51808  0.71388  Biso   1.000  C
  C46      1.0000 0.28867  0.01808  0.78612  Biso   1.000  C
  C47      1.0000 0.28867  0.48192  0.28612  Biso   1.000  C
  C48      1.0000 0.71133  0.98192  0.21388  Biso   1.000  C
  C49      1.0000 0.04195  0.47915  0.74282  Biso   1.000  C
  C50      1.0000 0.95805  0.97915  0.75718  Biso   1.000  C
  C51      1.0000 0.95805  0.52085  0.25718  Biso   1.000  C
  C52      1.0000 0.04195  0.02085  0.24282  Biso   1.000  C
  C53      1.0000 0.13908  0.76408  0.03509  Biso   1.000  C
  C54      1.0000 0.86092  0.26408  0.46491  Biso   1.000  C
  C55      1.0000 0.86092  0.23592  0.96491  Biso   1.000  C
  C56      1.0000 0.13908  0.73592  0.53509  Biso   1.000  C
  N5       1.0000 0.98193  0.63566  0.89203  Biso   1.000  N
  N6       1.0000 0.01807  0.13566  0.60797  Biso   1.000  N
  N7       1.0000 0.01807  0.36434  0.10797  Biso   1.000  N
  N8       1.0000 0.98193  0.86434  0.39203  Biso   1.000  N
  O5       1.0000 0.63028  0.56905  0.63233  Biso   1.000  O
  O6       1.0000 0.36972  0.06905  0.86767  Biso   1.000  O
  O7       1.0000 0.36972  0.43095  0.36767  Biso   1.000  O
  O8       1.0000 0.63028  0.93095  0.13233  Biso   1.000  O
  O9       1.0000 0.71991  0.41882  0.72613  Biso   1.000  O
  O10      1.0000 0.28009  0.91882  0.77387  Biso   1.000  O
  O11      1.0000 0.28009  0.58118  0.27387  Biso   1.000  O
  O12      1.0000 0.71991  0.08118  0.22613  Biso   1.000  O
  O13      1.0000 0.93198  0.48922  0.73540  Biso   1.000  O
  O14      1.0000 0.06802  0.98922  0.76460  Biso   1.000  O
  O15      1.0000 0.06802  0.51078  0.26460  Biso   1.000  O
  O16      1.0000 0.93198  0.01078  0.23540  Biso   1.000  O
  O17      1.0000 0.03310  0.78594  0.04188  Biso   1.000  O
  O18      1.0000 0.96690  0.28594  0.45812  Biso   1.000  O
  O19      1.0000 0.96690  0.21406  0.95812  Biso   1.000  O
  O20      1.0000 0.03310  0.71406  0.54188  Biso   1.000  O
  H29      1.0000 0.69259  0.69492  0.86996  Biso   1.000  H
  H30      1.0000 0.30741  0.19492  0.63004  Biso   1.000  H
  H31      1.0000 0.30741  0.30508  0.13004  Biso   1.000  H
  H32      1.0000 0.69259  0.80508  0.36996  Biso   1.000  H
  H33      1.0000 0.83635  0.81430  0.02420  Biso   1.000  H
  H34      1.0000 0.16365  0.31430  0.47580  Biso   1.000  H
  H35      1.0000 0.16365  0.18570  0.97580  Biso   1.000  H
  H36      1.0000 0.83635  0.68570  0.52420  Biso   1.000  H
  H37      1.0000 0.08861  0.46630  0.86321  Biso   1.000  H
  H38      1.0000 0.91139  0.96630  0.63679  Biso   1.000  H
  H39      1.0000 0.91139  0.53370  0.13679  Biso   1.000  H
  H40      1.0000 0.08861  0.03370  0.36321  Biso   1.000  H
  H41      1.0000 0.04605  0.41063  0.67024  Biso   1.000  H
  H42      1.0000 0.95395  0.91063  0.82976  Biso   1.000  H
  H43      1.0000 0.95395  0.58937  0.32976  Biso   1.000  H
  H44      1.0000 0.04605  0.08937  0.17024  Biso   1.000  H
  H45      1.0000 0.06950  0.55065  0.69680  Biso   1.000  H
  H46      1.0000 0.93050  0.05065  0.80320  Biso   1.000  H
  H47      1.0000 0.93050  0.44935  0.30320  Biso   1.000  H
  H48      1.0000 0.06950  0.94935  0.19680  Biso   1.000  H
  H49      1.0000 0.14237  0.76191  0.91383  Biso   1.000  H
  H50      1.0000 0.85763  0.26191  0.58617  Biso   1.000  H
  H51      1.0000 0.85763  0.23809  0.08617  Biso   1.000  H
  H52      1.0000 0.14237  0.73809  0.41383  Biso   1.000  H
  H53      1.0000 0.16744  0.68948  0.09465  Biso   1.000  H
  H54      1.0000 0.83256  0.18948  0.40535  Biso   1.000  H
  H55      1.0000 0.83256  0.31052  0.90535  Biso   1.000  H
  H56      1.0000 0.16744  0.81052  0.59465  Biso   1.000  H
  H57      1.0000 0.18554  0.83078  0.09560  Biso   1.000  H
  H58      1.0000 0.81446  0.33078  0.40440  Biso   1.000  H
  H59      1.0000 0.81446  0.16922  0.90440  Biso   1.000  H
  H60      1.0000 0.18554  0.66922  0.59560  Biso   1.000  H
