data_image0
_cell_length_a       6.492
_cell_length_b       12.963
_cell_length_c       14.344
_cell_angle_alpha    91.59
_cell_angle_beta     93.405
_cell_angle_gamma    94.945

_symmetry_space_group_name_H-M    "P 1"
_symmetry_int_tables_number       1

loop_
  _symmetry_equiv_pos_as_xyz
  'x, y, z'

loop_
  _atom_site_label
  _atom_site_occupancy
  _atom_site_fract_x
  _atom_site_fract_y
  _atom_site_fract_z
  _atom_site_thermal_displace_type
  _atom_site_B_iso_or_equiv
  _atom_site_type_symbol
  Cu1      1.0000 0.44027  0.15862  0.10909  Biso   1.000  Cu
  Cu2      1.0000 0.55973  0.84138  0.89091  Biso   1.000  Cu
  Cu3      1.0000 0.99060  0.35565  0.38890  Biso   1.000  Cu
  Cu4      1.0000 0.00940  0.64435  0.61110  Biso   1.000  Cu
  N1       1.0000 0.39120  0.30700  0.07970  Biso   1.000  N
  N2       1.0000 0.60880  0.69300  0.92030  Biso   1.000  N
  N3       1.0000 0.91960  0.20620  0.41810  Biso   1.000  N
  N4       1.0000 0.08040  0.79380  0.58190  Biso   1.000  N
  O1       1.0000 0.35490  0.19510  0.23170  Biso   1.000  O
  O2       1.0000 0.64510  0.80490  0.76830  Biso   1.000  O
  O3       1.0000 0.33660  0.33220  0.32570  Biso   1.000  O
  O4       1.0000 0.66340  0.66780  0.67430  Biso   1.000  O
  O5       1.0000 0.52400  0.15200  0.98170  Biso   1.000  O
  O6       1.0000 0.47600  0.84800  0.01830  Biso   1.000  O
  O7       1.0000 0.63110  0.25200  0.86730  Biso   1.000  O
  O8       1.0000 0.36890  0.74800  0.13270  Biso   1.000  O
  O9       1.0000 0.86720  0.31450  0.26540  Biso   1.000  O
  O10      1.0000 0.13280  0.68550  0.73460  Biso   1.000  O
  O11      1.0000 0.79640  0.17650  0.17060  Biso   1.000  O
  O12      1.0000 0.20360  0.82350  0.82940  Biso   1.000  O
  O13      1.0000 0.11690  0.36610  0.51660  Biso   1.000  O
  O14      1.0000 0.88310  0.63390  0.48340  Biso   1.000  O
  O15      1.0000 0.26550  0.26690  0.62080  Biso   1.000  O
  O16      1.0000 0.73450  0.73310  0.37920  Biso   1.000  O
  O17      1.0000 0.43510  0.01220  0.13200  Biso   1.000  O
  O18      1.0000 0.56490  0.98780  0.86800  Biso   1.000  O
  H1       1.0000 0.45040  0.97520  0.08350  Biso   1.000  H
  H2       1.0000 0.54960  0.02480  0.91650  Biso   1.000  H
  H3       1.0000 0.52930  0.00840  0.17530  Biso   1.000  H
  H4       1.0000 0.47070  0.99160  0.82470  Biso   1.000  H
  O19      1.0000 0.08200  0.15600  0.11030  Biso   1.000  O
  O20      1.0000 0.91800  0.84400  0.88970  Biso   1.000  O
  H5       1.0000 0.02980  0.17210  0.16110  Biso   1.000  H
  H6       1.0000 0.97020  0.82790  0.83890  Biso   1.000  H
  H7       1.0000 0.05210  0.09500  0.08710  Biso   1.000  H
  H8       1.0000 0.94790  0.90500  0.91290  Biso   1.000  H
  O21      1.0000 0.06390  0.50020  0.35940  Biso   1.000  O
  O22      1.0000 0.93610  0.49980  0.64060  Biso   1.000  O
  H9       1.0000 0.18850  0.51040  0.34440  Biso   1.000  H
  H10      1.0000 0.81150  0.48960  0.65560  Biso   1.000  H
  H11      1.0000 0.04270  0.54180  0.40400  Biso   1.000  H
  H12      1.0000 0.95730  0.45820  0.59600  Biso   1.000  H
  O23      1.0000 0.67350  0.43120  0.43970  Biso   1.000  O
  O24      1.0000 0.32650  0.56880  0.56030  Biso   1.000  O
  H13      1.0000 0.56960  0.41860  0.40090  Biso   1.000  H
  H14      1.0000 0.43040  0.58140  0.59910  Biso   1.000  H
  H15      1.0000 0.70960  0.49580  0.44140  Biso   1.000  H
  H16      1.0000 0.29040  0.50420  0.55860  Biso   1.000  H
  C1       1.0000 0.08980  0.40730  0.01910  Biso   1.000  C
  C2       1.0000 0.91020  0.59270  0.98090  Biso   1.000  C
  C3       1.0000 0.06580  0.43770  0.92620  Biso   1.000  C
  C4       1.0000 0.93420  0.56230  0.07380  Biso   1.000  C
  C5       1.0000 0.02030  0.47050  0.08920  Biso   1.000  C
  C6       1.0000 0.97970  0.52950  0.91080  Biso   1.000  C
  H17      1.0000 0.03330  0.44900  0.15040  Biso   1.000  H
  H18      1.0000 0.96670  0.55100  0.84960  Biso   1.000  H
  C7       1.0000 0.16630  0.30350  0.04470  Biso   1.000  C
  C8       1.0000 0.83370  0.69650  0.95530  Biso   1.000  C
  H19      1.0000 0.08180  0.27410  0.09260  Biso   1.000  H
  H20      1.0000 0.91820  0.72590  0.90740  Biso   1.000  H
  H21      1.0000 0.14510  0.25700  0.99010  Biso   1.000  H
  H22      1.0000 0.85490  0.74300  0.00990  Biso   1.000  H
  C9       1.0000 0.13210  0.37570  0.84380  Biso   1.000  C
  C10      1.0000 0.86790  0.62430  0.15620  Biso   1.000  C
  H23      1.0000 0.03450  0.31640  0.83050  Biso   1.000  H
  H24      1.0000 0.96550  0.68360  0.16950  Biso   1.000  H
  H25      1.0000 0.26690  0.35310  0.85850  Biso   1.000  H
  H26      1.0000 0.73310  0.64690  0.14150  Biso   1.000  H
  H27      1.0000 0.13700  0.41820  0.79010  Biso   1.000  H
  H28      1.0000 0.86300  0.58180  0.20990  Biso   1.000  H
  C11      1.0000 0.36530  0.29280  0.24870  Biso   1.000  C
  C12      1.0000 0.63470  0.70720  0.75130  Biso   1.000  C
  C13      1.0000 0.43400  0.36330  0.16980  Biso   1.000  C
  C14      1.0000 0.56600  0.63670  0.83020  Biso   1.000  C
  H29      1.0000 0.35960  0.42510  0.17040  Biso   1.000  H
  H30      1.0000 0.64040  0.57490  0.82960  Biso   1.000  H
  H31      1.0000 0.58090  0.38440  0.17900  Biso   1.000  H
  H32      1.0000 0.41910  0.61560  0.82100  Biso   1.000  H
  C15      1.0000 0.56590  0.24120  0.94530  Biso   1.000  C
  C16      1.0000 0.43410  0.75880  0.05470  Biso   1.000  C
  C17      1.0000 0.53420  0.33640  0.00770  Biso   1.000  C
  C18      1.0000 0.46580  0.66360  0.99230  Biso   1.000  C
  H33      1.0000 0.66630  0.36450  0.03710  Biso   1.000  H
  H34      1.0000 0.33370  0.63550  0.96290  Biso   1.000  H
  H35      1.0000 0.47850  0.38950  0.96980  Biso   1.000  H
  H36      1.0000 0.52150  0.61050  0.03020  Biso   1.000  H
  C19      1.0000 0.60990  0.09520  0.48170  Biso   1.000  C
  C20      1.0000 0.39010  0.90480  0.51830  Biso   1.000  C
  C21      1.0000 0.62070  0.05960  0.57290  Biso   1.000  C
  C22      1.0000 0.37930  0.94040  0.42710  Biso   1.000  C
  C23      1.0000 0.49450  0.03650  0.41070  Biso   1.000  C
  C24      1.0000 0.50550  0.96350  0.58930  Biso   1.000  C
  H37      1.0000 0.49250  0.06080  0.35030  Biso   1.000  H
  H38      1.0000 0.50750  0.93920  0.64970  Biso   1.000  H
  C25      1.0000 0.71030  0.20120  0.45790  Biso   1.000  C
  C26      1.0000 0.28970  0.79880  0.54210  Biso   1.000  C
  H39      1.0000 0.61640  0.23170  0.41360  Biso   1.000  H
  H40      1.0000 0.38360  0.76830  0.58640  Biso   1.000  H
  H41      1.0000 0.72200  0.24480  0.51430  Biso   1.000  H
  H42      1.0000 0.27800  0.75520  0.48570  Biso   1.000  H
  C27      1.0000 0.73350  0.11560  0.65420  Biso   1.000  C
  C28      1.0000 0.26650  0.88440  0.34580  Biso   1.000  C
  H43      1.0000 0.82540  0.17080  0.63300  Biso   1.000  H
  H44      1.0000 0.17460  0.82920  0.36700  Biso   1.000  H
  H45      1.0000 0.81220  0.06850  0.68900  Biso   1.000  H
  H46      1.0000 0.18780  0.93150  0.31100  Biso   1.000  H
  H47      1.0000 0.63610  0.14370  0.69360  Biso   1.000  H
  H48      1.0000 0.36390  0.85630  0.30640  Biso   1.000  H
  C29      1.0000 0.85180  0.21770  0.24750  Biso   1.000  C
  C30      1.0000 0.14820  0.78230  0.75250  Biso   1.000  C
  C31      1.0000 0.92080  0.14790  0.32780  Biso   1.000  C
  C32      1.0000 0.07920  0.85210  0.67220  Biso   1.000  C
  H49      1.0000 0.82700  0.08550  0.32800  Biso   1.000  H
  H50      1.0000 0.17300  0.91450  0.67200  Biso   1.000  H
  H51      1.0000 0.05900  0.12790  0.31870  Biso   1.000  H
  H52      1.0000 0.94100  0.87210  0.68130  Biso   1.000  H
  C33      1.0000 0.16310  0.27740  0.54840  Biso   1.000  C
  C34      1.0000 0.83690  0.72260  0.45160  Biso   1.000  C
  C35      1.0000 0.08790  0.18290  0.48740  Biso   1.000  C
  C36      1.0000 0.91210  0.81710  0.51260  Biso   1.000  C
  H53      1.0000 0.20270  0.15940  0.45470  Biso   1.000  H
  H54      1.0000 0.79730  0.84060  0.54530  Biso   1.000  H
  H55      1.0000 0.03700  0.12750  0.52640  Biso   1.000  H
  H56      1.0000 0.96300  0.87250  0.47360  Biso   1.000  H
  O25      1.0000 0.39670  0.60610  0.28670  Biso   1.000  O
  O26      1.0000 0.60330  0.39390  0.71330  Biso   1.000  O
  H57      1.0000 0.37520  0.64150  0.23870  Biso   1.000  H
  H58      1.0000 0.62480  0.35850  0.76130  Biso   1.000  H
  H59      1.0000 0.49700  0.63720  0.32010  Biso   1.000  H
  H60      1.0000 0.50300  0.36280  0.67990  Biso   1.000  H
  O27      1.0000 0.74190  0.89820  0.25160  Biso   1.000  O
  O28      1.0000 0.25810  0.10180  0.74840  Biso   1.000  O
  H61      1.0000 0.67040  0.84320  0.23150  Biso   1.000  H
  H62      1.0000 0.32960  0.15680  0.76850  Biso   1.000  H
  H63      1.0000 0.68750  0.94920  0.22720  Biso   1.000  H
  H64      1.0000 0.31250  0.05080  0.77280  Biso   1.000  H
  O29      1.0000 0.12600  0.07700  0.05500  Biso   1.000  O
  O30      1.0000 0.87400  0.92300  0.94500  Biso   1.000  O
  H65      1.0000 0.04620  0.12280  0.03930  Biso   1.000  H
  H66      1.0000 0.95380  0.87720  0.96070  Biso   1.000  H
  H67      1.0000 0.14050  0.03690  0.00890  Biso   1.000  H
  H68      1.0000 0.85950  0.96310  0.99110  Biso   1.000  H
