data_image0
_cell_length_a       10.321
_cell_length_b       11.122
_cell_length_c       12.908
_cell_angle_alpha    67.213
_cell_angle_beta     76.602
_cell_angle_gamma    76.675

_symmetry_space_group_name_H-M    "P 1"
_symmetry_int_tables_number       1

loop_
  _symmetry_equiv_pos_as_xyz
  'x, y, z'

loop_
  _atom_site_label
  _atom_site_occupancy
  _atom_site_fract_x
  _atom_site_fract_y
  _atom_site_fract_z
  _atom_site_thermal_displace_type
  _atom_site_B_iso_or_equiv
  _atom_site_type_symbol
  Cu1      1.0000 0.50000  0.00000  0.50000  Biso   1.000  Cu
  Cl1      1.0000 0.89564  0.39343  0.71273  Biso   1.000  Cl
  Cl2      1.0000 0.10436  0.60657  0.28727  Biso   1.000  Cl
  S1       1.0000 0.60750  0.13642  0.74944  Biso   1.000  S
  S2       1.0000 0.39250  0.86358  0.25056  Biso   1.000  S
  S3       1.0000 0.42947  0.39702  0.69426  Biso   1.000  S
  S4       1.0000 0.57053  0.60298  0.30574  Biso   1.000  S
  S5       1.0000 0.99815  0.78315  0.62689  Biso   1.000  S
  S6       1.0000 0.00185  0.21685  0.37311  Biso   1.000  S
  S7       1.0000 0.02700  0.01392  0.68458  Biso   1.000  S
  S8       1.0000 0.97300  0.98608  0.31542  Biso   1.000  S
  S9       1.0000 0.58105  0.59869  0.77434  Biso   1.000  S
  S10      1.0000 0.41895  0.40131  0.22566  Biso   1.000  S
  S11      1.0000 0.33608  0.65475  0.94441  Biso   1.000  S
  S12      1.0000 0.66392  0.34525  0.05559  Biso   1.000  S
  S13      1.0000 0.15521  0.11517  0.90859  Biso   1.000  S
  S14      1.0000 0.84479  0.88483  0.09141  Biso   1.000  S
  S15      1.0000 0.11321  0.35074  0.97930  Biso   1.000  S
  S16      1.0000 0.88679  0.64926  0.02070  Biso   1.000  S
  O1       1.0000 0.89890  0.40740  0.81530  Biso   1.000  O
  O2       1.0000 0.10110  0.59260  0.18470  Biso   1.000  O
  O3       1.0000 0.80690  0.30950  0.73250  Biso   1.000  O
  O4       1.0000 0.19310  0.69050  0.26750  Biso   1.000  O
  O5       1.0000 0.02350  0.34590  0.66370  Biso   1.000  O
  O6       1.0000 0.97650  0.65410  0.33630  Biso   1.000  O
  O7       1.0000 0.85050  0.51640  0.63500  Biso   1.000  O
  O8       1.0000 0.14950  0.48360  0.36500  Biso   1.000  O
  N1       1.0000 0.51870  0.08580  0.60700  Biso   1.000  N
  N2       1.0000 0.48130  0.91420  0.39300  Biso   1.000  N
  N3       1.0000 0.45040  0.21090  0.60080  Biso   1.000  N
  N4       1.0000 0.54960  0.78910  0.39920  Biso   1.000  N
  N5       1.0000 0.20750  0.92040  0.55080  Biso   1.000  N
  N6       1.0000 0.79250  0.07960  0.44920  Biso   1.000  N
  N7       1.0000 0.25500  0.02480  0.55610  Biso   1.000  N
  N8       1.0000 0.74500  0.97520  0.44390  Biso   1.000  N
  N9       1.0000 0.51020  0.82290  0.63330  Biso   1.000  N
  N10      1.0000 0.48980  0.17710  0.36670  Biso   1.000  N
  N11      1.0000 0.41340  0.81290  0.72830  Biso   1.000  N
  N12      1.0000 0.58660  0.18710  0.27170  Biso   1.000  N
  N13      1.0000 0.25100  0.13190  0.08040  Biso   1.000  N
  N14      1.0000 0.74900  0.86810  0.91960  Biso   1.000  N
  N15      1.0000 0.25220  0.21730  0.13500  Biso   1.000  N
  N16      1.0000 0.74780  0.78270  0.86500  Biso   1.000  N
  C1       1.0000 0.60130  0.03640  0.68000  Biso   1.000  C
  C2       1.0000 0.39870  0.96360  0.32000  Biso   1.000  C
  H1       1.0000 0.65290  0.95300  0.69330  Biso   1.000  H
  H2       1.0000 0.34710  0.04700  0.30670  Biso   1.000  H
  C3       1.0000 0.48790  0.24960  0.67100  Biso   1.000  C
  C4       1.0000 0.51210  0.75040  0.32900  Biso   1.000  C
  C5       1.0000 0.30460  0.47990  0.60130  Biso   1.000  C
  C6       1.0000 0.69540  0.52010  0.39870  Biso   1.000  C
  H3       1.0000 0.34780  0.51220  0.52260  Biso   1.000  H
  H4       1.0000 0.65220  0.48780  0.47740  Biso   1.000  H
  H5       1.0000 0.24510  0.42000  0.60880  Biso   1.000  H
  H6       1.0000 0.75490  0.58000  0.39120  Biso   1.000  H
  C7       1.0000 0.22610  0.59400  0.63780  Biso   1.000  C
  C8       1.0000 0.77390  0.40600  0.36220  Biso   1.000  C
  H7       1.0000 0.28840  0.64800  0.63660  Biso   1.000  H
  H8       1.0000 0.71160  0.35200  0.36340  Biso   1.000  H
  H9       1.0000 0.18010  0.55940  0.71540  Biso   1.000  H
  H10      1.0000 0.81990  0.44060  0.28460  Biso   1.000  H
  C9       1.0000 0.12350  0.67900  0.56130  Biso   1.000  C
  C10      1.0000 0.87650  0.32100  0.43870  Biso   1.000  C
  H11      1.0000 0.07890  0.62270  0.54420  Biso   1.000  H
  H12      1.0000 0.92110  0.37730  0.45580  Biso   1.000  H
  H13      1.0000 0.16960  0.73410  0.49010  Biso   1.000  H
  H14      1.0000 0.83040  0.26590  0.50990  Biso   1.000  H
  C11      1.0000 0.09060  0.90290  0.61390  Biso   1.000  C
  C12      1.0000 0.90940  0.09710  0.38610  Biso   1.000  C
  C13      1.0000 0.17160  0.08170  0.62120  Biso   1.000  C
  C14      1.0000 0.82840  0.91830  0.37880  Biso   1.000  C
  H15      1.0000 0.18870  0.15380  0.63260  Biso   1.000  H
  H16      1.0000 0.81130  0.84620  0.36740  Biso   1.000  H
  C15      1.0000 0.60260  0.71920  0.64470  Biso   1.000  C
  C16      1.0000 0.39740  0.28080  0.35530  Biso   1.000  C
  H17      1.0000 0.67390  0.71180  0.58730  Biso   1.000  H
  H18      1.0000 0.32610  0.28820  0.41270  Biso   1.000  H
  C17      1.0000 0.43840  0.69970  0.80920  Biso   1.000  C
  C18      1.0000 0.56160  0.30030  0.19080  Biso   1.000  C
  C19      1.0000 0.39700  0.74730  0.00860  Biso   1.000  C
  C20      1.0000 0.60300  0.25270  0.99140  Biso   1.000  C
  H19      1.0000 0.36130  0.71850  0.08930  Biso   1.000  H
  H20      1.0000 0.63870  0.28150  0.91070  Biso   1.000  H
  H21      1.0000 0.49450  0.72500  0.00110  Biso   1.000  H
  H22      1.0000 0.50550  0.27500  0.99890  Biso   1.000  H
  C21      1.0000 0.36010  0.89760  0.95800  Biso   1.000  C
  C22      1.0000 0.63990  0.10240  0.04200  Biso   1.000  C
  H23      1.0000 0.40710  0.93800  0.98980  Biso   1.000  H
  H24      1.0000 0.59290  0.06200  0.01020  Biso   1.000  H
  H25      1.0000 0.38980  0.92700  0.87640  Biso   1.000  H
  H26      1.0000 0.61020  0.07300  0.12360  Biso   1.000  H
  C23      1.0000 0.21290  0.94140  0.98170  Biso   1.000  C
  C24      1.0000 0.78710  0.05860  0.01830  Biso   1.000  C
  H27      1.0000 0.18680  0.92220  0.06300  Biso   1.000  H
  H28      1.0000 0.81320  0.07780  0.93700  Biso   1.000  H
  H29      1.0000 0.16650  0.88970  0.96080  Biso   1.000  H
  H30      1.0000 0.83350  0.11030  0.03920  Biso   1.000  H
  C25      1.0000 0.18300  0.18850  0.99710  Biso   1.000  C
  C26      1.0000 0.81700  0.81150  0.00290  Biso   1.000  C
  C27      1.0000 0.18520  0.33110  0.09210  Biso   1.000  C
  C28      1.0000 0.81480  0.66890  0.90790  Biso   1.000  C
  H31      1.0000 0.17620  0.39840  0.12030  Biso   1.000  H
  H32      1.0000 0.82380  0.60160  0.87970  Biso   1.000  H
