data_image0
_cell_length_a       7.5112
_cell_length_b       16.0876
_cell_length_c       8.339
_cell_angle_alpha    90
_cell_angle_beta     116.469
_cell_angle_gamma    90

_symmetry_space_group_name_H-M    "P 1"
_symmetry_int_tables_number       1

loop_
  _symmetry_equiv_pos_as_xyz
  'x, y, z'

loop_
  _atom_site_label
  _atom_site_occupancy
  _atom_site_fract_x
  _atom_site_fract_y
  _atom_site_fract_z
  _atom_site_thermal_displace_type
  _atom_site_B_iso_or_equiv
  _atom_site_type_symbol
  Cu1      1.0000 0.50000  0.00000  0.50000  Biso   1.000  Cu
  Cu2      1.0000 0.00000  0.50000  0.00000  Biso   1.000  Cu
  Cl1      1.0000 0.10912  0.03685  0.30125  Biso   1.000  Cl
  Cl2      1.0000 0.39088  0.53685  0.19875  Biso   1.000  Cl
  Cl3      1.0000 0.89088  0.96315  0.69875  Biso   1.000  Cl
  Cl4      1.0000 0.60912  0.46315  0.80125  Biso   1.000  Cl
  C1       1.0000 0.62940  0.07131  0.87580  Biso   1.000  C
  C2       1.0000 0.87060  0.57131  0.62420  Biso   1.000  C
  C3       1.0000 0.37060  0.92869  0.12420  Biso   1.000  C
  C4       1.0000 0.12940  0.42869  0.37580  Biso   1.000  C
  H1       1.0000 0.76340  0.06660  0.90320  Biso   1.000  H
  H2       1.0000 0.73660  0.56660  0.59680  Biso   1.000  H
  H3       1.0000 0.23660  0.93340  0.09680  Biso   1.000  H
  H4       1.0000 0.26340  0.43340  0.40320  Biso   1.000  H
  C5       1.0000 0.31750  0.06044  0.73900  Biso   1.000  C
  C6       1.0000 0.18250  0.56044  0.76100  Biso   1.000  C
  C7       1.0000 0.68250  0.93956  0.26100  Biso   1.000  C
  C8       1.0000 0.81750  0.43956  0.23900  Biso   1.000  C
  H5       1.0000 0.18810  0.04820  0.65550  Biso   1.000  H
  H6       1.0000 0.31190  0.54820  0.84450  Biso   1.000  H
  H7       1.0000 0.81190  0.95180  0.34450  Biso   1.000  H
  H8       1.0000 0.68810  0.45180  0.15550  Biso   1.000  H
  C9       1.0000 0.23810  0.12190  0.97320  Biso   1.000  C
  C10      1.0000 0.26190  0.62190  0.52680  Biso   1.000  C
  C11      1.0000 0.76190  0.87810  0.02680  Biso   1.000  C
  C12      1.0000 0.73810  0.37810  0.47320  Biso   1.000  C
  H9       1.0000 0.30140  0.10570  0.09840  Biso   1.000  H
  H10      1.0000 0.19860  0.60570  0.40160  Biso   1.000  H
  H11      1.0000 0.69860  0.89430  0.90160  Biso   1.000  H
  H12      1.0000 0.80140  0.39430  0.59840  Biso   1.000  H
  H13      1.0000 0.11590  0.09020  0.91470  Biso   1.000  H
  H14      1.0000 0.38410  0.59020  0.58530  Biso   1.000  H
  H15      1.0000 0.88410  0.90980  0.08530  Biso   1.000  H
  H16      1.0000 0.61590  0.40980  0.41470  Biso   1.000  H
  C13      1.0000 0.18520  0.21295  0.96250  Biso   1.000  C
  C14      1.0000 0.31480  0.71295  0.53750  Biso   1.000  C
  C15      1.0000 0.81480  0.78705  0.03750  Biso   1.000  C
  C16      1.0000 0.68520  0.28705  0.46250  Biso   1.000  C
  C17      1.0000 0.28970  0.27713  0.93430  Biso   1.000  C
  C18      1.0000 0.21030  0.77713  0.56570  Biso   1.000  C
  C19      1.0000 0.71030  0.72287  0.06570  Biso   1.000  C
  C20      1.0000 0.78970  0.22287  0.43430  Biso   1.000  C
  H17      1.0000 0.39870  0.26590  0.91300  Biso   1.000  H
  H18      1.0000 0.10130  0.76590  0.58700  Biso   1.000  H
  H19      1.0000 0.60130  0.73410  0.08700  Biso   1.000  H
  H20      1.0000 0.89870  0.23410  0.41300  Biso   1.000  H
  C21      1.0000 0.23120  0.35851  0.93790  Biso   1.000  C
  C22      1.0000 0.26880  0.85851  0.56210  Biso   1.000  C
  C23      1.0000 0.76880  0.64149  0.06210  Biso   1.000  C
  C24      1.0000 0.73120  0.14149  0.43790  Biso   1.000  C
  H21      1.0000 0.30500  0.40110  0.92110  Biso   1.000  H
  H22      1.0000 0.19500  0.90110  0.57890  Biso   1.000  H
  H23      1.0000 0.69500  0.59890  0.07890  Biso   1.000  H
  H24      1.0000 0.80500  0.09890  0.42110  Biso   1.000  H
  C25      1.0000 0.96950  0.31581  0.98560  Biso   1.000  C
  C26      1.0000 0.53050  0.81581  0.51440  Biso   1.000  C
  C27      1.0000 0.03050  0.68419  0.01440  Biso   1.000  C
  C28      1.0000 0.46950  0.18419  0.48560  Biso   1.000  C
  H25      1.0000 0.85610  0.32840  0.99910  Biso   1.000  H
  H26      1.0000 0.64390  0.82840  0.50090  Biso   1.000  H
  H27      1.0000 0.14390  0.67160  0.00090  Biso   1.000  H
  H28      1.0000 0.35610  0.17160  0.49910  Biso   1.000  H
  C29      1.0000 0.02120  0.23381  0.98880  Biso   1.000  C
  C30      1.0000 0.47880  0.73381  0.51120  Biso   1.000  C
  C31      1.0000 0.97880  0.76619  0.01120  Biso   1.000  C
  C32      1.0000 0.52120  0.26619  0.48880  Biso   1.000  C
  H29      1.0000 0.94660  0.19250  0.00840  Biso   1.000  H
  H30      1.0000 0.55340  0.69250  0.49160  Biso   1.000  H
  H31      1.0000 0.05340  0.80750  0.99160  Biso   1.000  H
  H32      1.0000 0.44660  0.30750  0.50840  Biso   1.000  H
  N1       1.0000 0.36800  0.09900  0.89390  Biso   1.000  N
  N2       1.0000 0.13200  0.59900  0.60610  Biso   1.000  N
  N3       1.0000 0.63200  0.90100  0.10610  Biso   1.000  N
  N4       1.0000 0.86800  0.40100  0.39390  Biso   1.000  N
  N5       1.0000 0.56500  0.10725  0.98330  Biso   1.000  N
  N6       1.0000 0.93500  0.60725  0.51670  Biso   1.000  N
  N7       1.0000 0.43500  0.89275  0.01670  Biso   1.000  N
  N8       1.0000 0.06500  0.39275  0.48330  Biso   1.000  N
  N9       1.0000 0.48020  0.04199  0.72150  Biso   1.000  N
  N10      1.0000 0.01980  0.54199  0.77850  Biso   1.000  N
  N11      1.0000 0.51980  0.95801  0.27850  Biso   1.000  N
  N12      1.0000 0.98020  0.45801  0.22150  Biso   1.000  N
  N13      1.0000 0.07400  0.37867  0.96420  Biso   1.000  N
  N14      1.0000 0.42600  0.87867  0.53580  Biso   1.000  N
  N15      1.0000 0.92600  0.62133  0.03580  Biso   1.000  N
  N16      1.0000 0.57400  0.12133  0.46420  Biso   1.000  N
