data_image0
_cell_length_a       18.468
_cell_length_b       9.7026
_cell_length_c       19.307
_cell_angle_alpha    90
_cell_angle_beta     98.811
_cell_angle_gamma    90

_symmetry_space_group_name_H-M    "P 1"
_symmetry_int_tables_number       1

loop_
  _symmetry_equiv_pos_as_xyz
  'x, y, z'

loop_
  _atom_site_label
  _atom_site_occupancy
  _atom_site_fract_x
  _atom_site_fract_y
  _atom_site_fract_z
  _atom_site_thermal_displace_type
  _atom_site_B_iso_or_equiv
  _atom_site_type_symbol
  C1       1.0000 0.12500  0.73050  0.21160  Biso   1.000  C
  C2       1.0000 0.87500  0.73050  0.28840  Biso   1.000  C
  C3       1.0000 0.62500  0.23050  0.21160  Biso   1.000  C
  C4       1.0000 0.37500  0.23050  0.28840  Biso   1.000  C
  C5       1.0000 0.87500  0.26950  0.78840  Biso   1.000  C
  C6       1.0000 0.12500  0.26950  0.71160  Biso   1.000  C
  C7       1.0000 0.37500  0.76950  0.78840  Biso   1.000  C
  C8       1.0000 0.62500  0.76950  0.71160  Biso   1.000  C
  C9       1.0000 0.19930  0.73110  0.19070  Biso   1.000  C
  C10      1.0000 0.80070  0.73110  0.30930  Biso   1.000  C
  C11      1.0000 0.69930  0.23110  0.19070  Biso   1.000  C
  C12      1.0000 0.30070  0.23110  0.30930  Biso   1.000  C
  C13      1.0000 0.80070  0.26890  0.80930  Biso   1.000  C
  C14      1.0000 0.19930  0.26890  0.69070  Biso   1.000  C
  C15      1.0000 0.30070  0.76890  0.80930  Biso   1.000  C
  C16      1.0000 0.69930  0.76890  0.69070  Biso   1.000  C
  C17      1.0000 0.22860  0.85080  0.16840  Biso   1.000  C
  C18      1.0000 0.77140  0.85080  0.33160  Biso   1.000  C
  C19      1.0000 0.72860  0.35080  0.16840  Biso   1.000  C
  C20      1.0000 0.27140  0.35080  0.33160  Biso   1.000  C
  C21      1.0000 0.77140  0.14920  0.83160  Biso   1.000  C
  C22      1.0000 0.22860  0.14920  0.66840  Biso   1.000  C
  C23      1.0000 0.27140  0.64920  0.83160  Biso   1.000  C
  C24      1.0000 0.72860  0.64920  0.66840  Biso   1.000  C
  H1       1.0000 0.20250  0.93280  0.16810  Biso   1.000  H
  H2       1.0000 0.79750  0.93280  0.33190  Biso   1.000  H
  H3       1.0000 0.70250  0.43280  0.16810  Biso   1.000  H
  H4       1.0000 0.29750  0.43280  0.33190  Biso   1.000  H
  H5       1.0000 0.79750  0.06720  0.83190  Biso   1.000  H
  H6       1.0000 0.20250  0.06720  0.66810  Biso   1.000  H
  H7       1.0000 0.29750  0.56720  0.83190  Biso   1.000  H
  H8       1.0000 0.70250  0.56720  0.66810  Biso   1.000  H
  C25      1.0000 0.29530  0.85010  0.14660  Biso   1.000  C
  C26      1.0000 0.70470  0.85010  0.35340  Biso   1.000  C
  C27      1.0000 0.79530  0.35010  0.14660  Biso   1.000  C
  C28      1.0000 0.20470  0.35010  0.35340  Biso   1.000  C
  C29      1.0000 0.70470  0.14990  0.85340  Biso   1.000  C
  C30      1.0000 0.29530  0.14990  0.64660  Biso   1.000  C
  C31      1.0000 0.20470  0.64990  0.85340  Biso   1.000  C
  C32      1.0000 0.79530  0.64990  0.64660  Biso   1.000  C
  H9       1.0000 0.31460  0.93140  0.13170  Biso   1.000  H
  H10      1.0000 0.68540  0.93140  0.36830  Biso   1.000  H
  H11      1.0000 0.81460  0.43140  0.13170  Biso   1.000  H
  H12      1.0000 0.18540  0.43140  0.36830  Biso   1.000  H
  H13      1.0000 0.68540  0.06860  0.86830  Biso   1.000  H
  H14      1.0000 0.31460  0.06860  0.63170  Biso   1.000  H
  H15      1.0000 0.18540  0.56860  0.86830  Biso   1.000  H
  H16      1.0000 0.81460  0.56860  0.63170  Biso   1.000  H
  C33      1.0000 0.33410  0.72890  0.14670  Biso   1.000  C
  C34      1.0000 0.66590  0.72890  0.35330  Biso   1.000  C
  C35      1.0000 0.83410  0.22890  0.14670  Biso   1.000  C
  C36      1.0000 0.16590  0.22890  0.35330  Biso   1.000  C
  C37      1.0000 0.66590  0.27110  0.85330  Biso   1.000  C
  C38      1.0000 0.33410  0.27110  0.64670  Biso   1.000  C
  C39      1.0000 0.16590  0.77110  0.85330  Biso   1.000  C
  C40      1.0000 0.83410  0.77110  0.64670  Biso   1.000  C
  H17      1.0000 0.37880  0.72740  0.13020  Biso   1.000  H
  H18      1.0000 0.62120  0.72740  0.36980  Biso   1.000  H
  H19      1.0000 0.87880  0.22740  0.13020  Biso   1.000  H
  H20      1.0000 0.12120  0.22740  0.36980  Biso   1.000  H
  H21      1.0000 0.62120  0.27260  0.86980  Biso   1.000  H
  H22      1.0000 0.37880  0.27260  0.63020  Biso   1.000  H
  H23      1.0000 0.12120  0.77260  0.86980  Biso   1.000  H
  H24      1.0000 0.87880  0.77260  0.63020  Biso   1.000  H
  C41      1.0000 0.30690  0.61260  0.17070  Biso   1.000  C
  C42      1.0000 0.69310  0.61260  0.32930  Biso   1.000  C
  C43      1.0000 0.80690  0.11260  0.17070  Biso   1.000  C
  C44      1.0000 0.19310  0.11260  0.32930  Biso   1.000  C
  C45      1.0000 0.69310  0.38740  0.82930  Biso   1.000  C
  C46      1.0000 0.30690  0.38740  0.67070  Biso   1.000  C
  C47      1.0000 0.19310  0.88740  0.82930  Biso   1.000  C
  C48      1.0000 0.80690  0.88740  0.67070  Biso   1.000  C
  H25      1.0000 0.33400  0.53150  0.17230  Biso   1.000  H
  H26      1.0000 0.66600  0.53150  0.32770  Biso   1.000  H
  H27      1.0000 0.83400  0.03150  0.17230  Biso   1.000  H
  H28      1.0000 0.16600  0.03150  0.32770  Biso   1.000  H
  H29      1.0000 0.66600  0.46850  0.82770  Biso   1.000  H
  H30      1.0000 0.33400  0.46850  0.67230  Biso   1.000  H
  H31      1.0000 0.16600  0.96850  0.82770  Biso   1.000  H
  H32      1.0000 0.83400  0.96850  0.67230  Biso   1.000  H
  C49      1.0000 0.23980  0.61250  0.19290  Biso   1.000  C
  C50      1.0000 0.76020  0.61250  0.30710  Biso   1.000  C
  C51      1.0000 0.73980  0.11250  0.19290  Biso   1.000  C
  C52      1.0000 0.26020  0.11250  0.30710  Biso   1.000  C
  C53      1.0000 0.76020  0.38750  0.80710  Biso   1.000  C
  C54      1.0000 0.23980  0.38750  0.69290  Biso   1.000  C
  C55      1.0000 0.26020  0.88750  0.80710  Biso   1.000  C
  C56      1.0000 0.73980  0.88750  0.69290  Biso   1.000  C
  H33      1.0000 0.22180  0.53150  0.20960  Biso   1.000  H
  H34      1.0000 0.77820  0.53150  0.29040  Biso   1.000  H
  H35      1.0000 0.72180  0.03150  0.20960  Biso   1.000  H
  H36      1.0000 0.27820  0.03150  0.29040  Biso   1.000  H
  H37      1.0000 0.77820  0.46850  0.79040  Biso   1.000  H
  H38      1.0000 0.22180  0.46850  0.70960  Biso   1.000  H
  H39      1.0000 0.27820  0.96850  0.79040  Biso   1.000  H
  H40      1.0000 0.72180  0.96850  0.70960  Biso   1.000  H
  C57      1.0000 0.06340  0.72140  0.37660  Biso   1.000  C
  C58      1.0000 0.93660  0.72140  0.12340  Biso   1.000  C
  C59      1.0000 0.56340  0.22140  0.37660  Biso   1.000  C
  C60      1.0000 0.43660  0.22140  0.12340  Biso   1.000  C
  C61      1.0000 0.93660  0.27860  0.62340  Biso   1.000  C
  C62      1.0000 0.06340  0.27860  0.87660  Biso   1.000  C
  C63      1.0000 0.43660  0.77860  0.62340  Biso   1.000  C
  C64      1.0000 0.56340  0.77860  0.87660  Biso   1.000  C
  C65      1.0000 0.10250  0.71900  0.44910  Biso   1.000  C
  C66      1.0000 0.89750  0.71900  0.05090  Biso   1.000  C
  C67      1.0000 0.60250  0.21900  0.44910  Biso   1.000  C
  C68      1.0000 0.39750  0.21900  0.05090  Biso   1.000  C
  C69      1.0000 0.89750  0.28100  0.55090  Biso   1.000  C
  C70      1.0000 0.10250  0.28100  0.94910  Biso   1.000  C
  C71      1.0000 0.39750  0.78100  0.55090  Biso   1.000  C
  C72      1.0000 0.60250  0.78100  0.94910  Biso   1.000  C
  C73      1.0000 0.13740  0.83220  0.47870  Biso   1.000  C
  C74      1.0000 0.86260  0.83220  0.02130  Biso   1.000  C
  C75      1.0000 0.63740  0.33220  0.47870  Biso   1.000  C
  C76      1.0000 0.36260  0.33220  0.02130  Biso   1.000  C
  C77      1.0000 0.86260  0.16780  0.52130  Biso   1.000  C
  C78      1.0000 0.13740  0.16780  0.97870  Biso   1.000  C
  C79      1.0000 0.36260  0.66780  0.52130  Biso   1.000  C
  C80      1.0000 0.63740  0.66780  0.97870  Biso   1.000  C
  H41      1.0000 0.13600  0.91400  0.45340  Biso   1.000  H
  H42      1.0000 0.86400  0.91400  0.04660  Biso   1.000  H
  H43      1.0000 0.63600  0.41400  0.45340  Biso   1.000  H
  H44      1.0000 0.36400  0.41400  0.04660  Biso   1.000  H
  H45      1.0000 0.86400  0.08600  0.54660  Biso   1.000  H
  H46      1.0000 0.13600  0.08600  0.95340  Biso   1.000  H
  H47      1.0000 0.36400  0.58600  0.54660  Biso   1.000  H
  H48      1.0000 0.63600  0.58600  0.95340  Biso   1.000  H
  C81      1.0000 0.17510  0.82690  0.54620  Biso   1.000  C
  C82      1.0000 0.82490  0.82690  0.95380  Biso   1.000  C
  C83      1.0000 0.67510  0.32690  0.54620  Biso   1.000  C
  C84      1.0000 0.32490  0.32690  0.95380  Biso   1.000  C
  C85      1.0000 0.82490  0.17310  0.45380  Biso   1.000  C
  C86      1.0000 0.17510  0.17310  0.04620  Biso   1.000  C
  C87      1.0000 0.32490  0.67310  0.45380  Biso   1.000  C
  C88      1.0000 0.67510  0.67310  0.04620  Biso   1.000  C
  H49      1.0000 0.19890  0.90520  0.56580  Biso   1.000  H
  H50      1.0000 0.80110  0.90520  0.93420  Biso   1.000  H
  H51      1.0000 0.69890  0.40520  0.56580  Biso   1.000  H
  H52      1.0000 0.30110  0.40520  0.93420  Biso   1.000  H
  H53      1.0000 0.80110  0.09480  0.43420  Biso   1.000  H
  H54      1.0000 0.19890  0.09480  0.06580  Biso   1.000  H
  H55      1.0000 0.30110  0.59480  0.43420  Biso   1.000  H
  H56      1.0000 0.69890  0.59480  0.06580  Biso   1.000  H
  C89      1.0000 0.17770  0.70980  0.58400  Biso   1.000  C
  C90      1.0000 0.82230  0.70980  0.91600  Biso   1.000  C
  C91      1.0000 0.67770  0.20980  0.58400  Biso   1.000  C
  C92      1.0000 0.32230  0.20980  0.91600  Biso   1.000  C
  C93      1.0000 0.82230  0.29020  0.41600  Biso   1.000  C
  C94      1.0000 0.17770  0.29020  0.08400  Biso   1.000  C
  C95      1.0000 0.32230  0.79020  0.41600  Biso   1.000  C
  C96      1.0000 0.67770  0.79020  0.08400  Biso   1.000  C
  H57      1.0000 0.20330  0.70660  0.62940  Biso   1.000  H
  H58      1.0000 0.79670  0.70660  0.87060  Biso   1.000  H
  H59      1.0000 0.70330  0.20660  0.62940  Biso   1.000  H
  H60      1.0000 0.29670  0.20660  0.87060  Biso   1.000  H
  H61      1.0000 0.79670  0.29340  0.37060  Biso   1.000  H
  H62      1.0000 0.20330  0.29340  0.12940  Biso   1.000  H
  H63      1.0000 0.29670  0.79340  0.37060  Biso   1.000  H
  H64      1.0000 0.70330  0.79340  0.12940  Biso   1.000  H
  C97      1.0000 0.14250  0.59660  0.55460  Biso   1.000  C
  C98      1.0000 0.85750  0.59660  0.94540  Biso   1.000  C
  C99      1.0000 0.64250  0.09660  0.55460  Biso   1.000  C
  C100     1.0000 0.35750  0.09660  0.94540  Biso   1.000  C
  C101     1.0000 0.85750  0.40340  0.44540  Biso   1.000  C
  C102     1.0000 0.14250  0.40340  0.05460  Biso   1.000  C
  C103     1.0000 0.35750  0.90340  0.44540  Biso   1.000  C
  C104     1.0000 0.64250  0.90340  0.05460  Biso   1.000  C
  H65      1.0000 0.14300  0.51580  0.58060  Biso   1.000  H
  H66      1.0000 0.85700  0.51580  0.91940  Biso   1.000  H
  H67      1.0000 0.64300  0.01580  0.58060  Biso   1.000  H
  H68      1.0000 0.35700  0.01580  0.91940  Biso   1.000  H
  H69      1.0000 0.85700  0.48420  0.41940  Biso   1.000  H
  H70      1.0000 0.14300  0.48420  0.08060  Biso   1.000  H
  H71      1.0000 0.35700  0.98420  0.41940  Biso   1.000  H
  H72      1.0000 0.64300  0.98420  0.08060  Biso   1.000  H
  C105     1.0000 0.10620  0.59960  0.48770  Biso   1.000  C
  C106     1.0000 0.89380  0.59960  0.01230  Biso   1.000  C
  C107     1.0000 0.60620  0.09960  0.48770  Biso   1.000  C
  C108     1.0000 0.39380  0.09960  0.01230  Biso   1.000  C
  C109     1.0000 0.89380  0.40040  0.51230  Biso   1.000  C
  C110     1.0000 0.10620  0.40040  0.98770  Biso   1.000  C
  C111     1.0000 0.39380  0.90040  0.51230  Biso   1.000  C
  C112     1.0000 0.60620  0.90040  0.98770  Biso   1.000  C
  H73      1.0000 0.08380  0.52010  0.46790  Biso   1.000  H
  H74      1.0000 0.91620  0.52010  0.03210  Biso   1.000  H
  H75      1.0000 0.58380  0.02010  0.46790  Biso   1.000  H
  H76      1.0000 0.41620  0.02010  0.03210  Biso   1.000  H
  H77      1.0000 0.91620  0.47990  0.53210  Biso   1.000  H
  H78      1.0000 0.08380  0.47990  0.96790  Biso   1.000  H
  H79      1.0000 0.41620  0.97990  0.53210  Biso   1.000  H
  H80      1.0000 0.58380  0.97990  0.96790  Biso   1.000  H
  C113     1.0000 0.03070  0.15620  0.20410  Biso   1.000  C
  C114     1.0000 0.96930  0.15620  0.29590  Biso   1.000  C
  C115     1.0000 0.53070  0.65620  0.20410  Biso   1.000  C
  C116     1.0000 0.46930  0.65620  0.29590  Biso   1.000  C
  C117     1.0000 0.96930  0.84380  0.79590  Biso   1.000  C
  C118     1.0000 0.03070  0.84380  0.70410  Biso   1.000  C
  C119     1.0000 0.46930  0.34380  0.79590  Biso   1.000  C
  C120     1.0000 0.53070  0.34380  0.70410  Biso   1.000  C
  H81      1.0000 0.05300  0.10960  0.17090  Biso   1.000  H
  H82      1.0000 0.94700  0.10960  0.32910  Biso   1.000  H
  H83      1.0000 0.55300  0.60960  0.17090  Biso   1.000  H
  H84      1.0000 0.44700  0.60960  0.32910  Biso   1.000  H
  H85      1.0000 0.94700  0.89040  0.82910  Biso   1.000  H
  H86      1.0000 0.05300  0.89040  0.67090  Biso   1.000  H
  H87      1.0000 0.44700  0.39040  0.82910  Biso   1.000  H
  H88      1.0000 0.55300  0.39040  0.67090  Biso   1.000  H
  C121     1.0000 0.03060  0.29820  0.20390  Biso   1.000  C
  C122     1.0000 0.96940  0.29820  0.29610  Biso   1.000  C
  C123     1.0000 0.53060  0.79820  0.20390  Biso   1.000  C
  C124     1.0000 0.46940  0.79820  0.29610  Biso   1.000  C
  C125     1.0000 0.96940  0.70180  0.79610  Biso   1.000  C
  C126     1.0000 0.03060  0.70180  0.70390  Biso   1.000  C
  C127     1.0000 0.46940  0.20180  0.79610  Biso   1.000  C
  C128     1.0000 0.53060  0.20180  0.70390  Biso   1.000  C
  H89      1.0000 0.05270  0.34510  0.17060  Biso   1.000  H
  H90      1.0000 0.94730  0.34510  0.32940  Biso   1.000  H
  H91      1.0000 0.55270  0.84510  0.17060  Biso   1.000  H
  H92      1.0000 0.44730  0.84510  0.32940  Biso   1.000  H
  H93      1.0000 0.94730  0.65490  0.82940  Biso   1.000  H
  H94      1.0000 0.05270  0.65490  0.67060  Biso   1.000  H
  H95      1.0000 0.44730  0.15490  0.82940  Biso   1.000  H
  H96      1.0000 0.55270  0.15490  0.67060  Biso   1.000  H
  Cu1      1.0000 0.00000  0.85933  0.25000  Biso   1.000  Cu
  Cu2      1.0000 0.50000  0.35933  0.25000  Biso   1.000  Cu
  Cu3      1.0000 0.00000  0.14067  0.75000  Biso   1.000  Cu
  Cu4      1.0000 0.50000  0.64067  0.75000  Biso   1.000  Cu
  Cu5      1.0000 0.00000  0.59262  0.25000  Biso   1.000  Cu
  Cu6      1.0000 0.50000  0.09262  0.25000  Biso   1.000  Cu
  Cu7      1.0000 0.00000  0.40738  0.75000  Biso   1.000  Cu
  Cu8      1.0000 0.50000  0.90738  0.75000  Biso   1.000  Cu
  N1       1.0000 0.00000  0.08420  0.25000  Biso   1.000  N
  N2       1.0000 0.50000  0.58420  0.25000  Biso   1.000  N
  N3       1.0000 0.00000  0.91580  0.75000  Biso   1.000  N
  N4       1.0000 0.50000  0.41580  0.75000  Biso   1.000  N
  N5       1.0000 0.00000  0.36920  0.25000  Biso   1.000  N
  N6       1.0000 0.50000  0.86920  0.25000  Biso   1.000  N
  N7       1.0000 0.00000  0.63080  0.75000  Biso   1.000  N
  N8       1.0000 0.50000  0.13080  0.75000  Biso   1.000  N
  O1       1.0000 0.09240  0.84400  0.21409  Biso   1.000  O
  O2       1.0000 0.90760  0.84400  0.28591  Biso   1.000  O
  O3       1.0000 0.59240  0.34400  0.21409  Biso   1.000  O
  O4       1.0000 0.40760  0.34400  0.28591  Biso   1.000  O
  O5       1.0000 0.90760  0.15600  0.78591  Biso   1.000  O
  O6       1.0000 0.09240  0.15600  0.71409  Biso   1.000  O
  O7       1.0000 0.40760  0.65600  0.78591  Biso   1.000  O
  O8       1.0000 0.59240  0.65600  0.71409  Biso   1.000  O
  O9       1.0000 0.09871  0.61510  0.22572  Biso   1.000  O
  O10      1.0000 0.90129  0.61510  0.27428  Biso   1.000  O
  O11      1.0000 0.59871  0.11510  0.22572  Biso   1.000  O
  O12      1.0000 0.40129  0.11510  0.27428  Biso   1.000  O
  O13      1.0000 0.90129  0.38490  0.77428  Biso   1.000  O
  O14      1.0000 0.09871  0.38490  0.72572  Biso   1.000  O
  O15      1.0000 0.40129  0.88490  0.77428  Biso   1.000  O
  O16      1.0000 0.59871  0.88490  0.72572  Biso   1.000  O
  O17      1.0000 0.05380  0.83630  0.34576  Biso   1.000  O
  O18      1.0000 0.94620  0.83630  0.15424  Biso   1.000  O
  O19      1.0000 0.55380  0.33630  0.34576  Biso   1.000  O
  O20      1.0000 0.44620  0.33630  0.15424  Biso   1.000  O
  O21      1.0000 0.94620  0.16370  0.65424  Biso   1.000  O
  O22      1.0000 0.05380  0.16370  0.84576  Biso   1.000  O
  O23      1.0000 0.44620  0.66370  0.65424  Biso   1.000  O
  O24      1.0000 0.55380  0.66370  0.84576  Biso   1.000  O
  O25      1.0000 0.04067  0.60860  0.34877  Biso   1.000  O
  O26      1.0000 0.95933  0.60860  0.15123  Biso   1.000  O
  O27      1.0000 0.54067  0.10860  0.34877  Biso   1.000  O
  O28      1.0000 0.45933  0.10860  0.15123  Biso   1.000  O
  O29      1.0000 0.95933  0.39140  0.65123  Biso   1.000  O
  O30      1.0000 0.04067  0.39140  0.84877  Biso   1.000  O
  O31      1.0000 0.45933  0.89140  0.65123  Biso   1.000  O
  O32      1.0000 0.54067  0.89140  0.84877  Biso   1.000  O
  C129     1.0000 0.07380  0.81100  0.01350  Biso   1.000  C
  C130     1.0000 0.92620  0.81100  0.48650  Biso   1.000  C
  C131     1.0000 0.57380  0.31100  0.01350  Biso   1.000  C
  C132     1.0000 0.42620  0.31100  0.48650  Biso   1.000  C
  C133     1.0000 0.92620  0.18900  0.98650  Biso   1.000  C
  C134     1.0000 0.07380  0.18900  0.51350  Biso   1.000  C
  C135     1.0000 0.42620  0.68900  0.98650  Biso   1.000  C
  C136     1.0000 0.57380  0.68900  0.51350  Biso   1.000  C
  H97      1.0000 0.12400  0.81100  0.00600  Biso   1.000  H
  H98      1.0000 0.87600  0.81100  0.49400  Biso   1.000  H
  H99      1.0000 0.62400  0.31100  0.00600  Biso   1.000  H
  H100     1.0000 0.37600  0.31100  0.49400  Biso   1.000  H
  H101     1.0000 0.87600  0.18900  0.99400  Biso   1.000  H
  H102     1.0000 0.12400  0.18900  0.50600  Biso   1.000  H
  H103     1.0000 0.37600  0.68900  0.99400  Biso   1.000  H
  H104     1.0000 0.62400  0.68900  0.50600  Biso   1.000  H
  H105     1.0000 0.05900  0.71900  0.02400  Biso   1.000  H
  H106     1.0000 0.94100  0.71900  0.47600  Biso   1.000  H
  H107     1.0000 0.55900  0.21900  0.02400  Biso   1.000  H
  H108     1.0000 0.44100  0.21900  0.47600  Biso   1.000  H
  H109     1.0000 0.94100  0.28100  0.97600  Biso   1.000  H
  H110     1.0000 0.05900  0.28100  0.52400  Biso   1.000  H
  H111     1.0000 0.44100  0.78100  0.97600  Biso   1.000  H
  H112     1.0000 0.55900  0.78100  0.52400  Biso   1.000  H
  H113     1.0000 0.04300  0.84400  0.97200  Biso   1.000  H
  H114     1.0000 0.95700  0.84400  0.52800  Biso   1.000  H
  H115     1.0000 0.54300  0.34400  0.97200  Biso   1.000  H
  H116     1.0000 0.45700  0.34400  0.52800  Biso   1.000  H
  H117     1.0000 0.95700  0.15600  0.02800  Biso   1.000  H
  H118     1.0000 0.04300  0.15600  0.47200  Biso   1.000  H
  H119     1.0000 0.45700  0.65600  0.02800  Biso   1.000  H
  H120     1.0000 0.54300  0.65600  0.47200  Biso   1.000  H
  H121     1.0000 0.06900  0.87100  0.05200  Biso   1.000  H
  H122     1.0000 0.93100  0.87100  0.44800  Biso   1.000  H
  H123     1.0000 0.56900  0.37100  0.05200  Biso   1.000  H
  H124     1.0000 0.43100  0.37100  0.44800  Biso   1.000  H
  H125     1.0000 0.93100  0.12900  0.94800  Biso   1.000  H
  H126     1.0000 0.06900  0.12900  0.55200  Biso   1.000  H
  H127     1.0000 0.43100  0.62900  0.94800  Biso   1.000  H
  H128     1.0000 0.56900  0.62900  0.55200  Biso   1.000  H
