data_image0
_cell_length_a       18.563
_cell_length_b       9.7095
_cell_length_c       19.354
_cell_angle_alpha    90
_cell_angle_beta     99.259
_cell_angle_gamma    90

_symmetry_space_group_name_H-M    "P 1"
_symmetry_int_tables_number       1

loop_
  _symmetry_equiv_pos_as_xyz
  'x, y, z'

loop_
  _atom_site_label
  _atom_site_occupancy
  _atom_site_fract_x
  _atom_site_fract_y
  _atom_site_fract_z
  _atom_site_thermal_displace_type
  _atom_site_B_iso_or_equiv
  _atom_site_type_symbol
  C1       1.0000 0.87630  0.73100  0.28840  Biso   1.000  C
  C2       1.0000 0.12370  0.73100  0.21160  Biso   1.000  C
  C3       1.0000 0.37630  0.23100  0.28840  Biso   1.000  C
  C4       1.0000 0.62370  0.23100  0.21160  Biso   1.000  C
  C5       1.0000 0.12370  0.26900  0.71160  Biso   1.000  C
  C6       1.0000 0.87630  0.26900  0.78840  Biso   1.000  C
  C7       1.0000 0.62370  0.76900  0.71160  Biso   1.000  C
  C8       1.0000 0.37630  0.76900  0.78840  Biso   1.000  C
  C9       1.0000 0.80180  0.73090  0.30830  Biso   1.000  C
  C10      1.0000 0.19820  0.73090  0.19170  Biso   1.000  C
  C11      1.0000 0.30180  0.23090  0.30830  Biso   1.000  C
  C12      1.0000 0.69820  0.23090  0.19170  Biso   1.000  C
  C13      1.0000 0.19820  0.26910  0.69170  Biso   1.000  C
  C14      1.0000 0.80180  0.26910  0.80830  Biso   1.000  C
  C15      1.0000 0.69820  0.76910  0.69170  Biso   1.000  C
  C16      1.0000 0.30180  0.76910  0.80830  Biso   1.000  C
  C17      1.0000 0.77220  0.85120  0.32990  Biso   1.000  C
  C18      1.0000 0.22780  0.85120  0.17010  Biso   1.000  C
  C19      1.0000 0.27220  0.35120  0.32990  Biso   1.000  C
  C20      1.0000 0.72780  0.35120  0.17010  Biso   1.000  C
  C21      1.0000 0.22780  0.14880  0.67010  Biso   1.000  C
  C22      1.0000 0.77220  0.14880  0.82990  Biso   1.000  C
  C23      1.0000 0.72780  0.64880  0.67010  Biso   1.000  C
  C24      1.0000 0.27220  0.64880  0.82990  Biso   1.000  C
  H1       1.0000 0.79890  0.93490  0.33060  Biso   1.000  H
  H2       1.0000 0.20110  0.93490  0.16940  Biso   1.000  H
  H3       1.0000 0.29890  0.43490  0.33060  Biso   1.000  H
  H4       1.0000 0.70110  0.43490  0.16940  Biso   1.000  H
  H5       1.0000 0.20110  0.06510  0.66940  Biso   1.000  H
  H6       1.0000 0.79890  0.06510  0.83060  Biso   1.000  H
  H7       1.0000 0.70110  0.56510  0.66940  Biso   1.000  H
  H8       1.0000 0.29890  0.56510  0.83060  Biso   1.000  H
  C25      1.0000 0.70500  0.85090  0.35000  Biso   1.000  C
  C26      1.0000 0.29500  0.85090  0.15000  Biso   1.000  C
  C27      1.0000 0.20500  0.35090  0.35000  Biso   1.000  C
  C28      1.0000 0.79500  0.35090  0.15000  Biso   1.000  C
  C29      1.0000 0.29500  0.14910  0.65000  Biso   1.000  C
  C30      1.0000 0.70500  0.14910  0.85000  Biso   1.000  C
  C31      1.0000 0.79500  0.64910  0.65000  Biso   1.000  C
  C32      1.0000 0.20500  0.64910  0.85000  Biso   1.000  C
  H9       1.0000 0.68490  0.93410  0.36430  Biso   1.000  H
  H10      1.0000 0.31510  0.93410  0.13570  Biso   1.000  H
  H11      1.0000 0.18490  0.43410  0.36430  Biso   1.000  H
  H12      1.0000 0.81510  0.43410  0.13570  Biso   1.000  H
  H13      1.0000 0.31510  0.06590  0.63570  Biso   1.000  H
  H14      1.0000 0.68490  0.06590  0.86430  Biso   1.000  H
  H15      1.0000 0.81510  0.56590  0.63570  Biso   1.000  H
  H16      1.0000 0.18490  0.56590  0.86430  Biso   1.000  H
  C33      1.0000 0.66670  0.73010  0.34940  Biso   1.000  C
  C34      1.0000 0.33330  0.73010  0.15060  Biso   1.000  C
  C35      1.0000 0.16670  0.23010  0.34940  Biso   1.000  C
  C36      1.0000 0.83330  0.23010  0.15060  Biso   1.000  C
  C37      1.0000 0.33330  0.26990  0.65060  Biso   1.000  C
  C38      1.0000 0.66670  0.26990  0.84940  Biso   1.000  C
  C39      1.0000 0.83330  0.76990  0.65060  Biso   1.000  C
  C40      1.0000 0.16670  0.76990  0.84940  Biso   1.000  C
  H17      1.0000 0.62070  0.72890  0.36500  Biso   1.000  H
  H18      1.0000 0.37930  0.72890  0.13500  Biso   1.000  H
  H19      1.0000 0.12070  0.22890  0.36500  Biso   1.000  H
  H20      1.0000 0.87930  0.22890  0.13500  Biso   1.000  H
  H21      1.0000 0.37930  0.27110  0.63500  Biso   1.000  H
  H22      1.0000 0.62070  0.27110  0.86500  Biso   1.000  H
  H23      1.0000 0.87930  0.77110  0.63500  Biso   1.000  H
  H24      1.0000 0.12070  0.77110  0.86500  Biso   1.000  H
  C41      1.0000 0.69450  0.61190  0.32650  Biso   1.000  C
  C42      1.0000 0.30550  0.61190  0.17350  Biso   1.000  C
  C43      1.0000 0.19450  0.11190  0.32650  Biso   1.000  C
  C44      1.0000 0.80550  0.11190  0.17350  Biso   1.000  C
  C45      1.0000 0.30550  0.38810  0.67350  Biso   1.000  C
  C46      1.0000 0.69450  0.38810  0.82650  Biso   1.000  C
  C47      1.0000 0.80550  0.88810  0.67350  Biso   1.000  C
  C48      1.0000 0.19450  0.88810  0.82650  Biso   1.000  C
  H25      1.0000 0.66700  0.52910  0.32410  Biso   1.000  H
  H26      1.0000 0.33300  0.52910  0.17590  Biso   1.000  H
  H27      1.0000 0.16700  0.02910  0.32410  Biso   1.000  H
  H28      1.0000 0.83300  0.02910  0.17590  Biso   1.000  H
  H29      1.0000 0.33300  0.47090  0.67590  Biso   1.000  H
  H30      1.0000 0.66700  0.47090  0.82410  Biso   1.000  H
  H31      1.0000 0.83300  0.97090  0.67590  Biso   1.000  H
  H32      1.0000 0.16700  0.97090  0.82410  Biso   1.000  H
  C49      1.0000 0.76180  0.61230  0.30690  Biso   1.000  C
  C50      1.0000 0.23820  0.61230  0.19310  Biso   1.000  C
  C51      1.0000 0.26180  0.11230  0.30690  Biso   1.000  C
  C52      1.0000 0.73820  0.11230  0.19310  Biso   1.000  C
  C53      1.0000 0.23820  0.38770  0.69310  Biso   1.000  C
  C54      1.0000 0.76180  0.38770  0.80690  Biso   1.000  C
  C55      1.0000 0.73820  0.88770  0.69310  Biso   1.000  C
  C56      1.0000 0.26180  0.88770  0.80690  Biso   1.000  C
  H33      1.0000 0.78130  0.52890  0.29200  Biso   1.000  H
  H34      1.0000 0.21870  0.52890  0.20800  Biso   1.000  H
  H35      1.0000 0.28130  0.02890  0.29200  Biso   1.000  H
  H36      1.0000 0.71870  0.02890  0.20800  Biso   1.000  H
  H37      1.0000 0.21870  0.47110  0.70800  Biso   1.000  H
  H38      1.0000 0.78130  0.47110  0.79200  Biso   1.000  H
  H39      1.0000 0.71870  0.97110  0.70800  Biso   1.000  H
  H40      1.0000 0.28130  0.97110  0.79200  Biso   1.000  H
  C57      1.0000 0.93530  0.72250  0.12430  Biso   1.000  C
  C58      1.0000 0.06470  0.72250  0.37570  Biso   1.000  C
  C59      1.0000 0.43530  0.22250  0.12430  Biso   1.000  C
  C60      1.0000 0.56470  0.22250  0.37570  Biso   1.000  C
  C61      1.0000 0.06470  0.27750  0.87570  Biso   1.000  C
  C62      1.0000 0.93530  0.27750  0.62430  Biso   1.000  C
  C63      1.0000 0.56470  0.77750  0.87570  Biso   1.000  C
  C64      1.0000 0.43530  0.77750  0.62430  Biso   1.000  C
  C65      1.0000 0.89570  0.71900  0.05140  Biso   1.000  C
  C66      1.0000 0.10430  0.71900  0.44860  Biso   1.000  C
  C67      1.0000 0.39570  0.21900  0.05140  Biso   1.000  C
  C68      1.0000 0.60430  0.21900  0.44860  Biso   1.000  C
  C69      1.0000 0.10430  0.28100  0.94860  Biso   1.000  C
  C70      1.0000 0.89570  0.28100  0.55140  Biso   1.000  C
  C71      1.0000 0.60430  0.78100  0.94860  Biso   1.000  C
  C72      1.0000 0.39570  0.78100  0.55140  Biso   1.000  C
  C73      1.0000 0.86090  0.83340  0.02220  Biso   1.000  C
  C74      1.0000 0.13910  0.83340  0.47780  Biso   1.000  C
  C75      1.0000 0.36090  0.33340  0.02220  Biso   1.000  C
  C76      1.0000 0.63910  0.33340  0.47780  Biso   1.000  C
  C77      1.0000 0.13910  0.16660  0.97780  Biso   1.000  C
  C78      1.0000 0.86090  0.16660  0.52220  Biso   1.000  C
  C79      1.0000 0.63910  0.66660  0.97780  Biso   1.000  C
  C80      1.0000 0.36090  0.66660  0.52220  Biso   1.000  C
  H41      1.0000 0.86240  0.91690  0.04800  Biso   1.000  H
  H42      1.0000 0.13760  0.91690  0.45200  Biso   1.000  H
  H43      1.0000 0.36240  0.41690  0.04800  Biso   1.000  H
  H44      1.0000 0.63760  0.41690  0.45200  Biso   1.000  H
  H45      1.0000 0.13760  0.08310  0.95200  Biso   1.000  H
  H46      1.0000 0.86240  0.08310  0.54800  Biso   1.000  H
  H47      1.0000 0.63760  0.58310  0.95200  Biso   1.000  H
  H48      1.0000 0.36240  0.58310  0.54800  Biso   1.000  H
  C81      1.0000 0.82300  0.82660  0.95430  Biso   1.000  C
  C82      1.0000 0.17700  0.82660  0.54570  Biso   1.000  C
  C83      1.0000 0.32300  0.32660  0.95430  Biso   1.000  C
  C84      1.0000 0.67700  0.32660  0.54570  Biso   1.000  C
  C85      1.0000 0.17700  0.17340  0.04570  Biso   1.000  C
  C86      1.0000 0.82300  0.17340  0.45430  Biso   1.000  C
  C87      1.0000 0.67700  0.67340  0.04570  Biso   1.000  C
  C88      1.0000 0.32300  0.67340  0.45430  Biso   1.000  C
  H49      1.0000 0.79780  0.90600  0.93450  Biso   1.000  H
  H50      1.0000 0.20220  0.90600  0.56550  Biso   1.000  H
  H51      1.0000 0.29780  0.40600  0.93450  Biso   1.000  H
  H52      1.0000 0.70220  0.40600  0.56550  Biso   1.000  H
  H53      1.0000 0.20220  0.09400  0.06550  Biso   1.000  H
  H54      1.0000 0.79780  0.09400  0.43450  Biso   1.000  H
  H55      1.0000 0.70220  0.59400  0.06550  Biso   1.000  H
  H56      1.0000 0.29780  0.59400  0.43450  Biso   1.000  H
  C89      1.0000 0.82100  0.71140  0.91600  Biso   1.000  C
  C90      1.0000 0.17900  0.71140  0.58400  Biso   1.000  C
  C91      1.0000 0.32100  0.21140  0.91600  Biso   1.000  C
  C92      1.0000 0.67900  0.21140  0.58400  Biso   1.000  C
  C93      1.0000 0.17900  0.28860  0.08400  Biso   1.000  C
  C94      1.0000 0.82100  0.28860  0.41600  Biso   1.000  C
  C95      1.0000 0.67900  0.78860  0.08400  Biso   1.000  C
  C96      1.0000 0.32100  0.78860  0.41600  Biso   1.000  C
  H57      1.0000 0.79540  0.70950  0.86930  Biso   1.000  H
  H58      1.0000 0.20460  0.70950  0.63070  Biso   1.000  H
  H59      1.0000 0.29540  0.20950  0.86930  Biso   1.000  H
  H60      1.0000 0.70460  0.20950  0.63070  Biso   1.000  H
  H61      1.0000 0.20460  0.29050  0.13070  Biso   1.000  H
  H62      1.0000 0.79540  0.29050  0.36930  Biso   1.000  H
  H63      1.0000 0.70460  0.79050  0.13070  Biso   1.000  H
  H64      1.0000 0.29540  0.79050  0.36930  Biso   1.000  H
  C97      1.0000 0.85610  0.59750  0.94480  Biso   1.000  C
  C98      1.0000 0.14390  0.59750  0.55520  Biso   1.000  C
  C99      1.0000 0.35610  0.09750  0.94480  Biso   1.000  C
  C100     1.0000 0.64390  0.09750  0.55520  Biso   1.000  C
  C101     1.0000 0.14390  0.40250  0.05520  Biso   1.000  C
  C102     1.0000 0.85610  0.40250  0.44480  Biso   1.000  C
  C103     1.0000 0.64390  0.90250  0.05520  Biso   1.000  C
  C104     1.0000 0.35610  0.90250  0.44480  Biso   1.000  C
  H65      1.0000 0.85550  0.51550  0.91790  Biso   1.000  H
  H66      1.0000 0.14450  0.51550  0.58210  Biso   1.000  H
  H67      1.0000 0.35550  0.01550  0.91790  Biso   1.000  H
  H68      1.0000 0.64450  0.01550  0.58210  Biso   1.000  H
  H69      1.0000 0.14450  0.48450  0.08210  Biso   1.000  H
  H70      1.0000 0.85550  0.48450  0.41790  Biso   1.000  H
  H71      1.0000 0.64450  0.98450  0.08210  Biso   1.000  H
  H72      1.0000 0.35550  0.98450  0.41790  Biso   1.000  H
  C105     1.0000 0.89230  0.60000  0.01230  Biso   1.000  C
  C106     1.0000 0.10770  0.60000  0.48770  Biso   1.000  C
  C107     1.0000 0.39230  0.10000  0.01230  Biso   1.000  C
  C108     1.0000 0.60770  0.10000  0.48770  Biso   1.000  C
  C109     1.0000 0.10770  0.40000  0.98770  Biso   1.000  C
  C110     1.0000 0.89230  0.40000  0.51230  Biso   1.000  C
  C111     1.0000 0.60770  0.90000  0.98770  Biso   1.000  C
  C112     1.0000 0.39230  0.90000  0.51230  Biso   1.000  C
  H73      1.0000 0.91530  0.51870  0.03230  Biso   1.000  H
  H74      1.0000 0.08470  0.51870  0.46770  Biso   1.000  H
  H75      1.0000 0.41530  0.01870  0.03230  Biso   1.000  H
  H76      1.0000 0.58470  0.01870  0.46770  Biso   1.000  H
  H77      1.0000 0.08470  0.48130  0.96770  Biso   1.000  H
  H78      1.0000 0.91530  0.48130  0.53230  Biso   1.000  H
  H79      1.0000 0.58470  0.98130  0.96770  Biso   1.000  H
  H80      1.0000 0.41530  0.98130  0.53230  Biso   1.000  H
  C113     1.0000 0.03000  0.15600  0.20440  Biso   1.000  C
  C114     1.0000 0.97000  0.15600  0.29560  Biso   1.000  C
  C115     1.0000 0.53000  0.65600  0.20440  Biso   1.000  C
  C116     1.0000 0.47000  0.65600  0.29560  Biso   1.000  C
  C117     1.0000 0.97000  0.84400  0.79560  Biso   1.000  C
  C118     1.0000 0.03000  0.84400  0.70440  Biso   1.000  C
  C119     1.0000 0.47000  0.34400  0.79560  Biso   1.000  C
  C120     1.0000 0.53000  0.34400  0.70440  Biso   1.000  C
  H81      1.0000 0.05240  0.10810  0.17060  Biso   1.000  H
  H82      1.0000 0.94760  0.10810  0.32940  Biso   1.000  H
  H83      1.0000 0.55240  0.60810  0.17060  Biso   1.000  H
  H84      1.0000 0.44760  0.60810  0.32940  Biso   1.000  H
  H85      1.0000 0.94760  0.89190  0.82940  Biso   1.000  H
  H86      1.0000 0.05240  0.89190  0.67060  Biso   1.000  H
  H87      1.0000 0.44760  0.39190  0.82940  Biso   1.000  H
  H88      1.0000 0.55240  0.39190  0.67060  Biso   1.000  H
  C121     1.0000 0.03010  0.29810  0.20370  Biso   1.000  C
  C122     1.0000 0.96990  0.29810  0.29630  Biso   1.000  C
  C123     1.0000 0.53010  0.79810  0.20370  Biso   1.000  C
  C124     1.0000 0.46990  0.79810  0.29630  Biso   1.000  C
  C125     1.0000 0.96990  0.70190  0.79630  Biso   1.000  C
  C126     1.0000 0.03010  0.70190  0.70370  Biso   1.000  C
  C127     1.0000 0.46990  0.20190  0.79630  Biso   1.000  C
  C128     1.0000 0.53010  0.20190  0.70370  Biso   1.000  C
  H89      1.0000 0.05200  0.34560  0.16950  Biso   1.000  H
  H90      1.0000 0.94800  0.34560  0.33050  Biso   1.000  H
  H91      1.0000 0.55200  0.84560  0.16950  Biso   1.000  H
  H92      1.0000 0.44800  0.84560  0.33050  Biso   1.000  H
  H93      1.0000 0.94800  0.65440  0.83050  Biso   1.000  H
  H94      1.0000 0.05200  0.65440  0.66950  Biso   1.000  H
  H95      1.0000 0.44800  0.15440  0.83050  Biso   1.000  H
  H96      1.0000 0.55200  0.15440  0.66950  Biso   1.000  H
  Cu1      1.0000 0.00000  0.85956  0.25000  Biso   1.000  Cu
  Cu2      1.0000 0.50000  0.35956  0.25000  Biso   1.000  Cu
  Cu3      1.0000 0.00000  0.14044  0.75000  Biso   1.000  Cu
  Cu4      1.0000 0.50000  0.64044  0.75000  Biso   1.000  Cu
  Cu5      1.0000 0.00000  0.59307  0.25000  Biso   1.000  Cu
  Cu6      1.0000 0.50000  0.09307  0.25000  Biso   1.000  Cu
  Cu7      1.0000 0.00000  0.40693  0.75000  Biso   1.000  Cu
  Cu8      1.0000 0.50000  0.90693  0.75000  Biso   1.000  Cu
  N1       1.0000 0.00000  0.08420  0.25000  Biso   1.000  N
  N2       1.0000 0.50000  0.58420  0.25000  Biso   1.000  N
  N3       1.0000 0.00000  0.91580  0.75000  Biso   1.000  N
  N4       1.0000 0.50000  0.41580  0.75000  Biso   1.000  N
  N5       1.0000 0.00000  0.36910  0.25000  Biso   1.000  N
  N6       1.0000 0.50000  0.86910  0.25000  Biso   1.000  N
  N7       1.0000 0.00000  0.63090  0.75000  Biso   1.000  N
  N8       1.0000 0.50000  0.13090  0.75000  Biso   1.000  N
  O1       1.0000 0.90783  0.84440  0.28593  Biso   1.000  O
  O2       1.0000 0.09217  0.84440  0.21407  Biso   1.000  O
  O3       1.0000 0.40783  0.34440  0.28593  Biso   1.000  O
  O4       1.0000 0.59217  0.34440  0.21407  Biso   1.000  O
  O5       1.0000 0.09217  0.15560  0.71407  Biso   1.000  O
  O6       1.0000 0.90783  0.15560  0.78593  Biso   1.000  O
  O7       1.0000 0.59217  0.65560  0.71407  Biso   1.000  O
  O8       1.0000 0.40783  0.65560  0.78593  Biso   1.000  O
  O9       1.0000 0.90205  0.61560  0.27471  Biso   1.000  O
  O10      1.0000 0.09795  0.61560  0.22529  Biso   1.000  O
  O11      1.0000 0.40205  0.11560  0.27471  Biso   1.000  O
  O12      1.0000 0.59795  0.11560  0.22529  Biso   1.000  O
  O13      1.0000 0.09795  0.38440  0.72529  Biso   1.000  O
  O14      1.0000 0.90205  0.38440  0.77471  Biso   1.000  O
  O15      1.0000 0.59795  0.88440  0.72529  Biso   1.000  O
  O16      1.0000 0.40205  0.88440  0.77471  Biso   1.000  O
  O17      1.0000 0.94490  0.83730  0.15444  Biso   1.000  O
  O18      1.0000 0.05510  0.83730  0.34556  Biso   1.000  O
  O19      1.0000 0.44490  0.33730  0.15444  Biso   1.000  O
  O20      1.0000 0.55510  0.33730  0.34556  Biso   1.000  O
  O21      1.0000 0.05510  0.16270  0.84556  Biso   1.000  O
  O22      1.0000 0.94490  0.16270  0.65444  Biso   1.000  O
  O23      1.0000 0.55510  0.66270  0.84556  Biso   1.000  O
  O24      1.0000 0.44490  0.66270  0.65444  Biso   1.000  O
  O25      1.0000 0.95777  0.60850  0.15111  Biso   1.000  O
  O26      1.0000 0.04223  0.60850  0.34889  Biso   1.000  O
  O27      1.0000 0.45777  0.10850  0.15111  Biso   1.000  O
  O28      1.0000 0.54223  0.10850  0.34889  Biso   1.000  O
  O29      1.0000 0.04223  0.39150  0.84889  Biso   1.000  O
  O30      1.0000 0.95777  0.39150  0.65111  Biso   1.000  O
  O31      1.0000 0.54223  0.89150  0.84889  Biso   1.000  O
  O32      1.0000 0.45777  0.89150  0.65111  Biso   1.000  O
  C129     1.0000 0.07330  0.80590  0.01290  Biso   1.000  C
  C130     1.0000 0.92670  0.80590  0.48710  Biso   1.000  C
  C131     1.0000 0.57330  0.30590  0.01290  Biso   1.000  C
  C132     1.0000 0.42670  0.30590  0.48710  Biso   1.000  C
  C133     1.0000 0.92670  0.19410  0.98710  Biso   1.000  C
  C134     1.0000 0.07330  0.19410  0.51290  Biso   1.000  C
  C135     1.0000 0.42670  0.69410  0.98710  Biso   1.000  C
  C136     1.0000 0.57330  0.69410  0.51290  Biso   1.000  C
  H97      1.0000 0.05200  0.84700  0.96900  Biso   1.000  H
  H98      1.0000 0.94800  0.84700  0.53100  Biso   1.000  H
  H99      1.0000 0.55200  0.34700  0.96900  Biso   1.000  H
  H100     1.0000 0.44800  0.34700  0.53100  Biso   1.000  H
  H101     1.0000 0.94800  0.15300  0.03100  Biso   1.000  H
  H102     1.0000 0.05200  0.15300  0.46900  Biso   1.000  H
  H103     1.0000 0.44800  0.65300  0.03100  Biso   1.000  H
  H104     1.0000 0.55200  0.65300  0.46900  Biso   1.000  H
  H105     1.0000 0.12510  0.79900  0.01400  Biso   1.000  H
  H106     1.0000 0.87490  0.79900  0.48600  Biso   1.000  H
  H107     1.0000 0.62510  0.29900  0.01400  Biso   1.000  H
  H108     1.0000 0.37490  0.29900  0.48600  Biso   1.000  H
  H109     1.0000 0.87490  0.20100  0.98600  Biso   1.000  H
  H110     1.0000 0.12510  0.20100  0.51400  Biso   1.000  H
  H111     1.0000 0.37490  0.70100  0.98600  Biso   1.000  H
  H112     1.0000 0.62510  0.70100  0.51400  Biso   1.000  H
  H113     1.0000 0.06300  0.86200  0.05100  Biso   1.000  H
  H114     1.0000 0.93700  0.86200  0.44900  Biso   1.000  H
  H115     1.0000 0.56300  0.36200  0.05100  Biso   1.000  H
  H116     1.0000 0.43700  0.36200  0.44900  Biso   1.000  H
  H117     1.0000 0.93700  0.13800  0.94900  Biso   1.000  H
  H118     1.0000 0.06300  0.13800  0.55100  Biso   1.000  H
  H119     1.0000 0.43700  0.63800  0.94900  Biso   1.000  H
  H120     1.0000 0.56300  0.63800  0.55100  Biso   1.000  H
  H121     1.0000 0.05300  0.71500  0.01700  Biso   1.000  H
  H122     1.0000 0.94700  0.71500  0.48300  Biso   1.000  H
  H123     1.0000 0.55300  0.21500  0.01700  Biso   1.000  H
  H124     1.0000 0.44700  0.21500  0.48300  Biso   1.000  H
  H125     1.0000 0.94700  0.28500  0.98300  Biso   1.000  H
  H126     1.0000 0.05300  0.28500  0.51700  Biso   1.000  H
  H127     1.0000 0.44700  0.78500  0.98300  Biso   1.000  H
  H128     1.0000 0.55300  0.78500  0.51700  Biso   1.000  H
