data_image0
_cell_length_a       19.229
_cell_length_b       11.281
_cell_length_c       7.621
_cell_angle_alpha    90
_cell_angle_beta     104.305
_cell_angle_gamma    90

_symmetry_space_group_name_H-M    "P 1"
_symmetry_int_tables_number       1

loop_
  _symmetry_equiv_pos_as_xyz
  'x, y, z'

loop_
  _atom_site_label
  _atom_site_occupancy
  _atom_site_fract_x
  _atom_site_fract_y
  _atom_site_fract_z
  _atom_site_thermal_displace_type
  _atom_site_B_iso_or_equiv
  _atom_site_type_symbol
  Cu1      1.0000 0.00000  0.37032  0.25000  Biso   1.000  Cu
  Cu2      1.0000 0.50000  0.87032  0.25000  Biso   1.000  Cu
  Cu3      1.0000 0.00000  0.62968  0.75000  Biso   1.000  Cu
  Cu4      1.0000 0.50000  0.12968  0.75000  Biso   1.000  Cu
  F1       1.0000 0.79790  0.54260  0.92430  Biso   1.000  F
  F2       1.0000 0.29790  0.04260  0.92430  Biso   1.000  F
  F3       1.0000 0.20210  0.54260  0.57570  Biso   1.000  F
  F4       1.0000 0.70210  0.04260  0.57570  Biso   1.000  F
  F5       1.0000 0.20210  0.45740  0.07570  Biso   1.000  F
  F6       1.0000 0.70210  0.95740  0.07570  Biso   1.000  F
  F7       1.0000 0.79790  0.45740  0.42430  Biso   1.000  F
  F8       1.0000 0.29790  0.95740  0.42430  Biso   1.000  F
  F9       1.0000 0.81590  0.65100  0.14800  Biso   1.000  F
  F10      1.0000 0.31590  0.15100  0.14800  Biso   1.000  F
  F11      1.0000 0.18410  0.65100  0.35200  Biso   1.000  F
  F12      1.0000 0.68410  0.15100  0.35200  Biso   1.000  F
  F13      1.0000 0.18410  0.34900  0.85200  Biso   1.000  F
  F14      1.0000 0.68410  0.84900  0.85200  Biso   1.000  F
  F15      1.0000 0.81590  0.34900  0.64800  Biso   1.000  F
  F16      1.0000 0.31590  0.84900  0.64800  Biso   1.000  F
  F17      1.0000 0.83490  0.71140  0.90690  Biso   1.000  F
  F18      1.0000 0.33490  0.21140  0.90690  Biso   1.000  F
  F19      1.0000 0.16510  0.71140  0.59310  Biso   1.000  F
  F20      1.0000 0.66510  0.21140  0.59310  Biso   1.000  F
  F21      1.0000 0.16510  0.28860  0.09310  Biso   1.000  F
  F22      1.0000 0.66510  0.78860  0.09310  Biso   1.000  F
  F23      1.0000 0.83490  0.28860  0.40690  Biso   1.000  F
  F24      1.0000 0.33490  0.78860  0.40690  Biso   1.000  F
  N1       1.0000 0.93440  0.23510  0.14420  Biso   1.000  N
  N2       1.0000 0.43440  0.73510  0.14420  Biso   1.000  N
  N3       1.0000 0.06560  0.23510  0.35580  Biso   1.000  N
  N4       1.0000 0.56560  0.73510  0.35580  Biso   1.000  N
  N5       1.0000 0.06560  0.76490  0.85580  Biso   1.000  N
  N6       1.0000 0.56560  0.26490  0.85580  Biso   1.000  N
  N7       1.0000 0.93440  0.76490  0.64420  Biso   1.000  N
  N8       1.0000 0.43440  0.26490  0.64420  Biso   1.000  N
  O1       1.0000 0.92130  0.47890  0.15970  Biso   1.000  O
  O2       1.0000 0.42130  0.97890  0.15970  Biso   1.000  O
  O3       1.0000 0.07870  0.47890  0.34030  Biso   1.000  O
  O4       1.0000 0.57870  0.97890  0.34030  Biso   1.000  O
  O5       1.0000 0.07870  0.52110  0.84030  Biso   1.000  O
  O6       1.0000 0.57870  0.02110  0.84030  Biso   1.000  O
  O7       1.0000 0.92130  0.52110  0.65970  Biso   1.000  O
  O8       1.0000 0.42130  0.02110  0.65970  Biso   1.000  O
  O9       1.0000 0.96580  0.63200  0.03620  Biso   1.000  O
  O10      1.0000 0.46580  0.13200  0.03620  Biso   1.000  O
  O11      1.0000 0.03420  0.63200  0.46380  Biso   1.000  O
  O12      1.0000 0.53420  0.13200  0.46380  Biso   1.000  O
  O13      1.0000 0.03420  0.36800  0.96380  Biso   1.000  O
  O14      1.0000 0.53420  0.86800  0.96380  Biso   1.000  O
  O15      1.0000 0.96580  0.36800  0.53620  Biso   1.000  O
  O16      1.0000 0.46580  0.86800  0.53620  Biso   1.000  O
  C1       1.0000 0.87070  0.23860  0.03630  Biso   1.000  C
  C2       1.0000 0.37070  0.73860  0.03630  Biso   1.000  C
  C3       1.0000 0.12930  0.23860  0.46370  Biso   1.000  C
  C4       1.0000 0.62930  0.73860  0.46370  Biso   1.000  C
  C5       1.0000 0.12930  0.76140  0.96370  Biso   1.000  C
  C6       1.0000 0.62930  0.26140  0.96370  Biso   1.000  C
  C7       1.0000 0.87070  0.76140  0.53630  Biso   1.000  C
  C8       1.0000 0.37070  0.26140  0.53630  Biso   1.000  C
  H1       1.0000 0.84970  0.31190  0.00170  Biso   1.000  H
  H2       1.0000 0.34970  0.81190  0.00170  Biso   1.000  H
  H3       1.0000 0.15030  0.31190  0.49830  Biso   1.000  H
  H4       1.0000 0.65030  0.81190  0.49830  Biso   1.000  H
  H5       1.0000 0.15030  0.68810  0.99830  Biso   1.000  H
  H6       1.0000 0.65030  0.18810  0.99830  Biso   1.000  H
  H7       1.0000 0.84970  0.68810  0.50170  Biso   1.000  H
  H8       1.0000 0.34970  0.18810  0.50170  Biso   1.000  H
  C9       1.0000 0.83240  0.13580  0.97020  Biso   1.000  C
  C10      1.0000 0.33240  0.63580  0.97020  Biso   1.000  C
  C11      1.0000 0.16760  0.13580  0.52980  Biso   1.000  C
  C12      1.0000 0.66760  0.63580  0.52980  Biso   1.000  C
  C13      1.0000 0.16760  0.86420  0.02980  Biso   1.000  C
  C14      1.0000 0.66760  0.36420  0.02980  Biso   1.000  C
  C15      1.0000 0.83240  0.86420  0.47020  Biso   1.000  C
  C16      1.0000 0.33240  0.36420  0.47020  Biso   1.000  C
  H9       1.0000 0.78690  0.14130  0.89250  Biso   1.000  H
  H10      1.0000 0.28690  0.64130  0.89250  Biso   1.000  H
  H11      1.0000 0.21310  0.14130  0.60750  Biso   1.000  H
  H12      1.0000 0.71310  0.64130  0.60750  Biso   1.000  H
  H13      1.0000 0.21310  0.85870  0.10750  Biso   1.000  H
  H14      1.0000 0.71310  0.35870  0.10750  Biso   1.000  H
  H15      1.0000 0.78690  0.85870  0.39250  Biso   1.000  H
  H16      1.0000 0.28690  0.35870  0.39250  Biso   1.000  H
  C17      1.0000 0.86200  0.02900  0.01970  Biso   1.000  C
  C18      1.0000 0.36200  0.52900  0.01970  Biso   1.000  C
  C19      1.0000 0.13800  0.02900  0.48030  Biso   1.000  C
  C20      1.0000 0.63800  0.52900  0.48030  Biso   1.000  C
  C21      1.0000 0.13800  0.97100  0.98030  Biso   1.000  C
  C22      1.0000 0.63800  0.47100  0.98030  Biso   1.000  C
  C23      1.0000 0.86200  0.97100  0.51970  Biso   1.000  C
  C24      1.0000 0.36200  0.47100  0.51970  Biso   1.000  C
  H17      1.0000 0.83640  0.96030  0.97830  Biso   1.000  H
  H18      1.0000 0.33640  0.46030  0.97830  Biso   1.000  H
  H19      1.0000 0.16360  0.96030  0.52170  Biso   1.000  H
  H20      1.0000 0.66360  0.46030  0.52170  Biso   1.000  H
  H21      1.0000 0.16360  0.03970  0.02170  Biso   1.000  H
  H22      1.0000 0.66360  0.53970  0.02170  Biso   1.000  H
  H23      1.0000 0.83640  0.03970  0.47830  Biso   1.000  H
  H24      1.0000 0.33640  0.53970  0.47830  Biso   1.000  H
  C25      1.0000 0.93080  0.02130  0.13290  Biso   1.000  C
  C26      1.0000 0.43080  0.52130  0.13290  Biso   1.000  C
  C27      1.0000 0.06920  0.02130  0.36710  Biso   1.000  C
  C28      1.0000 0.56920  0.52130  0.36710  Biso   1.000  C
  C29      1.0000 0.06920  0.97870  0.86710  Biso   1.000  C
  C30      1.0000 0.56920  0.47870  0.86710  Biso   1.000  C
  C31      1.0000 0.93080  0.97870  0.63290  Biso   1.000  C
  C32      1.0000 0.43080  0.47870  0.63290  Biso   1.000  C
  C33      1.0000 0.96500  0.12750  0.19220  Biso   1.000  C
  C34      1.0000 0.46500  0.62750  0.19220  Biso   1.000  C
  C35      1.0000 0.03500  0.12750  0.30780  Biso   1.000  C
  C36      1.0000 0.53500  0.62750  0.30780  Biso   1.000  C
  C37      1.0000 0.03500  0.87250  0.80780  Biso   1.000  C
  C38      1.0000 0.53500  0.37250  0.80780  Biso   1.000  C
  C39      1.0000 0.96500  0.87250  0.69220  Biso   1.000  C
  C40      1.0000 0.46500  0.37250  0.69220  Biso   1.000  C
  C41      1.0000 0.96770  0.91270  0.19380  Biso   1.000  C
  C42      1.0000 0.46770  0.41270  0.19380  Biso   1.000  C
  C43      1.0000 0.03230  0.91270  0.30620  Biso   1.000  C
  C44      1.0000 0.53230  0.41270  0.30620  Biso   1.000  C
  C45      1.0000 0.03230  0.08730  0.80620  Biso   1.000  C
  C46      1.0000 0.53230  0.58730  0.80620  Biso   1.000  C
  C47      1.0000 0.96770  0.08730  0.69380  Biso   1.000  C
  C48      1.0000 0.46770  0.58730  0.69380  Biso   1.000  C
  H25      1.0000 0.94580  0.84080  0.15360  Biso   1.000  H
  H26      1.0000 0.44580  0.34080  0.15360  Biso   1.000  H
  H27      1.0000 0.05420  0.84080  0.34640  Biso   1.000  H
  H28      1.0000 0.55420  0.34080  0.34640  Biso   1.000  H
  H29      1.0000 0.05420  0.15920  0.84640  Biso   1.000  H
  H30      1.0000 0.55420  0.65920  0.84640  Biso   1.000  H
  H31      1.0000 0.94580  0.15920  0.65360  Biso   1.000  H
  H32      1.0000 0.44580  0.65920  0.65360  Biso   1.000  H
  C49      1.0000 0.91880  0.57350  0.07350  Biso   1.000  C
  C50      1.0000 0.41880  0.07350  0.07350  Biso   1.000  C
  C51      1.0000 0.08120  0.57350  0.42650  Biso   1.000  C
  C52      1.0000 0.58120  0.07350  0.42650  Biso   1.000  C
  C53      1.0000 0.08120  0.42650  0.92650  Biso   1.000  C
  C54      1.0000 0.58120  0.92650  0.92650  Biso   1.000  C
  C55      1.0000 0.91880  0.42650  0.57350  Biso   1.000  C
  C56      1.0000 0.41880  0.92650  0.57350  Biso   1.000  C
  C57      1.0000 0.84270  0.62080  0.01570  Biso   1.000  C
  C58      1.0000 0.34270  0.12080  0.01570  Biso   1.000  C
  C59      1.0000 0.15730  0.62080  0.48430  Biso   1.000  C
  C60      1.0000 0.65730  0.12080  0.48430  Biso   1.000  C
  C61      1.0000 0.15730  0.37920  0.98430  Biso   1.000  C
  C62      1.0000 0.65730  0.87920  0.98430  Biso   1.000  C
  C63      1.0000 0.84270  0.37920  0.51570  Biso   1.000  C
  C64      1.0000 0.34270  0.87920  0.51570  Biso   1.000  C
