data_image0
_cell_length_a       19.38
_cell_length_b       11.363
_cell_length_c       7.683
_cell_angle_alpha    90
_cell_angle_beta     104.455
_cell_angle_gamma    90

_symmetry_space_group_name_H-M    "P 1"
_symmetry_int_tables_number       1

loop_
  _symmetry_equiv_pos_as_xyz
  'x, y, z'

loop_
  _atom_site_label
  _atom_site_occupancy
  _atom_site_fract_x
  _atom_site_fract_y
  _atom_site_fract_z
  _atom_site_thermal_displace_type
  _atom_site_B_iso_or_equiv
  _atom_site_type_symbol
  Cu1      1.0000 0.50000  0.12945  0.25000  Biso   1.000  Cu
  Cu2      1.0000 0.00000  0.62945  0.25000  Biso   1.000  Cu
  Cu3      1.0000 0.50000  0.87055  0.75000  Biso   1.000  Cu
  Cu4      1.0000 0.00000  0.37055  0.75000  Biso   1.000  Cu
  F1       1.0000 0.66488  0.78808  0.59500  Biso   1.000  F
  F2       1.0000 0.33512  0.78808  0.90500  Biso   1.000  F
  F3       1.0000 0.16488  0.28808  0.59500  Biso   1.000  F
  F4       1.0000 0.83512  0.28808  0.90500  Biso   1.000  F
  F5       1.0000 0.33512  0.21192  0.40500  Biso   1.000  F
  F6       1.0000 0.66488  0.21192  0.09500  Biso   1.000  F
  F7       1.0000 0.83512  0.71192  0.40500  Biso   1.000  F
  F8       1.0000 0.16488  0.71192  0.09500  Biso   1.000  F
  F9       1.0000 0.68295  0.84820  0.35080  Biso   1.000  F
  F10      1.0000 0.31705  0.84820  0.14920  Biso   1.000  F
  F11      1.0000 0.18295  0.34820  0.35080  Biso   1.000  F
  F12      1.0000 0.81705  0.34820  0.14920  Biso   1.000  F
  F13      1.0000 0.31705  0.15180  0.64920  Biso   1.000  F
  F14      1.0000 0.68295  0.15180  0.85080  Biso   1.000  F
  F15      1.0000 0.81705  0.65180  0.64920  Biso   1.000  F
  F16      1.0000 0.18295  0.65180  0.85080  Biso   1.000  F
  F17      1.0000 0.70291  0.95793  0.57620  Biso   1.000  F
  F18      1.0000 0.29709  0.95793  0.92380  Biso   1.000  F
  F19      1.0000 0.20291  0.45793  0.57620  Biso   1.000  F
  F20      1.0000 0.79709  0.45793  0.92380  Biso   1.000  F
  F21      1.0000 0.29709  0.04207  0.42380  Biso   1.000  F
  F22      1.0000 0.70291  0.04207  0.07620  Biso   1.000  F
  F23      1.0000 0.79709  0.54207  0.42380  Biso   1.000  F
  F24      1.0000 0.20291  0.54207  0.07620  Biso   1.000  F
  O1       1.0000 0.57893  0.02142  0.33920  Biso   1.000  O
  O2       1.0000 0.42107  0.02142  0.16080  Biso   1.000  O
  O3       1.0000 0.07893  0.52142  0.33920  Biso   1.000  O
  O4       1.0000 0.92107  0.52142  0.16080  Biso   1.000  O
  O5       1.0000 0.42107  0.97858  0.66080  Biso   1.000  O
  O6       1.0000 0.57893  0.97858  0.83920  Biso   1.000  O
  O7       1.0000 0.92107  0.47858  0.66080  Biso   1.000  O
  O8       1.0000 0.07893  0.47858  0.83920  Biso   1.000  O
  O9       1.0000 0.53444  0.86842  0.46470  Biso   1.000  O
  O10      1.0000 0.46556  0.86842  0.03530  Biso   1.000  O
  O11      1.0000 0.03444  0.36842  0.46470  Biso   1.000  O
  O12      1.0000 0.96556  0.36842  0.03530  Biso   1.000  O
  O13      1.0000 0.46556  0.13158  0.53530  Biso   1.000  O
  O14      1.0000 0.53444  0.13158  0.96470  Biso   1.000  O
  O15      1.0000 0.96556  0.63158  0.53530  Biso   1.000  O
  O16      1.0000 0.03444  0.63158  0.96470  Biso   1.000  O
  N1       1.0000 0.43534  0.26553  0.14430  Biso   1.000  N
  N2       1.0000 0.56466  0.26553  0.35570  Biso   1.000  N
  N3       1.0000 0.93534  0.76553  0.14430  Biso   1.000  N
  N4       1.0000 0.06466  0.76553  0.35570  Biso   1.000  N
  N5       1.0000 0.56466  0.73447  0.85570  Biso   1.000  N
  N6       1.0000 0.43534  0.73447  0.64430  Biso   1.000  N
  N7       1.0000 0.06466  0.23447  0.85570  Biso   1.000  N
  N8       1.0000 0.93534  0.23447  0.64430  Biso   1.000  N
  C1       1.0000 0.37026  0.26150  0.03440  Biso   1.000  C
  C2       1.0000 0.62974  0.26150  0.46560  Biso   1.000  C
  C3       1.0000 0.87026  0.76150  0.03440  Biso   1.000  C
  C4       1.0000 0.12974  0.76150  0.46560  Biso   1.000  C
  C5       1.0000 0.62974  0.73850  0.96560  Biso   1.000  C
  C6       1.0000 0.37026  0.73850  0.53440  Biso   1.000  C
  C7       1.0000 0.12974  0.23850  0.96560  Biso   1.000  C
  C8       1.0000 0.87026  0.23850  0.53440  Biso   1.000  C
  H1       1.0000 0.34950  0.18860  0.00010  Biso   1.000  H
  H2       1.0000 0.65050  0.18860  0.49990  Biso   1.000  H
  H3       1.0000 0.84950  0.68860  0.00010  Biso   1.000  H
  H4       1.0000 0.15050  0.68860  0.49990  Biso   1.000  H
  H5       1.0000 0.65050  0.81140  0.99990  Biso   1.000  H
  H6       1.0000 0.34950  0.81140  0.50010  Biso   1.000  H
  H7       1.0000 0.15050  0.31140  0.99990  Biso   1.000  H
  H8       1.0000 0.84950  0.31140  0.50010  Biso   1.000  H
  C9       1.0000 0.33223  0.36390  0.96910  Biso   1.000  C
  C10      1.0000 0.66777  0.36390  0.53090  Biso   1.000  C
  C11      1.0000 0.83223  0.86390  0.96910  Biso   1.000  C
  C12      1.0000 0.16777  0.86390  0.53090  Biso   1.000  C
  C13      1.0000 0.66777  0.63610  0.03090  Biso   1.000  C
  C14      1.0000 0.33223  0.63610  0.46910  Biso   1.000  C
  C15      1.0000 0.16777  0.13610  0.03090  Biso   1.000  C
  C16      1.0000 0.83223  0.13610  0.46910  Biso   1.000  C
  H9       1.0000 0.28670  0.35850  0.89320  Biso   1.000  H
  H10      1.0000 0.71330  0.35850  0.60680  Biso   1.000  H
  H11      1.0000 0.78670  0.85850  0.89320  Biso   1.000  H
  H12      1.0000 0.21330  0.85850  0.60680  Biso   1.000  H
  H13      1.0000 0.71330  0.64150  0.10680  Biso   1.000  H
  H14      1.0000 0.28670  0.64150  0.39320  Biso   1.000  H
  H15      1.0000 0.21330  0.14150  0.10680  Biso   1.000  H
  H16      1.0000 0.78670  0.14150  0.39320  Biso   1.000  H
  C17      1.0000 0.36201  0.47090  0.01690  Biso   1.000  C
  C18      1.0000 0.63799  0.47090  0.48310  Biso   1.000  C
  C19      1.0000 0.86201  0.97090  0.01690  Biso   1.000  C
  C20      1.0000 0.13799  0.97090  0.48310  Biso   1.000  C
  C21      1.0000 0.63799  0.52910  0.98310  Biso   1.000  C
  C22      1.0000 0.36201  0.52910  0.51690  Biso   1.000  C
  C23      1.0000 0.13799  0.02910  0.98310  Biso   1.000  C
  C24      1.0000 0.86201  0.02910  0.51690  Biso   1.000  C
  H17      1.0000 0.33700  0.53900  0.97310  Biso   1.000  H
  H18      1.0000 0.66300  0.53900  0.52690  Biso   1.000  H
  H19      1.0000 0.83700  0.03900  0.97310  Biso   1.000  H
  H20      1.0000 0.16300  0.03900  0.52690  Biso   1.000  H
  H21      1.0000 0.66300  0.46100  0.02690  Biso   1.000  H
  H22      1.0000 0.33700  0.46100  0.47310  Biso   1.000  H
  H23      1.0000 0.16300  0.96100  0.02690  Biso   1.000  H
  H24      1.0000 0.83700  0.96100  0.47310  Biso   1.000  H
  C25      1.0000 0.43086  0.47916  0.13290  Biso   1.000  C
  C26      1.0000 0.56914  0.47916  0.36710  Biso   1.000  C
  C27      1.0000 0.93086  0.97916  0.13290  Biso   1.000  C
  C28      1.0000 0.06914  0.97916  0.36710  Biso   1.000  C
  C29      1.0000 0.56914  0.52084  0.86710  Biso   1.000  C
  C30      1.0000 0.43086  0.52084  0.63290  Biso   1.000  C
  C31      1.0000 0.06914  0.02084  0.86710  Biso   1.000  C
  C32      1.0000 0.93086  0.02084  0.63290  Biso   1.000  C
  C33      1.0000 0.46775  0.58660  0.19510  Biso   1.000  C
  C34      1.0000 0.53225  0.58660  0.30490  Biso   1.000  C
  C35      1.0000 0.96775  0.08660  0.19510  Biso   1.000  C
  C36      1.0000 0.03225  0.08660  0.30490  Biso   1.000  C
  C37      1.0000 0.53225  0.41340  0.80490  Biso   1.000  C
  C38      1.0000 0.46775  0.41340  0.69510  Biso   1.000  C
  C39      1.0000 0.03225  0.91340  0.80490  Biso   1.000  C
  C40      1.0000 0.96775  0.91340  0.69510  Biso   1.000  C
  H25      1.0000 0.44570  0.65800  0.15710  Biso   1.000  H
  H26      1.0000 0.55430  0.65800  0.34290  Biso   1.000  H
  H27      1.0000 0.94570  0.15800  0.15710  Biso   1.000  H
  H28      1.0000 0.05430  0.15800  0.34290  Biso   1.000  H
  H29      1.0000 0.55430  0.34200  0.84290  Biso   1.000  H
  H30      1.0000 0.44570  0.34200  0.65710  Biso   1.000  H
  H31      1.0000 0.05430  0.84200  0.84290  Biso   1.000  H
  H32      1.0000 0.94570  0.84200  0.65710  Biso   1.000  H
  C41      1.0000 0.46485  0.37197  0.19200  Biso   1.000  C
  C42      1.0000 0.53515  0.37197  0.30800  Biso   1.000  C
  C43      1.0000 0.96485  0.87197  0.19200  Biso   1.000  C
  C44      1.0000 0.03515  0.87197  0.30800  Biso   1.000  C
  C45      1.0000 0.53515  0.62803  0.80800  Biso   1.000  C
  C46      1.0000 0.46485  0.62803  0.69200  Biso   1.000  C
  C47      1.0000 0.03515  0.12803  0.80800  Biso   1.000  C
  C48      1.0000 0.96485  0.12803  0.69200  Biso   1.000  C
  C49      1.0000 0.58143  0.92637  0.42520  Biso   1.000  C
  C50      1.0000 0.41857  0.92637  0.07480  Biso   1.000  C
  C51      1.0000 0.08143  0.42637  0.42520  Biso   1.000  C
  C52      1.0000 0.91857  0.42637  0.07480  Biso   1.000  C
  C53      1.0000 0.41857  0.07363  0.57480  Biso   1.000  C
  C54      1.0000 0.58143  0.07363  0.92520  Biso   1.000  C
  C55      1.0000 0.91857  0.57363  0.57480  Biso   1.000  C
  C56      1.0000 0.08143  0.57363  0.92520  Biso   1.000  C
  C57      1.0000 0.65865  0.87935  0.48460  Biso   1.000  C
  C58      1.0000 0.34135  0.87935  0.01540  Biso   1.000  C
  C59      1.0000 0.15865  0.37935  0.48460  Biso   1.000  C
  C60      1.0000 0.84135  0.37935  0.01540  Biso   1.000  C
  C61      1.0000 0.34135  0.12065  0.51540  Biso   1.000  C
  C62      1.0000 0.65865  0.12065  0.98460  Biso   1.000  C
  C63      1.0000 0.84135  0.62065  0.51540  Biso   1.000  C
  C64      1.0000 0.15865  0.62065  0.98460  Biso   1.000  C
