data_image0
_cell_length_a       10.925
_cell_length_b       11.477
_cell_length_c       13.623
_cell_angle_alpha    75.94
_cell_angle_beta     76.74
_cell_angle_gamma    62.82

_symmetry_space_group_name_H-M    "P 1"
_symmetry_int_tables_number       1

loop_
  _symmetry_equiv_pos_as_xyz
  'x, y, z'

loop_
  _atom_site_label
  _atom_site_occupancy
  _atom_site_fract_x
  _atom_site_fract_y
  _atom_site_fract_z
  _atom_site_thermal_displace_type
  _atom_site_B_iso_or_equiv
  _atom_site_type_symbol
  C1       1.0000 0.09300  0.53730  0.02170  Biso   1.000  C
  C2       1.0000 0.90700  0.46270  0.97830  Biso   1.000  C
  H1       1.0000 0.15580  0.56250  0.03620  Biso   1.000  H
  H2       1.0000 0.84420  0.43750  0.96380  Biso   1.000  H
  C3       1.0000 0.13990  0.43560  0.96590  Biso   1.000  C
  C4       1.0000 0.86010  0.56440  0.03410  Biso   1.000  C
  C5       1.0000 0.95340  0.60150  0.05600  Biso   1.000  C
  C6       1.0000 0.04660  0.39850  0.94400  Biso   1.000  C
  H3       1.0000 0.92210  0.66970  0.09380  Biso   1.000  H
  H4       1.0000 0.07790  0.33030  0.90620  Biso   1.000  H
  C7       1.0000 0.29150  0.37290  0.92600  Biso   1.000  C
  C8       1.0000 0.70850  0.62710  0.07400  Biso   1.000  C
  C9       1.0000 0.46150  0.23130  0.80990  Biso   1.000  C
  C10      1.0000 0.53850  0.76870  0.19010  Biso   1.000  C
  H5       1.0000 0.49560  0.30040  0.79210  Biso   1.000  H
  H6       1.0000 0.50440  0.69960  0.20790  Biso   1.000  H
  C11      1.0000 0.56120  0.10960  0.86710  Biso   1.000  C
  C12      1.0000 0.43880  0.89040  0.13290  Biso   1.000  C
  H7       1.0000 0.52550  0.04270  0.88510  Biso   1.000  H
  H8       1.0000 0.47450  0.95730  0.11490  Biso   1.000  H
  H9       1.0000 0.56790  0.13030  0.93010  Biso   1.000  H
  H10      1.0000 0.43210  0.86970  0.06990  Biso   1.000  H
  C13      1.0000 0.70570  0.05330  0.80650  Biso   1.000  C
  C14      1.0000 0.29430  0.94670  0.19350  Biso   1.000  C
  C15      1.0000 0.58070  0.15810  0.64100  Biso   1.000  C
  C16      1.0000 0.41930  0.84190  0.35900  Biso   1.000  C
  C17      1.0000 0.44520  0.19970  0.71520  Biso   1.000  C
  C18      1.0000 0.55480  0.80030  0.28480  Biso   1.000  C
  H11      1.0000 0.37350  0.27700  0.68180  Biso   1.000  H
  H12      1.0000 0.62650  0.72300  0.31820  Biso   1.000  H
  H13      1.0000 0.41550  0.12850  0.73330  Biso   1.000  H
  H14      1.0000 0.58450  0.87150  0.26670  Biso   1.000  H
  C19      1.0000 0.78430  0.13460  0.80770  Biso   1.000  C
  C20      1.0000 0.21570  0.86540  0.19230  Biso   1.000  C
  H15      1.0000 0.73280  0.22550  0.77920  Biso   1.000  H
  H16      1.0000 0.26720  0.77450  0.22080  Biso   1.000  H
  H17      1.0000 0.87420  0.09950  0.76780  Biso   1.000  H
  H18      1.0000 0.12580  0.90050  0.23220  Biso   1.000  H
  H19      1.0000 0.79510  0.12970  0.87670  Biso   1.000  H
  H20      1.0000 0.20490  0.87030  0.12330  Biso   1.000  H
  C21      1.0000 0.78540  0.91030  0.85130  Biso   1.000  C
  C22      1.0000 0.21460  0.08970  0.14870  Biso   1.000  C
  H21      1.0000 0.87630  0.87540  0.81290  Biso   1.000  H
  H22      1.0000 0.12370  0.12460  0.18710  Biso   1.000  H
  H23      1.0000 0.73690  0.85960  0.84860  Biso   1.000  H
  H24      1.0000 0.26310  0.14040  0.15140  Biso   1.000  H
  H25      1.0000 0.79360  0.90500  0.92110  Biso   1.000  H
  H26      1.0000 0.20640  0.09500  0.07890  Biso   1.000  H
  C23      1.0000 0.57250  0.09200  0.56070  Biso   1.000  C
  C24      1.0000 0.42750  0.90800  0.43930  Biso   1.000  C
  H27      1.0000 0.55300  0.01710  0.59340  Biso   1.000  H
  H28      1.0000 0.44700  0.98290  0.40660  Biso   1.000  H
  H29      1.0000 0.65950  0.06280  0.51660  Biso   1.000  H
  H30      1.0000 0.34050  0.93720  0.48340  Biso   1.000  H
  H31      1.0000 0.49990  0.15420  0.52120  Biso   1.000  H
  H32      1.0000 0.50010  0.84580  0.47880  Biso   1.000  H
  C25      1.0000 0.61180  0.27800  0.59110  Biso   1.000  C
  C26      1.0000 0.38820  0.72200  0.40890  Biso   1.000  C
  H33      1.0000 0.61660  0.31870  0.64310  Biso   1.000  H
  H34      1.0000 0.38340  0.68130  0.35690  Biso   1.000  H
  H35      1.0000 0.53940  0.34110  0.55170  Biso   1.000  H
  H36      1.0000 0.46060  0.65890  0.44830  Biso   1.000  H
  H37      1.0000 0.69900  0.24970  0.54720  Biso   1.000  H
  H38      1.0000 0.30100  0.75030  0.45280  Biso   1.000  H
  C27      1.0000 0.11010  0.25220  0.59890  Biso   1.000  C
  C28      1.0000 0.88990  0.74780  0.40110  Biso   1.000  C
  F1       1.0000 0.22330  0.14990  0.63730  Biso   1.000  F
  F2       1.0000 0.77670  0.85010  0.36270  Biso   1.000  F
  F3       1.0000 0.02250  0.29950  0.67700  Biso   1.000  F
  F4       1.0000 0.97750  0.70050  0.32300  Biso   1.000  F
  F5       1.0000 0.16230  0.33810  0.54670  Biso   1.000  F
  F6       1.0000 0.83770  0.66190  0.45330  Biso   1.000  F
  F7       1.0000 0.08940  0.37900  0.57030  Biso   1.000  F
  F8       1.0000 0.91060  0.62100  0.42970  Biso   1.000  F
  F9       1.0000 0.24520  0.17610  0.58690  Biso   1.000  F
  F10      1.0000 0.75480  0.82390  0.41310  Biso   1.000  F
  F11      1.0000 0.06560  0.23390  0.69980  Biso   1.000  F
  F12      1.0000 0.93440  0.76610  0.30020  Biso   1.000  F
  C29      1.0000 0.04150  0.21100  0.53670  Biso   1.000  C
  C30      1.0000 0.95850  0.78900  0.46330  Biso   1.000  C
  C31      1.0000 0.97580  0.29990  0.45710  Biso   1.000  C
  C32      1.0000 0.02420  0.70010  0.54290  Biso   1.000  C
  H39      1.0000 0.97590  0.38330  0.44130  Biso   1.000  H
  H40      1.0000 0.02410  0.61670  0.55870  Biso   1.000  H
  C33      1.0000 0.90880  0.26750  0.39950  Biso   1.000  C
  C34      1.0000 0.09120  0.73250  0.60050  Biso   1.000  C
  C35      1.0000 0.83600  0.37200  0.31460  Biso   1.000  C
  C36      1.0000 0.16400  0.62800  0.68540  Biso   1.000  C
  F13      1.0000 0.77940  0.33660  0.26430  Biso   1.000  F
  F14      1.0000 0.22060  0.66340  0.73570  Biso   1.000  F
  F15      1.0000 0.91210  0.44100  0.26180  Biso   1.000  F
  F16      1.0000 0.08790  0.55900  0.73820  Biso   1.000  F
  F17      1.0000 0.72910  0.46940  0.35710  Biso   1.000  F
  F18      1.0000 0.27090  0.53060  0.64290  Biso   1.000  F
  F19      1.0000 0.84770  0.48340  0.29880  Biso   1.000  F
  F20      1.0000 0.15230  0.51660  0.70120  Biso   1.000  F
  F21      1.0000 0.69630  0.40950  0.33670  Biso   1.000  F
  F22      1.0000 0.30370  0.59050  0.66330  Biso   1.000  F
  F23      1.0000 0.86570  0.32650  0.22790  Biso   1.000  F
  F24      1.0000 0.13430  0.67350  0.77210  Biso   1.000  F
  C37      1.0000 0.31610  0.40140  0.29760  Biso   1.000  C
  C38      1.0000 0.68390  0.59860  0.70240  Biso   1.000  C
  F25      1.0000 0.20010  0.50080  0.28700  Biso   1.000  F
  F26      1.0000 0.79990  0.49920  0.71300  Biso   1.000  F
  F27      1.0000 0.36440  0.41910  0.37200  Biso   1.000  F
  F28      1.0000 0.63560  0.58090  0.62800  Biso   1.000  F
  F29      1.0000 0.30100  0.28910  0.33340  Biso   1.000  F
  F30      1.0000 0.69900  0.71090  0.66660  Biso   1.000  F
  F31      1.0000 0.35420  0.29910  0.36940  Biso   1.000  F
  F32      1.0000 0.64580  0.70090  0.63060  Biso   1.000  F
  F33      1.0000 0.19870  0.41710  0.27030  Biso   1.000  F
  F34      1.0000 0.80130  0.58290  0.72970  Biso   1.000  F
  F35      1.0000 0.28030  0.51010  0.33220  Biso   1.000  F
  F36      1.0000 0.71970  0.48990  0.66780  Biso   1.000  F
  C39      1.0000 0.42590  0.38880  0.20140  Biso   1.000  C
  C40      1.0000 0.57410  0.61120  0.79860  Biso   1.000  C
  C41      1.0000 0.54640  0.27210  0.20020  Biso   1.000  C
  C42      1.0000 0.45360  0.72790  0.79980  Biso   1.000  C
  H41      1.0000 0.55850  0.20660  0.25750  Biso   1.000  H
  H42      1.0000 0.44150  0.79340  0.74250  Biso   1.000  H
  C43      1.0000 0.64920  0.24940  0.11690  Biso   1.000  C
  C44      1.0000 0.35080  0.75060  0.88310  Biso   1.000  C
  C45      1.0000 0.77960  0.11580  0.12480  Biso   1.000  C
  C46      1.0000 0.22040  0.88420  0.87520  Biso   1.000  C
  F37      1.0000 0.88050  0.11060  0.05070  Biso   1.000  F
  F38      1.0000 0.11950  0.88940  0.94930  Biso   1.000  F
  F39      1.0000 0.74130  0.02190  0.11230  Biso   1.000  F
  F40      1.0000 0.25870  0.97810  0.88770  Biso   1.000  F
  F41      1.0000 0.83030  0.08530  0.20930  Biso   1.000  F
  F42      1.0000 0.16970  0.91470  0.79070  Biso   1.000  F
  F43      1.0000 0.79080  0.05650  0.22210  Biso   1.000  F
  F44      1.0000 0.20920  0.94350  0.77790  Biso   1.000  F
  F45      1.0000 0.89170  0.14160  0.07930  Biso   1.000  F
  F46      1.0000 0.10830  0.85840  0.92070  Biso   1.000  F
  F47      1.0000 0.77960  0.03350  0.07560  Biso   1.000  F
  F48      1.0000 0.22040  0.96650  0.92440  Biso   1.000  F
  N1       1.0000 0.69500  0.05890  0.69760  Biso   1.000  N
  N2       1.0000 0.30500  0.94110  0.30240  Biso   1.000  N
  O1       1.0000 0.80950  0.99460  0.64410  Biso   1.000  O
  O2       1.0000 0.19050  0.00540  0.35590  Biso   1.000  O
  O3       1.0000 0.32170  0.28120  0.86960  Biso   1.000  O
  O4       1.0000 0.67830  0.71880  0.13040  Biso   1.000  O
  O5       1.0000 0.37520  0.40490  0.93990  Biso   1.000  O
  O6       1.0000 0.62480  0.59510  0.06010  Biso   1.000  O
  O7       1.0000 0.89960  0.16040  0.41010  Biso   1.000  O
  O8       1.0000 0.10040  0.83960  0.58990  Biso   1.000  O
  O9       1.0000 0.05400  0.09410  0.56800  Biso   1.000  O
  O10      1.0000 0.94600  0.90590  0.43200  Biso   1.000  O
  O11      1.0000 0.39220  0.48740  0.13250  Biso   1.000  O
  O12      1.0000 0.60780  0.51260  0.86750  Biso   1.000  O
  O13      1.0000 0.64770  0.32390  0.03320  Biso   1.000  O
  O14      1.0000 0.35230  0.67610  0.96680  Biso   1.000  O
  Cu1      1.0000 0.00000  0.00000  0.50000  Biso   1.000  Cu
  Cu2      1.0000 0.50000  0.50000  0.00000  Biso   1.000  Cu
