data_image0
_cell_length_a       7.45
_cell_length_b       7.519
_cell_length_c       9.646
_cell_angle_alpha    85.78
_cell_angle_beta     88.6
_cell_angle_gamma    76.78

_symmetry_space_group_name_H-M    "P 1"
_symmetry_int_tables_number       1

loop_
  _symmetry_equiv_pos_as_xyz
  'x, y, z'

loop_
  _atom_site_label
  _atom_site_occupancy
  _atom_site_fract_x
  _atom_site_fract_y
  _atom_site_fract_z
  _atom_site_thermal_displace_type
  _atom_site_B_iso_or_equiv
  _atom_site_type_symbol
  Cu1      1.0000 0.14521  0.24366  0.33986  Biso   1.000  Cu
  Cu2      1.0000 0.85479  0.75634  0.66014  Biso   1.000  Cu
  O1       1.0000 0.07130  0.51510  0.32800  Biso   1.000  O
  O2       1.0000 0.92870  0.48490  0.67200  Biso   1.000  O
  O3       1.0000 0.93320  0.73330  0.46160  Biso   1.000  O
  O4       1.0000 0.06680  0.26670  0.53840  Biso   1.000  O
  N1       1.0000 0.21630  0.97600  0.38000  Biso   1.000  N
  N2       1.0000 0.78370  0.02400  0.62000  Biso   1.000  N
  H1       1.0000 0.27880  0.95440  0.46050  Biso   1.000  H
  H2       1.0000 0.72120  0.04560  0.53950  Biso   1.000  H
  H3       1.0000 0.11190  0.93600  0.39490  Biso   1.000  H
  H4       1.0000 0.88810  0.06400  0.60510  Biso   1.000  H
  N3       1.0000 0.24040  0.31380  0.92520  Biso   1.000  N
  N4       1.0000 0.75960  0.68620  0.07480  Biso   1.000  N
  H5       1.0000 0.25470  0.37950  0.85070  Biso   1.000  H
  H6       1.0000 0.74530  0.62050  0.14930  Biso   1.000  H
  N5       1.0000 0.19320  0.23360  0.14180  Biso   1.000  N
  N6       1.0000 0.80680  0.76640  0.85820  Biso   1.000  N
  C1       1.0000 0.32560  0.86410  0.27880  Biso   1.000  C
  C2       1.0000 0.67440  0.13590  0.72120  Biso   1.000  C
  H7       1.0000 0.34410  0.73600  0.31100  Biso   1.000  H
  H8       1.0000 0.65590  0.26400  0.68900  Biso   1.000  H
  H9       1.0000 0.44560  0.89370  0.26940  Biso   1.000  H
  H10      1.0000 0.55440  0.10630  0.73060  Biso   1.000  H
  C3       1.0000 0.23170  0.89520  0.13830  Biso   1.000  C
  C4       1.0000 0.76830  0.10480  0.86170  Biso   1.000  C
  H11      1.0000 0.29620  0.80280  0.07830  Biso   1.000  H
  H12      1.0000 0.70380  0.19720  0.92170  Biso   1.000  H
  H13      1.0000 0.10650  0.87950  0.15060  Biso   1.000  H
  H14      1.0000 0.89350  0.12050  0.84940  Biso   1.000  H
  C5       1.0000 0.22600  0.07970  0.06830  Biso   1.000  C
  C6       1.0000 0.77400  0.92030  0.93170  Biso   1.000  C
  C7       1.0000 0.25090  0.13110  0.93480  Biso   1.000  C
  C8       1.0000 0.74910  0.86890  0.06520  Biso   1.000  C
  H15      1.0000 0.27180  0.05480  0.86170  Biso   1.000  H
  H16      1.0000 0.72820  0.94520  0.13830  Biso   1.000  H
  C9       1.0000 0.20360  0.37370  0.05210  Biso   1.000  C
  C10      1.0000 0.79640  0.62630  0.94790  Biso   1.000  C
  H17      1.0000 0.18790  0.49460  0.07420  Biso   1.000  H
  H18      1.0000 0.81210  0.50540  0.92580  Biso   1.000  H
  C11      1.0000 0.00400  0.57130  0.43820  Biso   1.000  C
  C12      1.0000 0.99600  0.42870  0.56180  Biso   1.000  C
  Cl1      1.0000 0.64300  0.30490  0.29946  Biso   1.000  Cl
  Cl2      1.0000 0.35700  0.69510  0.70054  Biso   1.000  Cl
  O5       1.0000 0.50540  0.23380  0.37660  Biso   1.000  O
  O6       1.0000 0.49460  0.76620  0.62340  Biso   1.000  O
  O7       1.0000 0.80830  0.17490  0.30520  Biso   1.000  O
  O8       1.0000 0.19170  0.82510  0.69480  Biso   1.000  O
  O9       1.0000 0.66770  0.46520  0.35620  Biso   1.000  O
  O10      1.0000 0.33230  0.53480  0.64380  Biso   1.000  O
  O11      1.0000 0.59090  0.34890  0.15780  Biso   1.000  O
  O12      1.0000 0.40910  0.65110  0.84220  Biso   1.000  O
