data_image0
_cell_length_a       5.217
_cell_length_b       15.759
_cell_length_c       15.87
_cell_angle_alpha    118.034
_cell_angle_beta     95.106
_cell_angle_gamma    90.313

_symmetry_space_group_name_H-M    "P 1"
_symmetry_int_tables_number       1

loop_
  _symmetry_equiv_pos_as_xyz
  'x, y, z'

loop_
  _atom_site_label
  _atom_site_occupancy
  _atom_site_fract_x
  _atom_site_fract_y
  _atom_site_fract_z
  _atom_site_thermal_displace_type
  _atom_site_B_iso_or_equiv
  _atom_site_type_symbol
  Cu1      1.0000 0.49717  0.47020  0.48127  Biso   1.000  Cu
  N1       1.0000 0.45680  0.41930  0.33590  Biso   1.000  N
  O1       1.0000 0.93080  0.48730  0.49030  Biso   1.000  O
  H1       1.0000 0.99050  0.43510  0.45050  Biso   1.000  H
  H2       1.0000 0.99270  0.53250  0.48200  Biso   1.000  H
  O2       1.0000 0.49000  0.33940  0.46890  Biso   1.000  O
  C1       1.0000 0.28150  0.28930  0.43110  Biso   1.000  C
  C2       1.0000 0.25240  0.19790  0.44010  Biso   1.000  C
  O3       1.0000 0.10000  0.30780  0.38830  Biso   1.000  O
  N2       1.0000 0.96890  0.78380  0.79060  Biso   1.000  N
  O4       1.0000 0.77000  0.62120  0.43410  Biso   1.000  O
  N3       1.0000 0.50920  0.51970  0.62570  Biso   1.000  N
  C3       1.0000 0.43410  0.17650  0.49550  Biso   1.000  C
  H3       1.0000 0.58640  0.21450  0.52190  Biso   1.000  H
  O5       1.0000 0.43910  0.60040  0.50450  Biso   1.000  O
  C4       1.0000 0.38930  0.09840  0.51160  Biso   1.000  C
  H4       1.0000 0.51130  0.08410  0.54880  Biso   1.000  H
  N4       1.0000 0.96980  0.12640  0.10350  Biso   1.000  N
  N5       1.0000 0.24740  0.30430  0.97860  Biso   1.000  N
  H5       1.0000 0.10440  0.30760  0.00290  Biso   1.000  H
  O6       1.0000 0.08290  0.97530  0.49870  Biso   1.000  O
  C5       1.0000 0.16690  0.04330  0.47270  Biso   1.000  C
  O7       1.0000 0.68360  0.31820  0.00610  Biso   1.000  O
  N6       1.0000 0.04380  0.11770  0.82440  Biso   1.000  N
  H6       1.0000 0.19520  0.10080  0.83450  Biso   1.000  H
  C6       1.0000 0.99030  0.06010  0.41250  Biso   1.000  C
  H7       1.0000 0.84390  0.01930  0.38250  Biso   1.000  H
  O8       1.0000 0.61470  0.08200  0.80500  Biso   1.000  O
  N7       1.0000 0.72150  0.63030  0.98060  Biso   1.000  N
  H8       1.0000 0.86380  0.62590  0.95560  Biso   1.000  H
  C7       1.0000 0.03450  0.13840  0.39760  Biso   1.000  C
  H9       1.0000 0.91490  0.15090  0.35830  Biso   1.000  H
  N8       1.0000 0.92520  0.81650  0.12800  Biso   1.000  N
  H10      1.0000 0.77210  0.83250  0.11860  Biso   1.000  H
  O9       1.0000 0.28760  0.61890  0.95400  Biso   1.000  O
  C8       1.0000 0.23720  0.90390  0.49820  Biso   1.000  C
  O10      1.0000 0.35270  0.85240  0.14130  Biso   1.000  O
  C9       1.0000 0.14280  0.85970  0.54870  Biso   1.000  C
  H11      1.0000 0.00750  0.88510  0.58620  Biso   1.000  H
  C10      1.0000 0.25550  0.77730  0.54190  Biso   1.000  C
  H12      1.0000 0.19210  0.74630  0.57370  Biso   1.000  H
  C11      1.0000 0.46060  0.74110  0.48830  Biso   1.000  C
  C12      1.0000 0.55820  0.78960  0.44300  Biso   1.000  C
  H13      1.0000 0.70180  0.76770  0.40950  Biso   1.000  H
  C13      1.0000 0.44190  0.87110  0.44770  Biso   1.000  C
  H14      1.0000 0.50530  0.90250  0.41630  Biso   1.000  H
  C14      1.0000 0.57270  0.64720  0.47330  Biso   1.000  C
  C15      1.0000 0.61740  0.35310  0.28320  Biso   1.000  C
  H15      1.0000 0.72870  0.32760  0.31360  Biso   1.000  H
  C16      1.0000 0.62530  0.32110  0.18650  Biso   1.000  C
  H16      1.0000 0.74710  0.27830  0.15340  Biso   1.000  H
  C17      1.0000 0.44750  0.35400  0.13910  Biso   1.000  C
  C18      1.0000 0.27520  0.41900  0.19110  Biso   1.000  C
  H17      1.0000 0.15260  0.44140  0.16130  Biso   1.000  H
  C19      1.0000 0.28740  0.45060  0.28970  Biso   1.000  C
  H18      1.0000 0.17260  0.49560  0.32490  Biso   1.000  H
  C20      1.0000 0.46930  0.32330  0.03420  Biso   1.000  C
  C21      1.0000 0.24290  0.27780  0.87560  Biso   1.000  C
  H19      1.0000 0.40320  0.24690  0.85270  Biso   1.000  H
  C22      1.0000 0.22900  0.36720  0.86200  Biso   1.000  C
  H20      1.0000 0.07670  0.40090  0.88820  Biso   1.000  H
  H21      1.0000 0.37870  0.41010  0.89720  Biso   1.000  H
  C23      1.0000 0.21890  0.34210  0.75770  Biso   1.000  C
  H22      1.0000 0.20020  0.40020  0.75160  Biso   1.000  H
  H23      1.0000 0.37950  0.31490  0.73330  Biso   1.000  H
  C24      1.0000 0.99820  0.27110  0.69870  Biso   1.000  C
  H24      1.0000 0.00530  0.25250  0.63140  Biso   1.000  H
  H25      1.0000 0.83650  0.30120  0.71750  Biso   1.000  H
  C25      1.0000 0.00880  0.18240  0.71260  Biso   1.000  C
  H26      1.0000 0.16000  0.14820  0.68620  Biso   1.000  H
  H27      1.0000 0.85820  0.14010  0.67730  Biso   1.000  H
  C26      1.0000 0.01860  0.20620  0.81820  Biso   1.000  C
  H28      1.0000 0.85770  0.23480  0.84320  Biso   1.000  H
  C27      1.0000 0.83850  0.06140  0.81490  Biso   1.000  C
  C28      1.0000 0.89220  0.96460  0.80770  Biso   1.000  C
  C29      1.0000 0.71840  0.88840  0.75090  Biso   1.000  C
  H29      1.0000 0.57210  0.89630  0.71780  Biso   1.000  H
  C30      1.0000 0.76910  0.79980  0.74490  Biso   1.000  C
  H30      1.0000 0.65370  0.74800  0.70580  Biso   1.000  H
  C31      1.0000 0.13140  0.85800  0.84460  Biso   1.000  C
  H31      1.0000 0.27240  0.84820  0.87860  Biso   1.000  H
  C32      1.0000 0.10700  0.94910  0.85430  Biso   1.000  C
  H32      1.0000 0.23140  0.99830  0.89110  Biso   1.000  H
  C33      1.0000 0.69120  0.49150  0.67140  Biso   1.000  C
  H33      1.0000 0.81150  0.44940  0.63610  Biso   1.000  H
  C34      1.0000 0.70480  0.52290  0.76860  Biso   1.000  C
  H34      1.0000 0.83690  0.50450  0.79890  Biso   1.000  H
  C35      1.0000 0.51980  0.58220  0.82060  Biso   1.000  C
  C36      1.0000 0.33470  0.61060  0.77390  Biso   1.000  C
  H35      1.0000 0.20810  0.65050  0.80710  Biso   1.000  H
  C37      1.0000 0.33810  0.57930  0.67650  Biso   1.000  C
  H36      1.0000 0.21570  0.60080  0.64570  Biso   1.000  H
  C38      1.0000 0.50050  0.61230  0.92520  Biso   1.000  C
  C39      1.0000 0.73160  0.65750  0.08280  Biso   1.000  C
  H37      1.0000 0.57130  0.68790  0.10640  Biso   1.000  H
  C40      1.0000 0.75080  0.56840  0.09740  Biso   1.000  C
  H38      1.0000 0.89840  0.53350  0.06800  Biso   1.000  H
  H39      1.0000 0.59760  0.52630  0.06550  Biso   1.000  H
  C41      1.0000 0.77820  0.59450  0.20420  Biso   1.000  C
  H40      1.0000 0.62320  0.62340  0.23250  Biso   1.000  H
  H41      1.0000 0.79990  0.53660  0.21050  Biso   1.000  H
  C42      1.0000 0.01030  0.66470  0.25690  Biso   1.000  C
  H42      1.0000 0.16670  0.63420  0.23140  Biso   1.000  H
  H43      1.0000 0.02330  0.68240  0.32450  Biso   1.000  H
  C43      1.0000 0.98150  0.75520  0.24460  Biso   1.000  C
  H44      1.0000 0.83060  0.78770  0.27360  Biso   1.000  H
  H45      1.0000 0.13120  0.79900  0.27730  Biso   1.000  H
  C44      1.0000 0.95470  0.72970  0.13940  Biso   1.000  C
  H46      1.0000 0.11350  0.70060  0.11260  Biso   1.000  H
  C45      1.0000 0.12530  0.87180  0.13170  Biso   1.000  C
  C46      1.0000 0.06330  0.95950  0.12180  Biso   1.000  C
  C47      1.0000 0.23050  0.03860  0.16470  Biso   1.000  C
  H47      1.0000 0.38150  0.03760  0.20010  Biso   1.000  H
  C48      1.0000 0.17700  0.12060  0.15570  Biso   1.000  C
  H48      1.0000 0.29160  0.17410  0.18790  Biso   1.000  H
  C49      1.0000 0.80500  0.04910  0.06200  Biso   1.000  C
  H49      1.0000 0.65850  0.05090  0.02530  Biso   1.000  H
  C50      1.0000 0.84190  0.96620  0.07070  Biso   1.000  C
  H50      1.0000 0.71810  0.91540  0.04230  Biso   1.000  H
