data_image0
_cell_length_a       19.9633
_cell_length_b       18.0741
_cell_length_c       17.6284
_cell_angle_alpha    90
_cell_angle_beta     91.825
_cell_angle_gamma    90

_symmetry_space_group_name_H-M    "P 1"
_symmetry_int_tables_number       1

loop_
  _symmetry_equiv_pos_as_xyz
  'x, y, z'

loop_
  _atom_site_label
  _atom_site_occupancy
  _atom_site_fract_x
  _atom_site_fract_y
  _atom_site_fract_z
  _atom_site_thermal_displace_type
  _atom_site_B_iso_or_equiv
  _atom_site_type_symbol
  N1       1.0000 0.54250  0.76610  0.66220  Biso   1.000  N
  N2       1.0000 0.45750  0.76610  0.83780  Biso   1.000  N
  N3       1.0000 0.04250  0.26610  0.66220  Biso   1.000  N
  N4       1.0000 0.95750  0.26610  0.83780  Biso   1.000  N
  N5       1.0000 0.45750  0.23390  0.33780  Biso   1.000  N
  N6       1.0000 0.54250  0.23390  0.16220  Biso   1.000  N
  N7       1.0000 0.95750  0.73390  0.33780  Biso   1.000  N
  N8       1.0000 0.04250  0.73390  0.16220  Biso   1.000  N
  C1       1.0000 0.46280  0.53500  0.65710  Biso   1.000  C
  C2       1.0000 0.53720  0.53500  0.84290  Biso   1.000  C
  C3       1.0000 0.96280  0.03500  0.65710  Biso   1.000  C
  C4       1.0000 0.03720  0.03500  0.84290  Biso   1.000  C
  C5       1.0000 0.53720  0.46500  0.34290  Biso   1.000  C
  C6       1.0000 0.46280  0.46500  0.15710  Biso   1.000  C
  C7       1.0000 0.03720  0.96500  0.34290  Biso   1.000  C
  C8       1.0000 0.96280  0.96500  0.15710  Biso   1.000  C
  H1       1.0000 0.44050  0.51530  0.70010  Biso   1.000  H
  H2       1.0000 0.55950  0.51530  0.79990  Biso   1.000  H
  H3       1.0000 0.94050  0.01530  0.70010  Biso   1.000  H
  H4       1.0000 0.05950  0.01530  0.79990  Biso   1.000  H
  H5       1.0000 0.55950  0.48470  0.29990  Biso   1.000  H
  H6       1.0000 0.44050  0.48470  0.20010  Biso   1.000  H
  H7       1.0000 0.05950  0.98470  0.29990  Biso   1.000  H
  H8       1.0000 0.94050  0.98470  0.20010  Biso   1.000  H
  H9       1.0000 0.51040  0.53040  0.66510  Biso   1.000  H
  H10      1.0000 0.48960  0.53040  0.83490  Biso   1.000  H
  H11      1.0000 0.01040  0.03040  0.66510  Biso   1.000  H
  H12      1.0000 0.98960  0.03040  0.83490  Biso   1.000  H
  H13      1.0000 0.48960  0.46960  0.33490  Biso   1.000  H
  H14      1.0000 0.51040  0.46960  0.16510  Biso   1.000  H
  H15      1.0000 0.98960  0.96960  0.33490  Biso   1.000  H
  H16      1.0000 0.01040  0.96960  0.16510  Biso   1.000  H
  H17      1.0000 0.44900  0.50810  0.61230  Biso   1.000  H
  H18      1.0000 0.55100  0.50810  0.88770  Biso   1.000  H
  H19      1.0000 0.94900  0.00810  0.61230  Biso   1.000  H
  H20      1.0000 0.05100  0.00810  0.88770  Biso   1.000  H
  H21      1.0000 0.55100  0.49190  0.38770  Biso   1.000  H
  H22      1.0000 0.44900  0.49190  0.11230  Biso   1.000  H
  H23      1.0000 0.05100  0.99190  0.38770  Biso   1.000  H
  H24      1.0000 0.94900  0.99190  0.11230  Biso   1.000  H
  C9       1.0000 0.84350  0.08200  0.84240  Biso   1.000  C
  C10      1.0000 0.15650  0.08200  0.65760  Biso   1.000  C
  C11      1.0000 0.34350  0.58200  0.84240  Biso   1.000  C
  C12      1.0000 0.65650  0.58200  0.65760  Biso   1.000  C
  C13      1.0000 0.15650  0.91800  0.15760  Biso   1.000  C
  C14      1.0000 0.84350  0.91800  0.34240  Biso   1.000  C
  C15      1.0000 0.65650  0.41800  0.15760  Biso   1.000  C
  C16      1.0000 0.34350  0.41800  0.34240  Biso   1.000  C
  H25      1.0000 0.87350  0.04360  0.85960  Biso   1.000  H
  H26      1.0000 0.12650  0.04360  0.64040  Biso   1.000  H
  H27      1.0000 0.37350  0.54360  0.85960  Biso   1.000  H
  H28      1.0000 0.62650  0.54360  0.64040  Biso   1.000  H
  H29      1.0000 0.12650  0.95640  0.14040  Biso   1.000  H
  H30      1.0000 0.87350  0.95640  0.35960  Biso   1.000  H
  H31      1.0000 0.62650  0.45640  0.14040  Biso   1.000  H
  H32      1.0000 0.37350  0.45640  0.35960  Biso   1.000  H
  H33      1.0000 0.86010  0.12910  0.85990  Biso   1.000  H
  H34      1.0000 0.13990  0.12910  0.64010  Biso   1.000  H
  H35      1.0000 0.36010  0.62910  0.85990  Biso   1.000  H
  H36      1.0000 0.63990  0.62910  0.64010  Biso   1.000  H
  H37      1.0000 0.13990  0.87090  0.14010  Biso   1.000  H
  H38      1.0000 0.86010  0.87090  0.35990  Biso   1.000  H
  H39      1.0000 0.63990  0.37090  0.14010  Biso   1.000  H
  H40      1.0000 0.36010  0.37090  0.35990  Biso   1.000  H
  H41      1.0000 0.84040  0.08190  0.78800  Biso   1.000  H
  H42      1.0000 0.15960  0.08190  0.71200  Biso   1.000  H
  H43      1.0000 0.34040  0.58190  0.78800  Biso   1.000  H
  H44      1.0000 0.65960  0.58190  0.71200  Biso   1.000  H
  H45      1.0000 0.15960  0.91810  0.21200  Biso   1.000  H
  H46      1.0000 0.84040  0.91810  0.28800  Biso   1.000  H
  H47      1.0000 0.65960  0.41810  0.21200  Biso   1.000  H
  H48      1.0000 0.34040  0.41810  0.28800  Biso   1.000  H
  C17      1.0000 0.44350  0.62110  0.64660  Biso   1.000  C
  C18      1.0000 0.55650  0.62110  0.85340  Biso   1.000  C
  C19      1.0000 0.94350  0.12110  0.64660  Biso   1.000  C
  C20      1.0000 0.05650  0.12110  0.85340  Biso   1.000  C
  C21      1.0000 0.55650  0.37890  0.35340  Biso   1.000  C
  C22      1.0000 0.44350  0.37890  0.14660  Biso   1.000  C
  C23      1.0000 0.05650  0.87890  0.35340  Biso   1.000  C
  C24      1.0000 0.94350  0.87890  0.14660  Biso   1.000  C
  H49      1.0000 0.39560  0.62710  0.63850  Biso   1.000  H
  H50      1.0000 0.60440  0.62710  0.86150  Biso   1.000  H
  H51      1.0000 0.89560  0.12710  0.63850  Biso   1.000  H
  H52      1.0000 0.10440  0.12710  0.86150  Biso   1.000  H
  H53      1.0000 0.60440  0.37290  0.36150  Biso   1.000  H
  H54      1.0000 0.39560  0.37290  0.13850  Biso   1.000  H
  H55      1.0000 0.10440  0.87290  0.36150  Biso   1.000  H
  H56      1.0000 0.89560  0.87290  0.13850  Biso   1.000  H
  H57      1.0000 0.45790  0.64950  0.69090  Biso   1.000  H
  H58      1.0000 0.54210  0.64950  0.80910  Biso   1.000  H
  H59      1.0000 0.95790  0.14950  0.69090  Biso   1.000  H
  H60      1.0000 0.04210  0.14950  0.80910  Biso   1.000  H
  H61      1.0000 0.54210  0.35050  0.30910  Biso   1.000  H
  H62      1.0000 0.45790  0.35050  0.19090  Biso   1.000  H
  H63      1.0000 0.04210  0.85050  0.30910  Biso   1.000  H
  H64      1.0000 0.95790  0.85050  0.19090  Biso   1.000  H
  C25      1.0000 0.77830  0.06930  0.87200  Biso   1.000  C
  C26      1.0000 0.22170  0.06930  0.62800  Biso   1.000  C
  C27      1.0000 0.27830  0.56930  0.87200  Biso   1.000  C
  C28      1.0000 0.72170  0.56930  0.62800  Biso   1.000  C
  C29      1.0000 0.22170  0.93070  0.12800  Biso   1.000  C
  C30      1.0000 0.77830  0.93070  0.37200  Biso   1.000  C
  C31      1.0000 0.72170  0.43070  0.12800  Biso   1.000  C
  C32      1.0000 0.27830  0.43070  0.37200  Biso   1.000  C
  H65      1.0000 0.77490  0.09660  0.91910  Biso   1.000  H
  H66      1.0000 0.22510  0.09660  0.58090  Biso   1.000  H
  H67      1.0000 0.27490  0.59660  0.91910  Biso   1.000  H
  H68      1.0000 0.72510  0.59660  0.58090  Biso   1.000  H
  H69      1.0000 0.22510  0.90340  0.08090  Biso   1.000  H
  H70      1.0000 0.77490  0.90340  0.41910  Biso   1.000  H
  H71      1.0000 0.72510  0.40340  0.08090  Biso   1.000  H
  H72      1.0000 0.27490  0.40340  0.41910  Biso   1.000  H
  H73      1.0000 0.77420  0.01710  0.88390  Biso   1.000  H
  H74      1.0000 0.22580  0.01710  0.61610  Biso   1.000  H
  H75      1.0000 0.27420  0.51710  0.88390  Biso   1.000  H
  H76      1.0000 0.72580  0.51710  0.61610  Biso   1.000  H
  H77      1.0000 0.22580  0.98290  0.11610  Biso   1.000  H
  H78      1.0000 0.77420  0.98290  0.38390  Biso   1.000  H
  H79      1.0000 0.72580  0.48290  0.11610  Biso   1.000  H
  H80      1.0000 0.27420  0.48290  0.38390  Biso   1.000  H
  N9       1.0000 0.64070  0.28620  0.75850  Biso   1.000  N
  N10      1.0000 0.35930  0.28620  0.74150  Biso   1.000  N
  N11      1.0000 0.14070  0.78620  0.75850  Biso   1.000  N
  N12      1.0000 0.85930  0.78620  0.74150  Biso   1.000  N
  N13      1.0000 0.35930  0.71380  0.24150  Biso   1.000  N
  N14      1.0000 0.64070  0.71380  0.25850  Biso   1.000  N
  N15      1.0000 0.85930  0.21380  0.24150  Biso   1.000  N
  N16      1.0000 0.14070  0.21380  0.25850  Biso   1.000  N
  Cu1      1.0000 0.19839  0.14894  0.32619  Biso   1.000  Cu
  Cu2      1.0000 0.80161  0.14894  0.17381  Biso   1.000  Cu
  Cu3      1.0000 0.69839  0.64894  0.32619  Biso   1.000  Cu
  Cu4      1.0000 0.30161  0.64894  0.17381  Biso   1.000  Cu
  Cu5      1.0000 0.80161  0.85106  0.67381  Biso   1.000  Cu
  Cu6      1.0000 0.19839  0.85106  0.82619  Biso   1.000  Cu
  Cu7      1.0000 0.30161  0.35106  0.67381  Biso   1.000  Cu
  Cu8      1.0000 0.69839  0.35106  0.82619  Biso   1.000  Cu
  Br1      1.0000 0.11314  0.14427  0.41698  Biso   1.000  Br
  Br2      1.0000 0.88686  0.14427  0.08302  Biso   1.000  Br
  Br3      1.0000 0.61314  0.64427  0.41698  Biso   1.000  Br
  Br4      1.0000 0.38686  0.64427  0.08302  Biso   1.000  Br
  Br5      1.0000 0.88686  0.85573  0.58302  Biso   1.000  Br
  Br6      1.0000 0.11314  0.85573  0.91698  Biso   1.000  Br
  Br7      1.0000 0.38686  0.35573  0.58302  Biso   1.000  Br
  Br8      1.0000 0.61314  0.35573  0.91698  Biso   1.000  Br
  Br9      1.0000 0.26173  0.11209  0.22220  Biso   1.000  Br
  Br10     1.0000 0.73827  0.11209  0.27780  Biso   1.000  Br
  Br11     1.0000 0.76173  0.61209  0.22220  Biso   1.000  Br
  Br12     1.0000 0.23827  0.61209  0.27780  Biso   1.000  Br
  Br13     1.0000 0.73827  0.88791  0.77780  Biso   1.000  Br
  Br14     1.0000 0.26173  0.88791  0.72220  Biso   1.000  Br
  Br15     1.0000 0.23827  0.38791  0.77780  Biso   1.000  Br
  Br16     1.0000 0.76173  0.38791  0.72220  Biso   1.000  Br
  S1       1.0000 0.24749  0.98323  0.38671  Biso   1.000  S
  S2       1.0000 0.75251  0.98323  0.11329  Biso   1.000  S
  S3       1.0000 0.74749  0.48323  0.38671  Biso   1.000  S
  S4       1.0000 0.25251  0.48323  0.11329  Biso   1.000  S
  S5       1.0000 0.75251  0.01677  0.61329  Biso   1.000  S
  S6       1.0000 0.24749  0.01677  0.88671  Biso   1.000  S
  S7       1.0000 0.25251  0.51677  0.61329  Biso   1.000  S
  S8       1.0000 0.74749  0.51677  0.88671  Biso   1.000  S
  S9       1.0000 0.44781  0.73493  0.55483  Biso   1.000  S
  S10      1.0000 0.55219  0.73493  0.94517  Biso   1.000  S
  S11      1.0000 0.94781  0.23493  0.55483  Biso   1.000  S
  S12      1.0000 0.05219  0.23493  0.94517  Biso   1.000  S
  S13      1.0000 0.55219  0.26507  0.44517  Biso   1.000  S
  S14      1.0000 0.44781  0.26507  0.05483  Biso   1.000  S
  S15      1.0000 0.05219  0.76507  0.44517  Biso   1.000  S
  S16      1.0000 0.94781  0.76507  0.05483  Biso   1.000  S
  N17      1.0000 0.27130  0.12450  0.40360  Biso   1.000  N
  N18      1.0000 0.72870  0.12450  0.09640  Biso   1.000  N
  N19      1.0000 0.77130  0.62450  0.40360  Biso   1.000  N
  N20      1.0000 0.22870  0.62450  0.09640  Biso   1.000  N
  N21      1.0000 0.72870  0.87550  0.59640  Biso   1.000  N
  N22      1.0000 0.27130  0.87550  0.90360  Biso   1.000  N
  N23      1.0000 0.22870  0.37550  0.59640  Biso   1.000  N
  N24      1.0000 0.77130  0.37550  0.90360  Biso   1.000  N
  C33      1.0000 0.43330  0.08490  0.55860  Biso   1.000  C
  C34      1.0000 0.56670  0.08490  0.94140  Biso   1.000  C
  C35      1.0000 0.93330  0.58490  0.55860  Biso   1.000  C
  C36      1.0000 0.06670  0.58490  0.94140  Biso   1.000  C
  C37      1.0000 0.56670  0.91510  0.44140  Biso   1.000  C
  C38      1.0000 0.43330  0.91510  0.05860  Biso   1.000  C
  C39      1.0000 0.06670  0.41510  0.44140  Biso   1.000  C
  C40      1.0000 0.93330  0.41510  0.05860  Biso   1.000  C
  N25      1.0000 0.34340  0.04430  0.47450  Biso   1.000  N
  N26      1.0000 0.65660  0.04430  0.02550  Biso   1.000  N
  N27      1.0000 0.84340  0.54430  0.47450  Biso   1.000  N
  N28      1.0000 0.15660  0.54430  0.02550  Biso   1.000  N
  N29      1.0000 0.65660  0.95570  0.52550  Biso   1.000  N
  N30      1.0000 0.34340  0.95570  0.97450  Biso   1.000  N
  N31      1.0000 0.15660  0.45570  0.52550  Biso   1.000  N
  N32      1.0000 0.84340  0.45570  0.97450  Biso   1.000  N
  C41      1.0000 0.56470  0.18420  0.68000  Biso   1.000  C
  C42      1.0000 0.43530  0.18420  0.82000  Biso   1.000  C
  C43      1.0000 0.06470  0.68420  0.68000  Biso   1.000  C
  C44      1.0000 0.93530  0.68420  0.82000  Biso   1.000  C
  C45      1.0000 0.43530  0.81580  0.32000  Biso   1.000  C
  C46      1.0000 0.56470  0.81580  0.18000  Biso   1.000  C
  C47      1.0000 0.93530  0.31580  0.32000  Biso   1.000  C
  C48      1.0000 0.06470  0.31580  0.18000  Biso   1.000  C
  N33      1.0000 0.61570  0.16140  0.72440  Biso   1.000  N
  N34      1.0000 0.38430  0.16140  0.77560  Biso   1.000  N
  N35      1.0000 0.11570  0.66140  0.72440  Biso   1.000  N
  N36      1.0000 0.88430  0.66140  0.77560  Biso   1.000  N
  N37      1.0000 0.38430  0.83860  0.27560  Biso   1.000  N
  N38      1.0000 0.61570  0.83860  0.22440  Biso   1.000  N
  N39      1.0000 0.88430  0.33860  0.27560  Biso   1.000  N
  N40      1.0000 0.11570  0.33860  0.22440  Biso   1.000  N
  C49      1.0000 0.53870  0.05090  0.65860  Biso   1.000  C
  C50      1.0000 0.46130  0.05090  0.84140  Biso   1.000  C
  C51      1.0000 0.03870  0.55090  0.65860  Biso   1.000  C
  C52      1.0000 0.96130  0.55090  0.84140  Biso   1.000  C
  C53      1.0000 0.46130  0.94910  0.34140  Biso   1.000  C
  C54      1.0000 0.53870  0.94910  0.15860  Biso   1.000  C
  C55      1.0000 0.96130  0.44910  0.34140  Biso   1.000  C
  C56      1.0000 0.03870  0.44910  0.15860  Biso   1.000  C
  H81      1.0000 0.57420  0.03970  0.69210  Biso   1.000  H
  H82      1.0000 0.42580  0.03970  0.80790  Biso   1.000  H
  H83      1.0000 0.07420  0.53970  0.69210  Biso   1.000  H
  H84      1.0000 0.92580  0.53970  0.80790  Biso   1.000  H
  H85      1.0000 0.42580  0.96030  0.30790  Biso   1.000  H
  H86      1.0000 0.57420  0.96030  0.19210  Biso   1.000  H
  H87      1.0000 0.92580  0.46030  0.30790  Biso   1.000  H
  H88      1.0000 0.07420  0.46030  0.19210  Biso   1.000  H
  C57      1.0000 0.47020  0.14190  0.59310  Biso   1.000  C
  C58      1.0000 0.52980  0.14190  0.90690  Biso   1.000  C
  C59      1.0000 0.97020  0.64190  0.59310  Biso   1.000  C
  C60      1.0000 0.02980  0.64190  0.90690  Biso   1.000  C
  C61      1.0000 0.52980  0.85810  0.40690  Biso   1.000  C
  C62      1.0000 0.47020  0.85810  0.09310  Biso   1.000  C
  C63      1.0000 0.02980  0.35810  0.40690  Biso   1.000  C
  C64      1.0000 0.97020  0.35810  0.09310  Biso   1.000  C
  H89      1.0000 0.45930  0.19100  0.58290  Biso   1.000  H
  H90      1.0000 0.54070  0.19100  0.91710  Biso   1.000  H
  H91      1.0000 0.95930  0.69100  0.58290  Biso   1.000  H
  H92      1.0000 0.04070  0.69100  0.91710  Biso   1.000  H
  H93      1.0000 0.54070  0.80900  0.41710  Biso   1.000  H
  H94      1.0000 0.45930  0.80900  0.08290  Biso   1.000  H
  H95      1.0000 0.04070  0.30900  0.41710  Biso   1.000  H
  H96      1.0000 0.95930  0.30900  0.08290  Biso   1.000  H
  C65      1.0000 0.44930  0.01180  0.57480  Biso   1.000  C
  C66      1.0000 0.55070  0.01180  0.92520  Biso   1.000  C
  C67      1.0000 0.94930  0.51180  0.57480  Biso   1.000  C
  C68      1.0000 0.05070  0.51180  0.92520  Biso   1.000  C
  C69      1.0000 0.55070  0.98820  0.42520  Biso   1.000  C
  C70      1.0000 0.44930  0.98820  0.07480  Biso   1.000  C
  C71      1.0000 0.05070  0.48820  0.42520  Biso   1.000  C
  C72      1.0000 0.94930  0.48820  0.07480  Biso   1.000  C
  H97      1.0000 0.42450  0.97410  0.55160  Biso   1.000  H
  H98      1.0000 0.57550  0.97410  0.94840  Biso   1.000  H
  H99      1.0000 0.92450  0.47410  0.55160  Biso   1.000  H
  H100     1.0000 0.07550  0.47410  0.94840  Biso   1.000  H
  H101     1.0000 0.57550  0.02590  0.44840  Biso   1.000  H
  H102     1.0000 0.42450  0.02590  0.05160  Biso   1.000  H
  H103     1.0000 0.07550  0.52590  0.44840  Biso   1.000  H
  H104     1.0000 0.92450  0.52590  0.05160  Biso   1.000  H
  C73      1.0000 0.50220  0.99350  0.62530  Biso   1.000  C
  C74      1.0000 0.49780  0.99350  0.87470  Biso   1.000  C
  C75      1.0000 0.00220  0.49350  0.62530  Biso   1.000  C
  C76      1.0000 0.99780  0.49350  0.87470  Biso   1.000  C
  C77      1.0000 0.49780  0.00650  0.37470  Biso   1.000  C
  C78      1.0000 0.50220  0.00650  0.12530  Biso   1.000  C
  C79      1.0000 0.99780  0.50650  0.37470  Biso   1.000  C
  C80      1.0000 0.00220  0.50650  0.12530  Biso   1.000  C
  C81      1.0000 0.35760  0.17270  0.48590  Biso   1.000  C
  C82      1.0000 0.64240  0.17270  0.01410  Biso   1.000  C
  C83      1.0000 0.85760  0.67270  0.48590  Biso   1.000  C
  C84      1.0000 0.14240  0.67270  0.01410  Biso   1.000  C
  C85      1.0000 0.64240  0.82730  0.51410  Biso   1.000  C
  C86      1.0000 0.35760  0.82730  0.98590  Biso   1.000  C
  C87      1.0000 0.14240  0.32730  0.51410  Biso   1.000  C
  C88      1.0000 0.85760  0.32730  0.98590  Biso   1.000  C
  H105     1.0000 0.37980  0.21330  0.50710  Biso   1.000  H
  H106     1.0000 0.62020  0.21330  0.99290  Biso   1.000  H
  H107     1.0000 0.87980  0.71330  0.50710  Biso   1.000  H
  H108     1.0000 0.12020  0.71330  0.99290  Biso   1.000  H
  H109     1.0000 0.62020  0.78670  0.49290  Biso   1.000  H
  H110     1.0000 0.37980  0.78670  0.00710  Biso   1.000  H
  H111     1.0000 0.12020  0.28670  0.49290  Biso   1.000  H
  H112     1.0000 0.87980  0.28670  0.00710  Biso   1.000  H
  N41      1.0000 0.48220  0.86570  0.60090  Biso   1.000  N
  N42      1.0000 0.51780  0.86570  0.89910  Biso   1.000  N
  N43      1.0000 0.98220  0.36570  0.60090  Biso   1.000  N
  N44      1.0000 0.01780  0.36570  0.89910  Biso   1.000  N
  N45      1.0000 0.51780  0.13430  0.39910  Biso   1.000  N
  N46      1.0000 0.48220  0.13430  0.10090  Biso   1.000  N
  N47      1.0000 0.01780  0.63430  0.39910  Biso   1.000  N
  N48      1.0000 0.98220  0.63430  0.10090  Biso   1.000  N
  C89      1.0000 0.37650  0.10250  0.50470  Biso   1.000  C
  C90      1.0000 0.62350  0.10250  0.99530  Biso   1.000  C
  C91      1.0000 0.87650  0.60250  0.50470  Biso   1.000  C
  C92      1.0000 0.12350  0.60250  0.99530  Biso   1.000  C
  C93      1.0000 0.62350  0.89750  0.49530  Biso   1.000  C
  C94      1.0000 0.37650  0.89750  0.00470  Biso   1.000  C
  C95      1.0000 0.12350  0.39750  0.49530  Biso   1.000  C
  C96      1.0000 0.87650  0.39750  0.00470  Biso   1.000  C
  C97      1.0000 0.30530  0.18190  0.43490  Biso   1.000  C
  C98      1.0000 0.69470  0.18190  0.06510  Biso   1.000  C
  C99      1.0000 0.80530  0.68190  0.43490  Biso   1.000  C
  C100     1.0000 0.19470  0.68190  0.06510  Biso   1.000  C
  C101     1.0000 0.69470  0.81810  0.56510  Biso   1.000  C
  C102     1.0000 0.30530  0.81810  0.93490  Biso   1.000  C
  C103     1.0000 0.19470  0.31810  0.56510  Biso   1.000  C
  C104     1.0000 0.80530  0.31810  0.93490  Biso   1.000  C
  H113     1.0000 0.29260  0.22970  0.42130  Biso   1.000  H
  H114     1.0000 0.70740  0.22970  0.07870  Biso   1.000  H
  H115     1.0000 0.79260  0.72970  0.42130  Biso   1.000  H
  H116     1.0000 0.20740  0.72970  0.07870  Biso   1.000  H
  H117     1.0000 0.70740  0.77030  0.57870  Biso   1.000  H
  H118     1.0000 0.29260  0.77030  0.92130  Biso   1.000  H
  H119     1.0000 0.20740  0.27030  0.57870  Biso   1.000  H
  H120     1.0000 0.79260  0.27030  0.92130  Biso   1.000  H
  C105     1.0000 0.57710  0.81740  0.70110  Biso   1.000  C
  C106     1.0000 0.42290  0.81740  0.79890  Biso   1.000  C
  C107     1.0000 0.07710  0.31740  0.70110  Biso   1.000  C
  C108     1.0000 0.92290  0.31740  0.79890  Biso   1.000  C
  C109     1.0000 0.42290  0.18260  0.29890  Biso   1.000  C
  C110     1.0000 0.57710  0.18260  0.20110  Biso   1.000  C
  C111     1.0000 0.92290  0.68260  0.29890  Biso   1.000  C
  C112     1.0000 0.07710  0.68260  0.20110  Biso   1.000  C
  H121     1.0000 0.60930  0.80150  0.73680  Biso   1.000  H
  H122     1.0000 0.39070  0.80150  0.76320  Biso   1.000  H
  H123     1.0000 0.10930  0.30150  0.73680  Biso   1.000  H
  H124     1.0000 0.89070  0.30150  0.76320  Biso   1.000  H
  H125     1.0000 0.39070  0.19850  0.26320  Biso   1.000  H
  H126     1.0000 0.60930  0.19850  0.23680  Biso   1.000  H
  H127     1.0000 0.89070  0.69850  0.26320  Biso   1.000  H
  H128     1.0000 0.10930  0.69850  0.23680  Biso   1.000  H
  C113     1.0000 0.56840  0.89150  0.69210  Biso   1.000  C
  C114     1.0000 0.43160  0.89150  0.80790  Biso   1.000  C
  C115     1.0000 0.06840  0.39150  0.69210  Biso   1.000  C
  C116     1.0000 0.93160  0.39150  0.80790  Biso   1.000  C
  C117     1.0000 0.43160  0.10850  0.30790  Biso   1.000  C
  C118     1.0000 0.56840  0.10850  0.19210  Biso   1.000  C
  C119     1.0000 0.93160  0.60850  0.30790  Biso   1.000  C
  C120     1.0000 0.06840  0.60850  0.19210  Biso   1.000  C
  H129     1.0000 0.59460  0.92540  0.71930  Biso   1.000  H
  H130     1.0000 0.40540  0.92540  0.78070  Biso   1.000  H
  H131     1.0000 0.09460  0.42540  0.71930  Biso   1.000  H
  H132     1.0000 0.90540  0.42540  0.78070  Biso   1.000  H
  H133     1.0000 0.40540  0.07460  0.28070  Biso   1.000  H
  H134     1.0000 0.59460  0.07460  0.21930  Biso   1.000  H
  H135     1.0000 0.90540  0.57460  0.28070  Biso   1.000  H
  H136     1.0000 0.09460  0.57460  0.21930  Biso   1.000  H
  C121     1.0000 0.52370  0.12500  0.64300  Biso   1.000  C
  C122     1.0000 0.47630  0.12500  0.85700  Biso   1.000  C
  C123     1.0000 0.02370  0.62500  0.64300  Biso   1.000  C
  C124     1.0000 0.97630  0.62500  0.85700  Biso   1.000  C
  C125     1.0000 0.47630  0.87500  0.35700  Biso   1.000  C
  C126     1.0000 0.52370  0.87500  0.14300  Biso   1.000  C
  C127     1.0000 0.97630  0.37500  0.35700  Biso   1.000  C
  C128     1.0000 0.02370  0.37500  0.14300  Biso   1.000  C
  C129     1.0000 0.51810  0.91470  0.63980  Biso   1.000  C
  C130     1.0000 0.48190  0.91470  0.86020  Biso   1.000  C
  C131     1.0000 0.01810  0.41470  0.63980  Biso   1.000  C
  C132     1.0000 0.98190  0.41470  0.86020  Biso   1.000  C
  C133     1.0000 0.48190  0.08530  0.36020  Biso   1.000  C
  C134     1.0000 0.51810  0.08530  0.13980  Biso   1.000  C
  C135     1.0000 0.98190  0.58530  0.36020  Biso   1.000  C
  C136     1.0000 0.01810  0.58530  0.13980  Biso   1.000  C
  C137     1.0000 0.29250  0.05760  0.42610  Biso   1.000  C
  C138     1.0000 0.70750  0.05760  0.07390  Biso   1.000  C
  C139     1.0000 0.79250  0.55760  0.42610  Biso   1.000  C
  C140     1.0000 0.20750  0.55760  0.07390  Biso   1.000  C
  C141     1.0000 0.70750  0.94240  0.57390  Biso   1.000  C
  C142     1.0000 0.29250  0.94240  0.92610  Biso   1.000  C
  C143     1.0000 0.20750  0.44240  0.57390  Biso   1.000  C
  C144     1.0000 0.79250  0.44240  0.92610  Biso   1.000  C
  C145     1.0000 0.55200  0.25880  0.67110  Biso   1.000  C
  C146     1.0000 0.44800  0.25880  0.82890  Biso   1.000  C
  C147     1.0000 0.05200  0.75880  0.67110  Biso   1.000  C
  C148     1.0000 0.94800  0.75880  0.82890  Biso   1.000  C
  C149     1.0000 0.44800  0.74120  0.32890  Biso   1.000  C
  C150     1.0000 0.55200  0.74120  0.17110  Biso   1.000  C
  C151     1.0000 0.94800  0.24120  0.32890  Biso   1.000  C
  C152     1.0000 0.05200  0.24120  0.17110  Biso   1.000  C
  H137     1.0000 0.51760  0.27520  0.63850  Biso   1.000  H
  H138     1.0000 0.48240  0.27520  0.86150  Biso   1.000  H
  H139     1.0000 0.01760  0.77520  0.63850  Biso   1.000  H
  H140     1.0000 0.98240  0.77520  0.86150  Biso   1.000  H
  H141     1.0000 0.48240  0.72480  0.36150  Biso   1.000  H
  H142     1.0000 0.51760  0.72480  0.13850  Biso   1.000  H
  H143     1.0000 0.98240  0.22480  0.36150  Biso   1.000  H
  H144     1.0000 0.01760  0.22480  0.13850  Biso   1.000  H
  C153     1.0000 0.49590  0.79470  0.61320  Biso   1.000  C
  C154     1.0000 0.50410  0.79470  0.88680  Biso   1.000  C
  C155     1.0000 0.99590  0.29470  0.61320  Biso   1.000  C
  C156     1.0000 0.00410  0.29470  0.88680  Biso   1.000  C
  C157     1.0000 0.50410  0.20530  0.38680  Biso   1.000  C
  C158     1.0000 0.49590  0.20530  0.11320  Biso   1.000  C
  C159     1.0000 0.00410  0.70530  0.38680  Biso   1.000  C
  C160     1.0000 0.99590  0.70530  0.11320  Biso   1.000  C
  C161     1.0000 0.28780  0.90490  0.43050  Biso   1.000  C
  C162     1.0000 0.71220  0.90490  0.06950  Biso   1.000  C
  C163     1.0000 0.78780  0.40490  0.43050  Biso   1.000  C
  C164     1.0000 0.21220  0.40490  0.06950  Biso   1.000  C
  C165     1.0000 0.71220  0.09510  0.56950  Biso   1.000  C
  C166     1.0000 0.28780  0.09510  0.93050  Biso   1.000  C
  C167     1.0000 0.21220  0.59510  0.56950  Biso   1.000  C
  C168     1.0000 0.78780  0.59510  0.93050  Biso   1.000  C
  H145     1.0000 0.27700  0.86130  0.40040  Biso   1.000  H
  H146     1.0000 0.72300  0.86130  0.09960  Biso   1.000  H
  H147     1.0000 0.77700  0.36130  0.40040  Biso   1.000  H
  H148     1.0000 0.22300  0.36130  0.09960  Biso   1.000  H
  H149     1.0000 0.72300  0.13870  0.59960  Biso   1.000  H
  H150     1.0000 0.27700  0.13870  0.90040  Biso   1.000  H
  H151     1.0000 0.22300  0.63870  0.59960  Biso   1.000  H
  H152     1.0000 0.77700  0.63870  0.90040  Biso   1.000  H
  H153     1.0000 0.33590  0.91210  0.42950  Biso   1.000  H
  H154     1.0000 0.66410  0.91210  0.07050  Biso   1.000  H
  H155     1.0000 0.83590  0.41210  0.42950  Biso   1.000  H
  H156     1.0000 0.16410  0.41210  0.07050  Biso   1.000  H
  H157     1.0000 0.66410  0.08790  0.57050  Biso   1.000  H
  H158     1.0000 0.33590  0.08790  0.92950  Biso   1.000  H
  H159     1.0000 0.16410  0.58790  0.57050  Biso   1.000  H
  H160     1.0000 0.83590  0.58790  0.92950  Biso   1.000  H
  C169     1.0000 0.47820  0.64340  0.58220  Biso   1.000  C
  C170     1.0000 0.52180  0.64340  0.91780  Biso   1.000  C
  C171     1.0000 0.97820  0.14340  0.58220  Biso   1.000  C
  C172     1.0000 0.02180  0.14340  0.91780  Biso   1.000  C
  C173     1.0000 0.52180  0.35660  0.41780  Biso   1.000  C
  C174     1.0000 0.47820  0.35660  0.08220  Biso   1.000  C
  C175     1.0000 0.02180  0.85660  0.41780  Biso   1.000  C
  C176     1.0000 0.97820  0.85660  0.08220  Biso   1.000  C
  H161     1.0000 0.47010  0.60860  0.54100  Biso   1.000  H
  H162     1.0000 0.52990  0.60860  0.95900  Biso   1.000  H
  H163     1.0000 0.97010  0.10860  0.54100  Biso   1.000  H
  H164     1.0000 0.02990  0.10860  0.95900  Biso   1.000  H
  H165     1.0000 0.52990  0.39140  0.45900  Biso   1.000  H
  H166     1.0000 0.47010  0.39140  0.04100  Biso   1.000  H
  H167     1.0000 0.02990  0.89140  0.45900  Biso   1.000  H
  H168     1.0000 0.97010  0.89140  0.04100  Biso   1.000  H
  H169     1.0000 0.52600  0.64500  0.59380  Biso   1.000  H
  H170     1.0000 0.47400  0.64500  0.90620  Biso   1.000  H
  H171     1.0000 0.02600  0.14500  0.59380  Biso   1.000  H
  H172     1.0000 0.97400  0.14500  0.90620  Biso   1.000  H
  H173     1.0000 0.47400  0.35500  0.40620  Biso   1.000  H
  H174     1.0000 0.52600  0.35500  0.09380  Biso   1.000  H
  H175     1.0000 0.97400  0.85500  0.40620  Biso   1.000  H
  H176     1.0000 0.02600  0.85500  0.09380  Biso   1.000  H
  C177     1.0000 0.27000  0.89110  0.50730  Biso   1.000  C
  C178     1.0000 0.73000  0.89110  0.99270  Biso   1.000  C
  C179     1.0000 0.77000  0.39110  0.50730  Biso   1.000  C
  C180     1.0000 0.23000  0.39110  0.99270  Biso   1.000  C
  C181     1.0000 0.73000  0.10890  0.49270  Biso   1.000  C
  C182     1.0000 0.27000  0.10890  0.00730  Biso   1.000  C
  C183     1.0000 0.23000  0.60890  0.49270  Biso   1.000  C
  C184     1.0000 0.77000  0.60890  0.00730  Biso   1.000  C
  H177     1.0000 0.28200  0.93380  0.53820  Biso   1.000  H
  H178     1.0000 0.71800  0.93380  0.96180  Biso   1.000  H
  H179     1.0000 0.78200  0.43380  0.53820  Biso   1.000  H
  H180     1.0000 0.21800  0.43380  0.96180  Biso   1.000  H
  H181     1.0000 0.71800  0.06620  0.46180  Biso   1.000  H
  H182     1.0000 0.28200  0.06620  0.03820  Biso   1.000  H
  H183     1.0000 0.21800  0.56620  0.46180  Biso   1.000  H
  H184     1.0000 0.78200  0.56620  0.03820  Biso   1.000  H
  H185     1.0000 0.29530  0.84910  0.52670  Biso   1.000  H
  H186     1.0000 0.70470  0.84910  0.97330  Biso   1.000  H
  H187     1.0000 0.79530  0.34910  0.52670  Biso   1.000  H
  H188     1.0000 0.20470  0.34910  0.97330  Biso   1.000  H
  H189     1.0000 0.70470  0.15090  0.47330  Biso   1.000  H
  H190     1.0000 0.29530  0.15090  0.02670  Biso   1.000  H
  H191     1.0000 0.20470  0.65090  0.47330  Biso   1.000  H
  H192     1.0000 0.79530  0.65090  0.02670  Biso   1.000  H
  C185     1.0000 0.19570  0.87560  0.51420  Biso   1.000  C
  C186     1.0000 0.80430  0.87560  0.98580  Biso   1.000  C
  C187     1.0000 0.69570  0.37560  0.51420  Biso   1.000  C
  C188     1.0000 0.30430  0.37560  0.98580  Biso   1.000  C
  C189     1.0000 0.80430  0.12440  0.48580  Biso   1.000  C
  C190     1.0000 0.19570  0.12440  0.01420  Biso   1.000  C
  C191     1.0000 0.30430  0.62440  0.48580  Biso   1.000  C
  C192     1.0000 0.69570  0.62440  0.01420  Biso   1.000  C
  H193     1.0000 0.17120  0.92130  0.51080  Biso   1.000  H
  H194     1.0000 0.82880  0.92130  0.98920  Biso   1.000  H
  H195     1.0000 0.67120  0.42130  0.51080  Biso   1.000  H
  H196     1.0000 0.32880  0.42130  0.98920  Biso   1.000  H
  H197     1.0000 0.82880  0.07870  0.48920  Biso   1.000  H
  H198     1.0000 0.17120  0.07870  0.01080  Biso   1.000  H
  H199     1.0000 0.32880  0.57870  0.48920  Biso   1.000  H
  H200     1.0000 0.67120  0.57870  0.01080  Biso   1.000  H
  H201     1.0000 0.18800  0.85260  0.56220  Biso   1.000  H
  H202     1.0000 0.81200  0.85260  0.93780  Biso   1.000  H
  H203     1.0000 0.68800  0.35260  0.56220  Biso   1.000  H
  H204     1.0000 0.31200  0.35260  0.93780  Biso   1.000  H
  H205     1.0000 0.81200  0.14740  0.43780  Biso   1.000  H
  H206     1.0000 0.18800  0.14740  0.06220  Biso   1.000  H
  H207     1.0000 0.31200  0.64740  0.43780  Biso   1.000  H
  H208     1.0000 0.68800  0.64740  0.06220  Biso   1.000  H
  H209     1.0000 0.18080  0.84320  0.47390  Biso   1.000  H
  H210     1.0000 0.81920  0.84320  0.02610  Biso   1.000  H
  H211     1.0000 0.68080  0.34320  0.47390  Biso   1.000  H
  H212     1.0000 0.31920  0.34320  0.02610  Biso   1.000  H
  H213     1.0000 0.81920  0.15680  0.52610  Biso   1.000  H
  H214     1.0000 0.18080  0.15680  0.97390  Biso   1.000  H
  H215     1.0000 0.31920  0.65680  0.52610  Biso   1.000  H
  H216     1.0000 0.68080  0.65680  0.97390  Biso   1.000  H
  S17      1.0000 0.73160  0.19110  0.80240  Biso   1.000  S
  S18      1.0000 0.26840  0.19110  0.69760  Biso   1.000  S
  S19      1.0000 0.23160  0.69110  0.80240  Biso   1.000  S
  S20      1.0000 0.76840  0.69110  0.69760  Biso   1.000  S
  S21      1.0000 0.26840  0.80890  0.19760  Biso   1.000  S
  S22      1.0000 0.73160  0.80890  0.30240  Biso   1.000  S
  S23      1.0000 0.76840  0.30890  0.19760  Biso   1.000  S
  S24      1.0000 0.23160  0.30890  0.30240  Biso   1.000  S
  C193     1.0000 0.72240  0.09050  0.82110  Biso   1.000  C
  C194     1.0000 0.27760  0.09050  0.67890  Biso   1.000  C
  C195     1.0000 0.22240  0.59050  0.82110  Biso   1.000  C
  C196     1.0000 0.77760  0.59050  0.67890  Biso   1.000  C
  C197     1.0000 0.27760  0.90950  0.17890  Biso   1.000  C
  C198     1.0000 0.72240  0.90950  0.32110  Biso   1.000  C
  C199     1.0000 0.77760  0.40950  0.17890  Biso   1.000  C
  C200     1.0000 0.22240  0.40950  0.32110  Biso   1.000  C
  H217     1.0000 0.68010  0.08060  0.84470  Biso   1.000  H
  H218     1.0000 0.31990  0.08060  0.65530  Biso   1.000  H
  H219     1.0000 0.18010  0.58060  0.84470  Biso   1.000  H
  H220     1.0000 0.81990  0.58060  0.65530  Biso   1.000  H
  H221     1.0000 0.31990  0.91940  0.15530  Biso   1.000  H
  H222     1.0000 0.68010  0.91940  0.34470  Biso   1.000  H
  H223     1.0000 0.81990  0.41940  0.15530  Biso   1.000  H
  H224     1.0000 0.18010  0.41940  0.34470  Biso   1.000  H
  H225     1.0000 0.72380  0.06270  0.77410  Biso   1.000  H
  H226     1.0000 0.27620  0.06270  0.72590  Biso   1.000  H
  H227     1.0000 0.22380  0.56270  0.77410  Biso   1.000  H
  H228     1.0000 0.77620  0.56270  0.72590  Biso   1.000  H
  H229     1.0000 0.27620  0.93730  0.22590  Biso   1.000  H
  H230     1.0000 0.72380  0.93730  0.27410  Biso   1.000  H
  H231     1.0000 0.77620  0.43730  0.22590  Biso   1.000  H
  H232     1.0000 0.22380  0.43730  0.27410  Biso   1.000  H
  C201     1.0000 0.59090  0.30780  0.71120  Biso   1.000  C
  C202     1.0000 0.40910  0.30780  0.78880  Biso   1.000  C
  C203     1.0000 0.09090  0.80780  0.71120  Biso   1.000  C
  C204     1.0000 0.90910  0.80780  0.78880  Biso   1.000  C
  C205     1.0000 0.40910  0.69220  0.28880  Biso   1.000  C
  C206     1.0000 0.59090  0.69220  0.21120  Biso   1.000  C
  C207     1.0000 0.90910  0.19220  0.28880  Biso   1.000  C
  C208     1.0000 0.09090  0.19220  0.21120  Biso   1.000  C
  H233     1.0000 0.58260  0.35820  0.70550  Biso   1.000  H
  H234     1.0000 0.41740  0.35820  0.79450  Biso   1.000  H
  H235     1.0000 0.08260  0.85820  0.70550  Biso   1.000  H
  H236     1.0000 0.91740  0.85820  0.79450  Biso   1.000  H
  H237     1.0000 0.41740  0.64180  0.29450  Biso   1.000  H
  H238     1.0000 0.58260  0.64180  0.20550  Biso   1.000  H
  H239     1.0000 0.91740  0.14180  0.29450  Biso   1.000  H
  H240     1.0000 0.08260  0.14180  0.20550  Biso   1.000  H
  C209     1.0000 0.65160  0.21280  0.76090  Biso   1.000  C
  C210     1.0000 0.34840  0.21280  0.73910  Biso   1.000  C
  C211     1.0000 0.15160  0.71280  0.76090  Biso   1.000  C
  C212     1.0000 0.84840  0.71280  0.73910  Biso   1.000  C
  C213     1.0000 0.34840  0.78720  0.23910  Biso   1.000  C
  C214     1.0000 0.65160  0.78720  0.26090  Biso   1.000  C
  C215     1.0000 0.84840  0.28720  0.23910  Biso   1.000  C
  C216     1.0000 0.15160  0.28720  0.26090  Biso   1.000  C
  S25      1.0000 0.70260  0.18520  0.83980  Biso   1.000  S
  S26      1.0000 0.29740  0.18520  0.66020  Biso   1.000  S
  S27      1.0000 0.20260  0.68520  0.83980  Biso   1.000  S
  S28      1.0000 0.79740  0.68520  0.66020  Biso   1.000  S
  S29      1.0000 0.29740  0.81480  0.16020  Biso   1.000  S
  S30      1.0000 0.70260  0.81480  0.33980  Biso   1.000  S
  S31      1.0000 0.79740  0.31480  0.16020  Biso   1.000  S
  S32      1.0000 0.20260  0.31480  0.33980  Biso   1.000  S
