data_image0
_cell_length_a       8.397
_cell_length_b       24.888
_cell_length_c       12.189
_cell_angle_alpha    90
_cell_angle_beta     90
_cell_angle_gamma    90

_symmetry_space_group_name_H-M    "P 1"
_symmetry_int_tables_number       1

loop_
  _symmetry_equiv_pos_as_xyz
  'x, y, z'

loop_
  _atom_site_label
  _atom_site_occupancy
  _atom_site_fract_x
  _atom_site_fract_y
  _atom_site_fract_z
  _atom_site_thermal_displace_type
  _atom_site_B_iso_or_equiv
  _atom_site_type_symbol
  Cu1      1.0000 0.56070  0.27344  0.85023  Biso   1.000  Cu
  Cu2      1.0000 0.43930  0.77344  0.64977  Biso   1.000  Cu
  Cu3      1.0000 0.43930  0.72656  0.14977  Biso   1.000  Cu
  Cu4      1.0000 0.56070  0.22656  0.35023  Biso   1.000  Cu
  Cl1      1.0000 0.35956  0.28265  0.96966  Biso   1.000  Cl
  Cl2      1.0000 0.64044  0.78265  0.53034  Biso   1.000  Cl
  Cl3      1.0000 0.64044  0.71735  0.03034  Biso   1.000  Cl
  Cl4      1.0000 0.35956  0.21735  0.46966  Biso   1.000  Cl
  S1       1.0000 0.50300  0.17310  0.72320  Biso   1.000  S
  S2       1.0000 0.49700  0.67310  0.77680  Biso   1.000  S
  S3       1.0000 0.49700  0.82690  0.27680  Biso   1.000  S
  S4       1.0000 0.50300  0.32690  0.22320  Biso   1.000  S
  C1       1.0000 0.57870  0.15674  0.85460  Biso   1.000  C
  C2       1.0000 0.42130  0.65674  0.64540  Biso   1.000  C
  C3       1.0000 0.42130  0.84326  0.14540  Biso   1.000  C
  C4       1.0000 0.57870  0.34326  0.35460  Biso   1.000  C
  N1       1.0000 0.61900  0.20119  0.91080  Biso   1.000  N
  N2       1.0000 0.38100  0.70119  0.58920  Biso   1.000  N
  N3       1.0000 0.38100  0.79881  0.08920  Biso   1.000  N
  N4       1.0000 0.61900  0.29881  0.41080  Biso   1.000  N
  Cl5      1.0000 0.80471  0.28058  0.77597  Biso   1.000  Cl
  Cl6      1.0000 0.19529  0.78058  0.72403  Biso   1.000  Cl
  Cl7      1.0000 0.19529  0.71942  0.22403  Biso   1.000  Cl
  Cl8      1.0000 0.80471  0.21942  0.27597  Biso   1.000  Cl
  C5       1.0000 0.73760  0.04242  0.00220  Biso   1.000  C
  C6       1.0000 0.26240  0.54242  0.49780  Biso   1.000  C
  C7       1.0000 0.26240  0.95758  0.99780  Biso   1.000  C
  C8       1.0000 0.73760  0.45758  0.50220  Biso   1.000  C
  C9       1.0000 0.69750  0.09910  0.97420  Biso   1.000  C
  C10      1.0000 0.30250  0.59910  0.52580  Biso   1.000  C
  C11      1.0000 0.30250  0.90090  0.02580  Biso   1.000  C
  C12      1.0000 0.69750  0.40090  0.47420  Biso   1.000  C
  N5       1.0000 0.61230  0.10676  0.88260  Biso   1.000  N
  N6       1.0000 0.38770  0.60676  0.61740  Biso   1.000  N
  N7       1.0000 0.38770  0.89324  0.11740  Biso   1.000  N
  N8       1.0000 0.61230  0.39324  0.38260  Biso   1.000  N
  C13      1.0000 0.70220  0.19361  0.00240  Biso   1.000  C
  C14      1.0000 0.29780  0.69361  0.49760  Biso   1.000  C
  C15      1.0000 0.29780  0.80639  0.99760  Biso   1.000  C
  C16      1.0000 0.70220  0.30639  0.50240  Biso   1.000  C
  H1       1.0000 0.73320  0.22320  0.04390  Biso   1.000  H
  H2       1.0000 0.26680  0.72320  0.45610  Biso   1.000  H
  H3       1.0000 0.26680  0.77680  0.95610  Biso   1.000  H
  H4       1.0000 0.73320  0.27680  0.54390  Biso   1.000  H
  C17      1.0000 0.74310  0.14285  0.03700  Biso   1.000  C
  C18      1.0000 0.25690  0.64285  0.46300  Biso   1.000  C
  C19      1.0000 0.25690  0.85715  0.96300  Biso   1.000  C
  C20      1.0000 0.74310  0.35715  0.53700  Biso   1.000  C
  H5       1.0000 0.80050  0.13800  0.10150  Biso   1.000  H
  H6       1.0000 0.19950  0.63800  0.39850  Biso   1.000  H
  H7       1.0000 0.19950  0.86200  0.89850  Biso   1.000  H
  H8       1.0000 0.80050  0.36200  0.60150  Biso   1.000  H
  S5       1.0000 0.17662  0.05684  0.43701  Biso   1.000  S
  S6       1.0000 0.82338  0.55684  0.06299  Biso   1.000  S
  S7       1.0000 0.82338  0.94316  0.56299  Biso   1.000  S
  S8       1.0000 0.17662  0.44316  0.93701  Biso   1.000  S
  N9       1.0000 0.01820  0.01008  0.27260  Biso   1.000  N
  N10      1.0000 0.98180  0.51008  0.22740  Biso   1.000  N
  N11      1.0000 0.98180  0.98992  0.72740  Biso   1.000  N
  N12      1.0000 0.01820  0.48992  0.77260  Biso   1.000  N
  C21      1.0000 0.68580  0.00107  0.93520  Biso   1.000  C
  C22      1.0000 0.31420  0.50107  0.56480  Biso   1.000  C
  C23      1.0000 0.31420  0.99893  0.06480  Biso   1.000  C
  C24      1.0000 0.68580  0.49893  0.43520  Biso   1.000  C
  H9       1.0000 0.62520  0.00900  0.87340  Biso   1.000  H
  H10      1.0000 0.37480  0.50900  0.62660  Biso   1.000  H
  H11      1.0000 0.37480  0.99100  0.12660  Biso   1.000  H
  H12      1.0000 0.62520  0.49100  0.37340  Biso   1.000  H
  C25      1.0000 0.01970  0.91566  0.24720  Biso   1.000  C
  C26      1.0000 0.98030  0.41566  0.25280  Biso   1.000  C
  C27      1.0000 0.98030  0.08434  0.75280  Biso   1.000  C
  C28      1.0000 0.01970  0.58434  0.74720  Biso   1.000  C
  H13      1.0000 0.98540  0.88530  0.20950  Biso   1.000  H
  H14      1.0000 0.01460  0.38530  0.29050  Biso   1.000  H
  H15      1.0000 0.01460  0.11470  0.79050  Biso   1.000  H
  H16      1.0000 0.98540  0.61470  0.70950  Biso   1.000  H
  C29      1.0000 0.86950  0.97756  0.11870  Biso   1.000  C
  C30      1.0000 0.13050  0.47756  0.38130  Biso   1.000  C
  C31      1.0000 0.13050  0.02244  0.88130  Biso   1.000  C
  C32      1.0000 0.86950  0.52244  0.61870  Biso   1.000  C
  C33      1.0000 0.11500  0.00216  0.35790  Biso   1.000  C
  C34      1.0000 0.88500  0.50216  0.14210  Biso   1.000  C
  C35      1.0000 0.88500  0.99784  0.64210  Biso   1.000  C
  C36      1.0000 0.11500  0.49784  0.85790  Biso   1.000  C
  C37      1.0000 0.82940  0.03034  0.09420  Biso   1.000  C
  C38      1.0000 0.17060  0.53034  0.40580  Biso   1.000  C
  C39      1.0000 0.17060  0.96966  0.90580  Biso   1.000  C
  C40      1.0000 0.82940  0.46966  0.59420  Biso   1.000  C
  H17      1.0000 0.86420  0.05790  0.13970  Biso   1.000  H
  H18      1.0000 0.13580  0.55790  0.36030  Biso   1.000  H
  H19      1.0000 0.13580  0.94210  0.86030  Biso   1.000  H
  H20      1.0000 0.86420  0.44210  0.63970  Biso   1.000  H
  N13      1.0000 0.17330  0.95389  0.39170  Biso   1.000  N
  N14      1.0000 0.82670  0.45389  0.10830  Biso   1.000  N
  N15      1.0000 0.82670  0.04611  0.60830  Biso   1.000  N
  N16      1.0000 0.17330  0.54611  0.89170  Biso   1.000  N
  C41      1.0000 0.97190  0.96672  0.21660  Biso   1.000  C
  C42      1.0000 0.02810  0.46672  0.28340  Biso   1.000  C
  C43      1.0000 0.02810  0.03328  0.78340  Biso   1.000  C
  C44      1.0000 0.97190  0.53328  0.71660  Biso   1.000  C
  C45      1.0000 0.12110  0.91190  0.33650  Biso   1.000  C
  C46      1.0000 0.87890  0.41190  0.16350  Biso   1.000  C
  C47      1.0000 0.87890  0.08810  0.66350  Biso   1.000  C
  C48      1.0000 0.12110  0.58810  0.83650  Biso   1.000  C
  H21      1.0000 0.15400  0.87800  0.35880  Biso   1.000  H
  H22      1.0000 0.84600  0.37800  0.14120  Biso   1.000  H
  H23      1.0000 0.84600  0.12200  0.64120  Biso   1.000  H
  H24      1.0000 0.15400  0.62200  0.85880  Biso   1.000  H
  C49      1.0000 0.81610  0.93679  0.05100  Biso   1.000  C
  C50      1.0000 0.18390  0.43679  0.44900  Biso   1.000  C
  C51      1.0000 0.18390  0.06321  0.94900  Biso   1.000  C
  C52      1.0000 0.81610  0.56321  0.55100  Biso   1.000  C
  H25      1.0000 0.84280  0.90140  0.06730  Biso   1.000  H
  H26      1.0000 0.15720  0.40140  0.43270  Biso   1.000  H
  H27      1.0000 0.15720  0.09860  0.93270  Biso   1.000  H
  H28      1.0000 0.84280  0.59860  0.56730  Biso   1.000  H
  N17      1.0000 0.56710  0.92026  0.80450  Biso   1.000  N
  N18      1.0000 0.43290  0.42026  0.69550  Biso   1.000  N
  N19      1.0000 0.43290  0.07974  0.19550  Biso   1.000  N
  N20      1.0000 0.56710  0.57974  0.30450  Biso   1.000  N
  C53      1.0000 0.72280  0.94764  0.95880  Biso   1.000  C
  C54      1.0000 0.27720  0.44764  0.54120  Biso   1.000  C
  C55      1.0000 0.27720  0.05236  0.04120  Biso   1.000  C
  C56      1.0000 0.72280  0.55236  0.45880  Biso   1.000  C
  C57      1.0000 0.42510  0.10901  0.68000  Biso   1.000  C
  C58      1.0000 0.57490  0.60901  0.82000  Biso   1.000  C
  C59      1.0000 0.57490  0.89099  0.32000  Biso   1.000  C
  C60      1.0000 0.42510  0.39099  0.18000  Biso   1.000  C
  H29      1.0000 0.36880  0.11440  0.61240  Biso   1.000  H
  H30      1.0000 0.63120  0.61440  0.88760  Biso   1.000  H
  H31      1.0000 0.63120  0.88560  0.38760  Biso   1.000  H
  H32      1.0000 0.36880  0.38560  0.11240  Biso   1.000  H
  H33      1.0000 0.36960  0.08300  0.72390  Biso   1.000  H
  H34      1.0000 0.63040  0.58300  0.77610  Biso   1.000  H
  H35      1.0000 0.63040  0.91700  0.27610  Biso   1.000  H
  H36      1.0000 0.36960  0.41700  0.22390  Biso   1.000  H
  H37      1.0000 0.53060  0.09620  0.66460  Biso   1.000  H
  H38      1.0000 0.46940  0.59620  0.83540  Biso   1.000  H
  H39      1.0000 0.46940  0.90380  0.33540  Biso   1.000  H
  H40      1.0000 0.53060  0.40380  0.16460  Biso   1.000  H
  C61      1.0000 0.66490  0.90471  0.88640  Biso   1.000  C
  C62      1.0000 0.33510  0.40471  0.61360  Biso   1.000  C
  C63      1.0000 0.33510  0.09529  0.11360  Biso   1.000  C
  C64      1.0000 0.66490  0.59529  0.38640  Biso   1.000  C
  C65      1.0000 0.70230  0.85084  0.89790  Biso   1.000  C
  C66      1.0000 0.29770  0.35084  0.60210  Biso   1.000  C
  C67      1.0000 0.29770  0.14916  0.10210  Biso   1.000  C
  C68      1.0000 0.70230  0.64916  0.39790  Biso   1.000  C
  H41      1.0000 0.77230  0.83950  0.95230  Biso   1.000  H
  H42      1.0000 0.22770  0.33950  0.54770  Biso   1.000  H
  H43      1.0000 0.22770  0.16050  0.04770  Biso   1.000  H
  H44      1.0000 0.77230  0.66050  0.45230  Biso   1.000  H
  S9       1.0000 0.38477  0.90149  0.63060  Biso   1.000  S
  S10      1.0000 0.61523  0.40149  0.86940  Biso   1.000  S
  S11      1.0000 0.61523  0.09851  0.36940  Biso   1.000  S
  S12      1.0000 0.38477  0.59851  0.13060  Biso   1.000  S
  C69      1.0000 0.63340  0.81434  0.82710  Biso   1.000  C
  C70      1.0000 0.36660  0.31434  0.67290  Biso   1.000  C
  C71      1.0000 0.36660  0.18566  0.17290  Biso   1.000  C
  C72      1.0000 0.63340  0.68566  0.32710  Biso   1.000  C
  H45      1.0000 0.65680  0.77800  0.83530  Biso   1.000  H
  H46      1.0000 0.34320  0.27800  0.66470  Biso   1.000  H
  H47      1.0000 0.34320  0.22200  0.16470  Biso   1.000  H
  H48      1.0000 0.65680  0.72200  0.33530  Biso   1.000  H
  C73      1.0000 0.50870  0.88300  0.73870  Biso   1.000  C
  C74      1.0000 0.49130  0.38300  0.76130  Biso   1.000  C
  C75      1.0000 0.49130  0.11700  0.26130  Biso   1.000  C
  C76      1.0000 0.50870  0.61700  0.23870  Biso   1.000  C
  N21      1.0000 0.53490  0.82940  0.74750  Biso   1.000  N
  N22      1.0000 0.46510  0.32940  0.75250  Biso   1.000  N
  N23      1.0000 0.46510  0.17060  0.25250  Biso   1.000  N
  N24      1.0000 0.53490  0.67060  0.24750  Biso   1.000  N
  C77      1.0000 0.39250  0.97267  0.63810  Biso   1.000  C
  C78      1.0000 0.60750  0.47267  0.86190  Biso   1.000  C
  C79      1.0000 0.60750  0.02733  0.36190  Biso   1.000  C
  C80      1.0000 0.39250  0.52733  0.13810  Biso   1.000  C
  H49      1.0000 0.32770  0.98780  0.58110  Biso   1.000  H
  H50      1.0000 0.67230  0.48780  0.91890  Biso   1.000  H
  H51      1.0000 0.67230  0.01220  0.41890  Biso   1.000  H
  H52      1.0000 0.32770  0.51220  0.08110  Biso   1.000  H
  H53      1.0000 0.50060  0.98450  0.62920  Biso   1.000  H
  H54      1.0000 0.49940  0.48450  0.87080  Biso   1.000  H
  H55      1.0000 0.49940  0.01550  0.37080  Biso   1.000  H
  H56      1.0000 0.50060  0.51550  0.12920  Biso   1.000  H
  H57      1.0000 0.35330  0.98430  0.70830  Biso   1.000  H
  H58      1.0000 0.64670  0.48430  0.79170  Biso   1.000  H
  H59      1.0000 0.64670  0.01570  0.29170  Biso   1.000  H
  H60      1.0000 0.35330  0.51570  0.20830  Biso   1.000  H
  C81      1.0000 0.07080  0.11260  0.37780  Biso   1.000  C
  C82      1.0000 0.92920  0.61260  0.12220  Biso   1.000  C
  C83      1.0000 0.92920  0.88740  0.62220  Biso   1.000  C
  C84      1.0000 0.07080  0.38740  0.87780  Biso   1.000  C
  H61      1.0000 0.09730  0.14490  0.41670  Biso   1.000  H
  H62      1.0000 0.90270  0.64490  0.08330  Biso   1.000  H
  H63      1.0000 0.90270  0.85510  0.58330  Biso   1.000  H
  H64      1.0000 0.09730  0.35510  0.91670  Biso   1.000  H
  H65      1.0000 0.95830  0.10620  0.38290  Biso   1.000  H
  H66      1.0000 0.04170  0.60620  0.11710  Biso   1.000  H
  H67      1.0000 0.04170  0.89380  0.61710  Biso   1.000  H
  H68      1.0000 0.95830  0.39380  0.88290  Biso   1.000  H
  H69      1.0000 0.10040  0.11630  0.30210  Biso   1.000  H
  H70      1.0000 0.89960  0.61630  0.19790  Biso   1.000  H
  H71      1.0000 0.89960  0.88370  0.69790  Biso   1.000  H
  H72      1.0000 0.10040  0.38370  0.80210  Biso   1.000  H
  S13      1.0000 0.43700  0.17000  0.75200  Biso   1.000  S
  S14      1.0000 0.56300  0.67000  0.74800  Biso   1.000  S
  S15      1.0000 0.56300  0.83000  0.24800  Biso   1.000  S
  S16      1.0000 0.43700  0.33000  0.25200  Biso   1.000  S
  O1       1.0000 0.07570  0.20160  0.88350  Biso   1.000  O
  O2       1.0000 0.92430  0.70160  0.61650  Biso   1.000  O
  O3       1.0000 0.92430  0.79840  0.11650  Biso   1.000  O
  O4       1.0000 0.07570  0.29840  0.38350  Biso   1.000  O
  H73      1.0000 0.11100  0.23200  0.90500  Biso   1.000  H
  H74      1.0000 0.88900  0.73200  0.59500  Biso   1.000  H
  H75      1.0000 0.88900  0.76800  0.09500  Biso   1.000  H
  H76      1.0000 0.11100  0.26800  0.40500  Biso   1.000  H
  H77      1.0000 0.03300  0.21400  0.82500  Biso   1.000  H
  H78      1.0000 0.96700  0.71400  0.67500  Biso   1.000  H
  H79      1.0000 0.96700  0.78600  0.17500  Biso   1.000  H
  H80      1.0000 0.03300  0.28600  0.32500  Biso   1.000  H
