data_image0
_cell_length_a       19.454
_cell_length_b       17.989
_cell_length_c       17.634
_cell_angle_alpha    90
_cell_angle_beta     90
_cell_angle_gamma    90

_symmetry_space_group_name_H-M    "P 1"
_symmetry_int_tables_number       1

loop_
  _symmetry_equiv_pos_as_xyz
  'x, y, z'

loop_
  _atom_site_label
  _atom_site_occupancy
  _atom_site_fract_x
  _atom_site_fract_y
  _atom_site_fract_z
  _atom_site_thermal_displace_type
  _atom_site_B_iso_or_equiv
  _atom_site_type_symbol
  Cu1      1.0000 0.30336  0.35565  0.32775  Biso   1.000  Cu
  Cu2      1.0000 0.69664  0.35565  0.17225  Biso   1.000  Cu
  Cu3      1.0000 0.80336  0.85565  0.32775  Biso   1.000  Cu
  Cu4      1.0000 0.19664  0.85565  0.17225  Biso   1.000  Cu
  Cu5      1.0000 0.69664  0.64435  0.67225  Biso   1.000  Cu
  Cu6      1.0000 0.30336  0.64435  0.82775  Biso   1.000  Cu
  Cu7      1.0000 0.19664  0.14435  0.67225  Biso   1.000  Cu
  Cu8      1.0000 0.80336  0.14435  0.82775  Biso   1.000  Cu
  Cl1      1.0000 0.38871  0.34815  0.41136  Biso   1.000  Cl
  Cl2      1.0000 0.61129  0.34815  0.08864  Biso   1.000  Cl
  Cl3      1.0000 0.88871  0.84815  0.41136  Biso   1.000  Cl
  Cl4      1.0000 0.11129  0.84815  0.08864  Biso   1.000  Cl
  Cl5      1.0000 0.61129  0.65185  0.58864  Biso   1.000  Cl
  Cl6      1.0000 0.38871  0.65185  0.91136  Biso   1.000  Cl
  Cl7      1.0000 0.11129  0.15185  0.58864  Biso   1.000  Cl
  Cl8      1.0000 0.88871  0.15185  0.91136  Biso   1.000  Cl
  Cl9      1.0000 0.23860  0.39887  0.23494  Biso   1.000  Cl
  Cl10     1.0000 0.76140  0.39887  0.26506  Biso   1.000  Cl
  Cl11     1.0000 0.73860  0.89887  0.23494  Biso   1.000  Cl
  Cl12     1.0000 0.26140  0.89887  0.26506  Biso   1.000  Cl
  Cl13     1.0000 0.76140  0.60113  0.76506  Biso   1.000  Cl
  Cl14     1.0000 0.23860  0.60113  0.73494  Biso   1.000  Cl
  Cl15     1.0000 0.26140  0.10113  0.76506  Biso   1.000  Cl
  Cl16     1.0000 0.73860  0.10113  0.73494  Biso   1.000  Cl
  N1       1.0000 0.51690  0.86660  0.10170  Biso   1.000  N
  N2       1.0000 0.48310  0.86660  0.39830  Biso   1.000  N
  N3       1.0000 0.01690  0.36660  0.10170  Biso   1.000  N
  N4       1.0000 0.98310  0.36660  0.39830  Biso   1.000  N
  N5       1.0000 0.48310  0.13340  0.89830  Biso   1.000  N
  N6       1.0000 0.51690  0.13340  0.60170  Biso   1.000  N
  N7       1.0000 0.98310  0.63340  0.89830  Biso   1.000  N
  N8       1.0000 0.01690  0.63340  0.60170  Biso   1.000  N
  C1       1.0000 0.55140  0.01320  0.07850  Biso   1.000  C
  C2       1.0000 0.44860  0.01320  0.42150  Biso   1.000  C
  C3       1.0000 0.05140  0.51320  0.07850  Biso   1.000  C
  C4       1.0000 0.94860  0.51320  0.42150  Biso   1.000  C
  C5       1.0000 0.44860  0.98680  0.92150  Biso   1.000  C
  C6       1.0000 0.55140  0.98680  0.57850  Biso   1.000  C
  C7       1.0000 0.94860  0.48680  0.92150  Biso   1.000  C
  C8       1.0000 0.05140  0.48680  0.57850  Biso   1.000  C
  H1       1.0000 0.57670  0.97490  0.05670  Biso   1.000  H
  H2       1.0000 0.42330  0.97490  0.44330  Biso   1.000  H
  H3       1.0000 0.07670  0.47490  0.05670  Biso   1.000  H
  H4       1.0000 0.92330  0.47490  0.44330  Biso   1.000  H
  H5       1.0000 0.42330  0.02510  0.94330  Biso   1.000  H
  H6       1.0000 0.57670  0.02510  0.55670  Biso   1.000  H
  H7       1.0000 0.92330  0.52510  0.94330  Biso   1.000  H
  H8       1.0000 0.07670  0.52510  0.55670  Biso   1.000  H
  C9       1.0000 0.40990  0.31210  0.21110  Biso   1.000  C
  C10      1.0000 0.59010  0.31210  0.28890  Biso   1.000  C
  C11      1.0000 0.90990  0.81210  0.21110  Biso   1.000  C
  C12      1.0000 0.09010  0.81210  0.28890  Biso   1.000  C
  C13      1.0000 0.59010  0.68790  0.78890  Biso   1.000  C
  C14      1.0000 0.40990  0.68790  0.71110  Biso   1.000  C
  C15      1.0000 0.09010  0.18790  0.78890  Biso   1.000  C
  C16      1.0000 0.90990  0.18790  0.71110  Biso   1.000  C
  H9       1.0000 0.42060  0.36240  0.20850  Biso   1.000  H
  H10      1.0000 0.57940  0.36240  0.29150  Biso   1.000  H
  H11      1.0000 0.92060  0.86240  0.20850  Biso   1.000  H
  H12      1.0000 0.07940  0.86240  0.29150  Biso   1.000  H
  H13      1.0000 0.57940  0.63760  0.79150  Biso   1.000  H
  H14      1.0000 0.42060  0.63760  0.70850  Biso   1.000  H
  H15      1.0000 0.07940  0.13760  0.79150  Biso   1.000  H
  H16      1.0000 0.92060  0.13760  0.70850  Biso   1.000  H
  C17      1.0000 0.56840  0.08620  0.06230  Biso   1.000  C
  C18      1.0000 0.43160  0.08620  0.43770  Biso   1.000  C
  C19      1.0000 0.06840  0.58620  0.06230  Biso   1.000  C
  C20      1.0000 0.93160  0.58620  0.43770  Biso   1.000  C
  C21      1.0000 0.43160  0.91380  0.93770  Biso   1.000  C
  C22      1.0000 0.56840  0.91380  0.56230  Biso   1.000  C
  C23      1.0000 0.93160  0.41380  0.93770  Biso   1.000  C
  C24      1.0000 0.06840  0.41380  0.56230  Biso   1.000  C
  N9       1.0000 0.35716  0.29070  0.25430  Biso   1.000  N
  N10      1.0000 0.64284  0.29070  0.24570  Biso   1.000  N
  N11      1.0000 0.85716  0.79070  0.25430  Biso   1.000  N
  N12      1.0000 0.14284  0.79070  0.24570  Biso   1.000  N
  N13      1.0000 0.64284  0.70930  0.74570  Biso   1.000  N
  N14      1.0000 0.35716  0.70930  0.75430  Biso   1.000  N
  N15      1.0000 0.14284  0.20930  0.74570  Biso   1.000  N
  N16      1.0000 0.85716  0.20930  0.75430  Biso   1.000  N
  N17      1.0000 0.37840  0.16610  0.21750  Biso   1.000  N
  N18      1.0000 0.62160  0.16610  0.28250  Biso   1.000  N
  N19      1.0000 0.87840  0.66610  0.21750  Biso   1.000  N
  N20      1.0000 0.12160  0.66610  0.28250  Biso   1.000  N
  N21      1.0000 0.62160  0.83390  0.78250  Biso   1.000  N
  N22      1.0000 0.37840  0.83390  0.71750  Biso   1.000  N
  N23      1.0000 0.12160  0.33390  0.78250  Biso   1.000  N
  N24      1.0000 0.87840  0.33390  0.71750  Biso   1.000  N
  C25      1.0000 0.49690  0.99600  0.12680  Biso   1.000  C
  C26      1.0000 0.50310  0.99600  0.37320  Biso   1.000  C
  C27      1.0000 0.99690  0.49600  0.12680  Biso   1.000  C
  C28      1.0000 0.00310  0.49600  0.37320  Biso   1.000  C
  C29      1.0000 0.50310  0.00400  0.87320  Biso   1.000  C
  C30      1.0000 0.49690  0.00400  0.62680  Biso   1.000  C
  C31      1.0000 0.00310  0.50400  0.87320  Biso   1.000  C
  C32      1.0000 0.99690  0.50400  0.62680  Biso   1.000  C
  C33      1.0000 0.53010  0.14410  0.09440  Biso   1.000  C
  C34      1.0000 0.46990  0.14410  0.40560  Biso   1.000  C
  C35      1.0000 0.03010  0.64410  0.09440  Biso   1.000  C
  C36      1.0000 0.96990  0.64410  0.40560  Biso   1.000  C
  C37      1.0000 0.46990  0.85590  0.90560  Biso   1.000  C
  C38      1.0000 0.53010  0.85590  0.59440  Biso   1.000  C
  C39      1.0000 0.96990  0.35590  0.90560  Biso   1.000  C
  C40      1.0000 0.03010  0.35590  0.59440  Biso   1.000  C
  H17      1.0000 0.54140  0.19320  0.08380  Biso   1.000  H
  H18      1.0000 0.45860  0.19320  0.41620  Biso   1.000  H
  H19      1.0000 0.04140  0.69320  0.08380  Biso   1.000  H
  H20      1.0000 0.95860  0.69320  0.41620  Biso   1.000  H
  H21      1.0000 0.45860  0.80680  0.91620  Biso   1.000  H
  H22      1.0000 0.54140  0.80680  0.58380  Biso   1.000  H
  H23      1.0000 0.95860  0.30680  0.91620  Biso   1.000  H
  H24      1.0000 0.04140  0.30680  0.58380  Biso   1.000  H
  C41      1.0000 0.45920  0.05330  0.15770  Biso   1.000  C
  C42      1.0000 0.54080  0.05330  0.34230  Biso   1.000  C
  C43      1.0000 0.95920  0.55330  0.15770  Biso   1.000  C
  C44      1.0000 0.04080  0.55330  0.34230  Biso   1.000  C
  C45      1.0000 0.54080  0.94670  0.84230  Biso   1.000  C
  C46      1.0000 0.45920  0.94670  0.65770  Biso   1.000  C
  C47      1.0000 0.04080  0.44670  0.84230  Biso   1.000  C
  C48      1.0000 0.95920  0.44670  0.65770  Biso   1.000  C
  H25      1.0000 0.42250  0.04220  0.18950  Biso   1.000  H
  H26      1.0000 0.57750  0.04220  0.31050  Biso   1.000  H
  H27      1.0000 0.92250  0.54220  0.18950  Biso   1.000  H
  H28      1.0000 0.07750  0.54220  0.31050  Biso   1.000  H
  H29      1.0000 0.57750  0.95780  0.81050  Biso   1.000  H
  H30      1.0000 0.42250  0.95780  0.68950  Biso   1.000  H
  H31      1.0000 0.07750  0.45780  0.81050  Biso   1.000  H
  H32      1.0000 0.92250  0.45780  0.68950  Biso   1.000  H
  C49      1.0000 0.43340  0.18790  0.17680  Biso   1.000  C
  C50      1.0000 0.56660  0.18790  0.32320  Biso   1.000  C
  C51      1.0000 0.93340  0.68790  0.17680  Biso   1.000  C
  C52      1.0000 0.06660  0.68790  0.32320  Biso   1.000  C
  C53      1.0000 0.56660  0.81210  0.82320  Biso   1.000  C
  C54      1.0000 0.43340  0.81210  0.67680  Biso   1.000  C
  C55      1.0000 0.06660  0.31210  0.82320  Biso   1.000  C
  C56      1.0000 0.93340  0.31210  0.67680  Biso   1.000  C
  C57      1.0000 0.42980  0.89340  0.19140  Biso   1.000  C
  C58      1.0000 0.57020  0.89340  0.30860  Biso   1.000  C
  C59      1.0000 0.92980  0.39340  0.19140  Biso   1.000  C
  C60      1.0000 0.07020  0.39340  0.30860  Biso   1.000  C
  C61      1.0000 0.57020  0.10660  0.80860  Biso   1.000  C
  C62      1.0000 0.42980  0.10660  0.69140  Biso   1.000  C
  C63      1.0000 0.07020  0.60660  0.80860  Biso   1.000  C
  C64      1.0000 0.92980  0.60660  0.69140  Biso   1.000  C
  H33      1.0000 0.40350  0.92720  0.21890  Biso   1.000  H
  H34      1.0000 0.59650  0.92720  0.28110  Biso   1.000  H
  H35      1.0000 0.90350  0.42720  0.21890  Biso   1.000  H
  H36      1.0000 0.09650  0.42720  0.28110  Biso   1.000  H
  H37      1.0000 0.59650  0.07280  0.78110  Biso   1.000  H
  H38      1.0000 0.40350  0.07280  0.71890  Biso   1.000  H
  H39      1.0000 0.09650  0.57280  0.78110  Biso   1.000  H
  H40      1.0000 0.90350  0.57280  0.71890  Biso   1.000  H
  N25      1.0000 0.45570  0.76730  0.16060  Biso   1.000  N
  N26      1.0000 0.54430  0.76730  0.33940  Biso   1.000  N
  N27      1.0000 0.95570  0.26730  0.16060  Biso   1.000  N
  N28      1.0000 0.04430  0.26730  0.33940  Biso   1.000  N
  N29      1.0000 0.54430  0.23270  0.83940  Biso   1.000  N
  N30      1.0000 0.45570  0.23270  0.66060  Biso   1.000  N
  N31      1.0000 0.04430  0.73270  0.83940  Biso   1.000  N
  N32      1.0000 0.95570  0.73270  0.66060  Biso   1.000  N
  C65      1.0000 0.48020  0.91650  0.14130  Biso   1.000  C
  C66      1.0000 0.51980  0.91650  0.35870  Biso   1.000  C
  C67      1.0000 0.98020  0.41650  0.14130  Biso   1.000  C
  C68      1.0000 0.01980  0.41650  0.35870  Biso   1.000  C
  C69      1.0000 0.51980  0.08350  0.85870  Biso   1.000  C
  C70      1.0000 0.48020  0.08350  0.64130  Biso   1.000  C
  C71      1.0000 0.01980  0.58350  0.85870  Biso   1.000  C
  C72      1.0000 0.98020  0.58350  0.64130  Biso   1.000  C
  C73      1.0000 0.42060  0.81730  0.19870  Biso   1.000  C
  C74      1.0000 0.57940  0.81730  0.30130  Biso   1.000  C
  C75      1.0000 0.92060  0.31730  0.19870  Biso   1.000  C
  C76      1.0000 0.07940  0.31730  0.30130  Biso   1.000  C
  C77      1.0000 0.57940  0.18270  0.80130  Biso   1.000  C
  C78      1.0000 0.42060  0.18270  0.69870  Biso   1.000  C
  C79      1.0000 0.07940  0.68270  0.80130  Biso   1.000  C
  C80      1.0000 0.92060  0.68270  0.69870  Biso   1.000  C
  H41      1.0000 0.38740  0.80060  0.23270  Biso   1.000  H
  H42      1.0000 0.61260  0.80060  0.26730  Biso   1.000  H
  H43      1.0000 0.88740  0.30060  0.23270  Biso   1.000  H
  H44      1.0000 0.11260  0.30060  0.26730  Biso   1.000  H
  H45      1.0000 0.61260  0.19940  0.76730  Biso   1.000  H
  H46      1.0000 0.38740  0.19940  0.73270  Biso   1.000  H
  H47      1.0000 0.11260  0.69940  0.76730  Biso   1.000  H
  H48      1.0000 0.88740  0.69940  0.73270  Biso   1.000  H
  C81      1.0000 0.44880  0.26300  0.17070  Biso   1.000  C
  C82      1.0000 0.55120  0.26300  0.32930  Biso   1.000  C
  C83      1.0000 0.94880  0.76300  0.17070  Biso   1.000  C
  C84      1.0000 0.05120  0.76300  0.32930  Biso   1.000  C
  C85      1.0000 0.55120  0.73700  0.82930  Biso   1.000  C
  C86      1.0000 0.44880  0.73700  0.67070  Biso   1.000  C
  C87      1.0000 0.05120  0.23700  0.82930  Biso   1.000  C
  C88      1.0000 0.94880  0.23700  0.67070  Biso   1.000  C
  H49      1.0000 0.48450  0.27940  0.13990  Biso   1.000  H
  H50      1.0000 0.51550  0.27940  0.36010  Biso   1.000  H
  H51      1.0000 0.98450  0.77940  0.13990  Biso   1.000  H
  H52      1.0000 0.01550  0.77940  0.36010  Biso   1.000  H
  H53      1.0000 0.51550  0.72060  0.86010  Biso   1.000  H
  H54      1.0000 0.48450  0.72060  0.63990  Biso   1.000  H
  H55      1.0000 0.01550  0.22060  0.86010  Biso   1.000  H
  H56      1.0000 0.98450  0.22060  0.63990  Biso   1.000  H
  S1       1.0000 0.26140  0.19720  0.29210  Biso   1.000  S
  S2       1.0000 0.73860  0.19720  0.20790  Biso   1.000  S
  S3       1.0000 0.76140  0.69720  0.29210  Biso   1.000  S
  S4       1.0000 0.23860  0.69720  0.20790  Biso   1.000  S
  S5       1.0000 0.73860  0.80280  0.70790  Biso   1.000  S
  S6       1.0000 0.26140  0.80280  0.79210  Biso   1.000  S
  S7       1.0000 0.23860  0.30280  0.70790  Biso   1.000  S
  S8       1.0000 0.76140  0.30280  0.79210  Biso   1.000  S
  S9       1.0000 0.55218  0.73657  0.05550  Biso   1.000  S
  S10      1.0000 0.44782  0.73657  0.44450  Biso   1.000  S
  S11      1.0000 0.05218  0.23657  0.05550  Biso   1.000  S
  S12      1.0000 0.94782  0.23657  0.44450  Biso   1.000  S
  S13      1.0000 0.44782  0.26343  0.94450  Biso   1.000  S
  S14      1.0000 0.55218  0.26343  0.55550  Biso   1.000  S
  S15      1.0000 0.94782  0.76343  0.94450  Biso   1.000  S
  S16      1.0000 0.05218  0.76343  0.55550  Biso   1.000  S
  C89      1.0000 0.62640  0.10270  0.00940  Biso   1.000  C
  C90      1.0000 0.37360  0.10270  0.49060  Biso   1.000  C
  C91      1.0000 0.12640  0.60270  0.00940  Biso   1.000  C
  C92      1.0000 0.87360  0.60270  0.49060  Biso   1.000  C
  C93      1.0000 0.37360  0.89730  0.99060  Biso   1.000  C
  C94      1.0000 0.62640  0.89730  0.50940  Biso   1.000  C
  C95      1.0000 0.87360  0.39730  0.99060  Biso   1.000  C
  C96      1.0000 0.12640  0.39730  0.50940  Biso   1.000  C
  C97      1.0000 0.47480  0.12780  0.14240  Biso   1.000  C
  C98      1.0000 0.52520  0.12780  0.35760  Biso   1.000  C
  C99      1.0000 0.97480  0.62780  0.14240  Biso   1.000  C
  C100     1.0000 0.02520  0.62780  0.35760  Biso   1.000  C
  C101     1.0000 0.52520  0.87220  0.85760  Biso   1.000  C
  C102     1.0000 0.47480  0.87220  0.64240  Biso   1.000  C
  C103     1.0000 0.02520  0.37220  0.85760  Biso   1.000  C
  C104     1.0000 0.97480  0.37220  0.64240  Biso   1.000  C
  C105     1.0000 0.34210  0.21740  0.25190  Biso   1.000  C
  C106     1.0000 0.65790  0.21740  0.24810  Biso   1.000  C
  C107     1.0000 0.84210  0.71740  0.25190  Biso   1.000  C
  C108     1.0000 0.15790  0.71740  0.24810  Biso   1.000  C
  C109     1.0000 0.65790  0.78260  0.74810  Biso   1.000  C
  C110     1.0000 0.34210  0.78260  0.75190  Biso   1.000  C
  C111     1.0000 0.15790  0.28260  0.74810  Biso   1.000  C
  C112     1.0000 0.84210  0.28260  0.75190  Biso   1.000  C
  C113     1.0000 0.26930  0.09630  0.30760  Biso   1.000  C
  C114     1.0000 0.73070  0.09630  0.19240  Biso   1.000  C
  C115     1.0000 0.76930  0.59630  0.30760  Biso   1.000  C
  C116     1.0000 0.23070  0.59630  0.19240  Biso   1.000  C
  C117     1.0000 0.73070  0.90370  0.69240  Biso   1.000  C
  C118     1.0000 0.26930  0.90370  0.80760  Biso   1.000  C
  C119     1.0000 0.23070  0.40370  0.69240  Biso   1.000  C
  C120     1.0000 0.76930  0.40370  0.80760  Biso   1.000  C
  H57      1.0000 0.28170  0.07110  0.26090  Biso   1.000  H
  H58      1.0000 0.71830  0.07110  0.23910  Biso   1.000  H
  H59      1.0000 0.78170  0.57110  0.26090  Biso   1.000  H
  H60      1.0000 0.21830  0.57110  0.23910  Biso   1.000  H
  H61      1.0000 0.71830  0.92890  0.73910  Biso   1.000  H
  H62      1.0000 0.28170  0.92890  0.76090  Biso   1.000  H
  H63      1.0000 0.21830  0.42890  0.73910  Biso   1.000  H
  H64      1.0000 0.78170  0.42890  0.76090  Biso   1.000  H
  H65      1.0000 0.30400  0.08570  0.34570  Biso   1.000  H
  H66      1.0000 0.69600  0.08570  0.15430  Biso   1.000  H
  H67      1.0000 0.80400  0.58570  0.34570  Biso   1.000  H
  H68      1.0000 0.19600  0.58570  0.15430  Biso   1.000  H
  H69      1.0000 0.69600  0.91430  0.65430  Biso   1.000  H
  H70      1.0000 0.30400  0.91430  0.84570  Biso   1.000  H
  H71      1.0000 0.19600  0.41430  0.65430  Biso   1.000  H
  H72      1.0000 0.80400  0.41430  0.84570  Biso   1.000  H
  C121     1.0000 0.50290  0.79480  0.11400  Biso   1.000  C
  C122     1.0000 0.49710  0.79480  0.38600  Biso   1.000  C
  C123     1.0000 0.00290  0.29480  0.11400  Biso   1.000  C
  C124     1.0000 0.99710  0.29480  0.38600  Biso   1.000  C
  C125     1.0000 0.49710  0.20520  0.88600  Biso   1.000  C
  C126     1.0000 0.50290  0.20520  0.61400  Biso   1.000  C
  C127     1.0000 0.99710  0.70520  0.88600  Biso   1.000  C
  C128     1.0000 0.00290  0.70520  0.61400  Biso   1.000  C
  C129     1.0000 0.52430  0.64470  0.08000  Biso   1.000  C
  C130     1.0000 0.47570  0.64470  0.42000  Biso   1.000  C
  C131     1.0000 0.02430  0.14470  0.08000  Biso   1.000  C
  C132     1.0000 0.97570  0.14470  0.42000  Biso   1.000  C
  C133     1.0000 0.47570  0.35530  0.92000  Biso   1.000  C
  C134     1.0000 0.52430  0.35530  0.58000  Biso   1.000  C
  C135     1.0000 0.97570  0.85530  0.92000  Biso   1.000  C
  C136     1.0000 0.02430  0.85530  0.58000  Biso   1.000  C
  H73      1.0000 0.47530  0.64590  0.09030  Biso   1.000  H
  H74      1.0000 0.52470  0.64590  0.40970  Biso   1.000  H
  H75      1.0000 0.97530  0.14590  0.09030  Biso   1.000  H
  H76      1.0000 0.02470  0.14590  0.40970  Biso   1.000  H
  H77      1.0000 0.52470  0.35410  0.90970  Biso   1.000  H
  H78      1.0000 0.47530  0.35410  0.59030  Biso   1.000  H
  H79      1.0000 0.02470  0.85410  0.90970  Biso   1.000  H
  H80      1.0000 0.97530  0.85410  0.59030  Biso   1.000  H
  H81      1.0000 0.53160  0.61220  0.03690  Biso   1.000  H
  H82      1.0000 0.46840  0.61220  0.46310  Biso   1.000  H
  H83      1.0000 0.03160  0.11220  0.03690  Biso   1.000  H
  H84      1.0000 0.96840  0.11220  0.46310  Biso   1.000  H
  H85      1.0000 0.46840  0.38780  0.96310  Biso   1.000  H
  H86      1.0000 0.53160  0.38780  0.53690  Biso   1.000  H
  H87      1.0000 0.96840  0.88780  0.96310  Biso   1.000  H
  H88      1.0000 0.03160  0.88780  0.53690  Biso   1.000  H
  C137     1.0000 0.55920  0.61420  0.14490  Biso   1.000  C
  C138     1.0000 0.44080  0.61420  0.35510  Biso   1.000  C
  C139     1.0000 0.05920  0.11420  0.14490  Biso   1.000  C
  C140     1.0000 0.94080  0.11420  0.35510  Biso   1.000  C
  C141     1.0000 0.44080  0.38580  0.85510  Biso   1.000  C
  C142     1.0000 0.55920  0.38580  0.64490  Biso   1.000  C
  C143     1.0000 0.94080  0.88580  0.85510  Biso   1.000  C
  C144     1.0000 0.05920  0.88580  0.64490  Biso   1.000  C
  H89      1.0000 0.54670  0.64180  0.19000  Biso   1.000  H
  H90      1.0000 0.45330  0.64180  0.31000  Biso   1.000  H
  H91      1.0000 0.04670  0.14180  0.19000  Biso   1.000  H
  H92      1.0000 0.95330  0.14180  0.31000  Biso   1.000  H
  H93      1.0000 0.45330  0.35820  0.81000  Biso   1.000  H
  H94      1.0000 0.54670  0.35820  0.69000  Biso   1.000  H
  H95      1.0000 0.95330  0.85820  0.81000  Biso   1.000  H
  H96      1.0000 0.04670  0.85820  0.69000  Biso   1.000  H
  H97      1.0000 0.60850  0.61820  0.13790  Biso   1.000  H
  H98      1.0000 0.39150  0.61820  0.36210  Biso   1.000  H
  H99      1.0000 0.10850  0.11820  0.13790  Biso   1.000  H
  H100     1.0000 0.89150  0.11820  0.36210  Biso   1.000  H
  H101     1.0000 0.39150  0.38180  0.86210  Biso   1.000  H
  H102     1.0000 0.60850  0.38180  0.63790  Biso   1.000  H
  H103     1.0000 0.89150  0.88180  0.86210  Biso   1.000  H
  H104     1.0000 0.10850  0.88180  0.63790  Biso   1.000  H
  C145     1.0000 0.53880  0.53090  0.15460  Biso   1.000  C
  C146     1.0000 0.46120  0.53090  0.34540  Biso   1.000  C
  C147     1.0000 0.03880  0.03090  0.15460  Biso   1.000  C
  C148     1.0000 0.96120  0.03090  0.34540  Biso   1.000  C
  C149     1.0000 0.46120  0.46910  0.84540  Biso   1.000  C
  C150     1.0000 0.53880  0.46910  0.65460  Biso   1.000  C
  C151     1.0000 0.96120  0.96910  0.84540  Biso   1.000  C
  C152     1.0000 0.03880  0.96910  0.65460  Biso   1.000  C
  H105     1.0000 0.56170  0.51070  0.19810  Biso   1.000  H
  H106     1.0000 0.43830  0.51070  0.30190  Biso   1.000  H
  H107     1.0000 0.06170  0.01070  0.19810  Biso   1.000  H
  H108     1.0000 0.93830  0.01070  0.30190  Biso   1.000  H
  H109     1.0000 0.43830  0.48930  0.80190  Biso   1.000  H
  H110     1.0000 0.56170  0.48930  0.69810  Biso   1.000  H
  H111     1.0000 0.93830  0.98930  0.80190  Biso   1.000  H
  H112     1.0000 0.06170  0.98930  0.69810  Biso   1.000  H
  H113     1.0000 0.55210  0.50360  0.11020  Biso   1.000  H
  H114     1.0000 0.44790  0.50360  0.38980  Biso   1.000  H
  H115     1.0000 0.05210  0.00360  0.11020  Biso   1.000  H
  H116     1.0000 0.94790  0.00360  0.38980  Biso   1.000  H
  H117     1.0000 0.44790  0.49640  0.88980  Biso   1.000  H
  H118     1.0000 0.55210  0.49640  0.61020  Biso   1.000  H
  H119     1.0000 0.94790  0.99640  0.88980  Biso   1.000  H
  H120     1.0000 0.05210  0.99640  0.61020  Biso   1.000  H
  H121     1.0000 0.49000  0.52710  0.16140  Biso   1.000  H
  H122     1.0000 0.51000  0.52710  0.33860  Biso   1.000  H
  H123     1.0000 0.99000  0.02710  0.16140  Biso   1.000  H
  H124     1.0000 0.01000  0.02710  0.33860  Biso   1.000  H
  H125     1.0000 0.51000  0.47290  0.83860  Biso   1.000  H
  H126     1.0000 0.49000  0.47290  0.66140  Biso   1.000  H
  H127     1.0000 0.01000  0.97290  0.83860  Biso   1.000  H
  H128     1.0000 0.99000  0.97290  0.66140  Biso   1.000  H
  S17      1.0000 0.75574  0.97905  0.89652  Biso   1.000  S
  S18      1.0000 0.24426  0.97905  0.60348  Biso   1.000  S
  S19      1.0000 0.25574  0.47905  0.89652  Biso   1.000  S
  S20      1.0000 0.74426  0.47905  0.60348  Biso   1.000  S
  S21      1.0000 0.24426  0.02095  0.10348  Biso   1.000  S
  S22      1.0000 0.75574  0.02095  0.39652  Biso   1.000  S
  S23      1.0000 0.74426  0.52095  0.10348  Biso   1.000  S
  S24      1.0000 0.25574  0.52095  0.39652  Biso   1.000  S
  N33      1.0000 0.65936  0.04311  0.98050  Biso   1.000  N
  N34      1.0000 0.34064  0.04311  0.51950  Biso   1.000  N
  N35      1.0000 0.15936  0.54311  0.98050  Biso   1.000  N
  N36      1.0000 0.84064  0.54311  0.51950  Biso   1.000  N
  N37      1.0000 0.34064  0.95689  0.01950  Biso   1.000  N
  N38      1.0000 0.65936  0.95689  0.48050  Biso   1.000  N
  N39      1.0000 0.84064  0.45689  0.01950  Biso   1.000  N
  N40      1.0000 0.15936  0.45689  0.48050  Biso   1.000  N
  C153     1.0000 0.70060  0.18040  0.94030  Biso   1.000  C
  C154     1.0000 0.29940  0.18040  0.55970  Biso   1.000  C
  C155     1.0000 0.20060  0.68040  0.94030  Biso   1.000  C
  C156     1.0000 0.79940  0.68040  0.55970  Biso   1.000  C
  C157     1.0000 0.29940  0.81960  0.05970  Biso   1.000  C
  C158     1.0000 0.70060  0.81960  0.44030  Biso   1.000  C
  C159     1.0000 0.79940  0.31960  0.05970  Biso   1.000  C
  C160     1.0000 0.20060  0.31960  0.44030  Biso   1.000  C
  H129     1.0000 0.71530  0.22790  0.92710  Biso   1.000  H
  H130     1.0000 0.28470  0.22790  0.57290  Biso   1.000  H
  H131     1.0000 0.21530  0.72790  0.92710  Biso   1.000  H
  H132     1.0000 0.78470  0.72790  0.57290  Biso   1.000  H
  H133     1.0000 0.28470  0.77210  0.07290  Biso   1.000  H
  H134     1.0000 0.71530  0.77210  0.42710  Biso   1.000  H
  H135     1.0000 0.78470  0.27210  0.07290  Biso   1.000  H
  H136     1.0000 0.21530  0.27210  0.42710  Biso   1.000  H
  C161     1.0000 0.71050  0.05510  0.93300  Biso   1.000  C
  C162     1.0000 0.28950  0.05510  0.56700  Biso   1.000  C
  C163     1.0000 0.21050  0.55510  0.93300  Biso   1.000  C
  C164     1.0000 0.78950  0.55510  0.56700  Biso   1.000  C
  C165     1.0000 0.28950  0.94490  0.06700  Biso   1.000  C
  C166     1.0000 0.71050  0.94490  0.43300  Biso   1.000  C
  C167     1.0000 0.78950  0.44490  0.06700  Biso   1.000  C
  C168     1.0000 0.21050  0.44490  0.43300  Biso   1.000  C
  C169     1.0000 0.64770  0.17370  0.99180  Biso   1.000  C
  C170     1.0000 0.35230  0.17370  0.50820  Biso   1.000  C
  C171     1.0000 0.14770  0.67370  0.99180  Biso   1.000  C
  C172     1.0000 0.85230  0.67370  0.50820  Biso   1.000  C
  C173     1.0000 0.35230  0.82630  0.00820  Biso   1.000  C
  C174     1.0000 0.64770  0.82630  0.49180  Biso   1.000  C
  C175     1.0000 0.85230  0.32630  0.00820  Biso   1.000  C
  C176     1.0000 0.14770  0.32630  0.49180  Biso   1.000  C
  H137     1.0000 0.62730  0.21530  0.01370  Biso   1.000  H
  H138     1.0000 0.37270  0.21530  0.48630  Biso   1.000  H
  H139     1.0000 0.12730  0.71530  0.01370  Biso   1.000  H
  H140     1.0000 0.87270  0.71530  0.48630  Biso   1.000  H
  H141     1.0000 0.37270  0.78470  0.98630  Biso   1.000  H
  H142     1.0000 0.62730  0.78470  0.51370  Biso   1.000  H
  H143     1.0000 0.87270  0.28470  0.98630  Biso   1.000  H
  H144     1.0000 0.12730  0.28470  0.51370  Biso   1.000  H
  N41      1.0000 0.73177  0.12240  0.90840  Biso   1.000  N
  N42      1.0000 0.26823  0.12240  0.59160  Biso   1.000  N
  N43      1.0000 0.23177  0.62240  0.90840  Biso   1.000  N
  N44      1.0000 0.76823  0.62240  0.59160  Biso   1.000  N
  N45      1.0000 0.26823  0.87760  0.09160  Biso   1.000  N
  N46      1.0000 0.73177  0.87760  0.40840  Biso   1.000  N
  N47      1.0000 0.76823  0.37760  0.09160  Biso   1.000  N
  N48      1.0000 0.23177  0.37760  0.40840  Biso   1.000  N
  C177     1.0000 0.19640  0.07120  0.33540  Biso   1.000  C
  C178     1.0000 0.80360  0.07120  0.16460  Biso   1.000  C
  C179     1.0000 0.69640  0.57120  0.33540  Biso   1.000  C
  C180     1.0000 0.30360  0.57120  0.16460  Biso   1.000  C
  C181     1.0000 0.80360  0.92880  0.66460  Biso   1.000  C
  C182     1.0000 0.19640  0.92880  0.83540  Biso   1.000  C
  C183     1.0000 0.30360  0.42880  0.66460  Biso   1.000  C
  C184     1.0000 0.69640  0.42880  0.83540  Biso   1.000  C
  H145     1.0000 0.16290  0.09040  0.29960  Biso   1.000  H
  H146     1.0000 0.83710  0.09040  0.20040  Biso   1.000  H
  H147     1.0000 0.66290  0.59040  0.29960  Biso   1.000  H
  H148     1.0000 0.33710  0.59040  0.20040  Biso   1.000  H
  H149     1.0000 0.83710  0.90960  0.70040  Biso   1.000  H
  H150     1.0000 0.16290  0.90960  0.79960  Biso   1.000  H
  H151     1.0000 0.33710  0.40960  0.70040  Biso   1.000  H
  H152     1.0000 0.66290  0.40960  0.79960  Biso   1.000  H
  H153     1.0000 0.19460  0.01740  0.33210  Biso   1.000  H
  H154     1.0000 0.80540  0.01740  0.16790  Biso   1.000  H
  H155     1.0000 0.69460  0.51740  0.33210  Biso   1.000  H
  H156     1.0000 0.30540  0.51740  0.16790  Biso   1.000  H
  H157     1.0000 0.80540  0.98260  0.66790  Biso   1.000  H
  H158     1.0000 0.19460  0.98260  0.83210  Biso   1.000  H
  H159     1.0000 0.30540  0.48260  0.66790  Biso   1.000  H
  H160     1.0000 0.69460  0.48260  0.83210  Biso   1.000  H
  C185     1.0000 0.71450  0.90100  0.94230  Biso   1.000  C
  C186     1.0000 0.28550  0.90100  0.55770  Biso   1.000  C
  C187     1.0000 0.21450  0.40100  0.94230  Biso   1.000  C
  C188     1.0000 0.78550  0.40100  0.55770  Biso   1.000  C
  C189     1.0000 0.28550  0.09900  0.05770  Biso   1.000  C
  C190     1.0000 0.71450  0.09900  0.44230  Biso   1.000  C
  C191     1.0000 0.78550  0.59900  0.05770  Biso   1.000  C
  C192     1.0000 0.21450  0.59900  0.44230  Biso   1.000  C
  H161     1.0000 0.66520  0.90840  0.93970  Biso   1.000  H
  H162     1.0000 0.33480  0.90840  0.56030  Biso   1.000  H
  H163     1.0000 0.16520  0.40840  0.93970  Biso   1.000  H
  H164     1.0000 0.83480  0.40840  0.56030  Biso   1.000  H
  H165     1.0000 0.33480  0.09160  0.06030  Biso   1.000  H
  H166     1.0000 0.66520  0.09160  0.43970  Biso   1.000  H
  H167     1.0000 0.83480  0.59160  0.06030  Biso   1.000  H
  H168     1.0000 0.16520  0.59160  0.43970  Biso   1.000  H
  H169     1.0000 0.72520  0.85650  0.91350  Biso   1.000  H
  H170     1.0000 0.27480  0.85650  0.58650  Biso   1.000  H
  H171     1.0000 0.22520  0.35650  0.91350  Biso   1.000  H
  H172     1.0000 0.77480  0.35650  0.58650  Biso   1.000  H
  H173     1.0000 0.27480  0.14350  0.08650  Biso   1.000  H
  H174     1.0000 0.72520  0.14350  0.41350  Biso   1.000  H
  H175     1.0000 0.77480  0.64350  0.08650  Biso   1.000  H
  H176     1.0000 0.22520  0.64350  0.41350  Biso   1.000  H
  C193     1.0000 0.73330  0.88770  0.02210  Biso   1.000  C
  C194     1.0000 0.26670  0.88770  0.47790  Biso   1.000  C
  C195     1.0000 0.23330  0.38770  0.02210  Biso   1.000  C
  C196     1.0000 0.76670  0.38770  0.47790  Biso   1.000  C
  C197     1.0000 0.26670  0.11230  0.97790  Biso   1.000  C
  C198     1.0000 0.73330  0.11230  0.52210  Biso   1.000  C
  C199     1.0000 0.76670  0.61230  0.97790  Biso   1.000  C
  C200     1.0000 0.23330  0.61230  0.52210  Biso   1.000  C
  H177     1.0000 0.72520  0.93340  0.05000  Biso   1.000  H
  H178     1.0000 0.27480  0.93340  0.45000  Biso   1.000  H
  H179     1.0000 0.22520  0.43340  0.05000  Biso   1.000  H
  H180     1.0000 0.77480  0.43340  0.45000  Biso   1.000  H
  H181     1.0000 0.27480  0.06660  0.95000  Biso   1.000  H
  H182     1.0000 0.72520  0.06660  0.55000  Biso   1.000  H
  H183     1.0000 0.77480  0.56660  0.95000  Biso   1.000  H
  H184     1.0000 0.22520  0.56660  0.55000  Biso   1.000  H
  H185     1.0000 0.70210  0.85060  0.04230  Biso   1.000  H
  H186     1.0000 0.29790  0.85060  0.45770  Biso   1.000  H
  H187     1.0000 0.20210  0.35060  0.04230  Biso   1.000  H
  H188     1.0000 0.79790  0.35060  0.45770  Biso   1.000  H
  H189     1.0000 0.29790  0.14940  0.95770  Biso   1.000  H
  H190     1.0000 0.70210  0.14940  0.54230  Biso   1.000  H
  H191     1.0000 0.79790  0.64940  0.95770  Biso   1.000  H
  H192     1.0000 0.20210  0.64940  0.54230  Biso   1.000  H
  C201     1.0000 0.80050  0.86440  0.03800  Biso   1.000  C
  C202     1.0000 0.19950  0.86440  0.46200  Biso   1.000  C
  C203     1.0000 0.30050  0.36440  0.03800  Biso   1.000  C
  C204     1.0000 0.69950  0.36440  0.46200  Biso   1.000  C
  C205     1.0000 0.19950  0.13560  0.96200  Biso   1.000  C
  C206     1.0000 0.80050  0.13560  0.53800  Biso   1.000  C
  C207     1.0000 0.69950  0.63560  0.96200  Biso   1.000  C
  C208     1.0000 0.30050  0.63560  0.53800  Biso   1.000  C
  H193     1.0000 0.80590  0.85830  0.09170  Biso   1.000  H
  H194     1.0000 0.19410  0.85830  0.40830  Biso   1.000  H
  H195     1.0000 0.30590  0.35830  0.09170  Biso   1.000  H
  H196     1.0000 0.69410  0.35830  0.40830  Biso   1.000  H
  H197     1.0000 0.19410  0.14170  0.90830  Biso   1.000  H
  H198     1.0000 0.80590  0.14170  0.59170  Biso   1.000  H
  H199     1.0000 0.69410  0.64170  0.90830  Biso   1.000  H
  H200     1.0000 0.30590  0.64170  0.59170  Biso   1.000  H
  H201     1.0000 0.83250  0.90100  0.01990  Biso   1.000  H
  H202     1.0000 0.16750  0.90100  0.48010  Biso   1.000  H
  H203     1.0000 0.33250  0.40100  0.01990  Biso   1.000  H
  H204     1.0000 0.66750  0.40100  0.48010  Biso   1.000  H
  H205     1.0000 0.16750  0.09900  0.98010  Biso   1.000  H
  H206     1.0000 0.83250  0.09900  0.51990  Biso   1.000  H
  H207     1.0000 0.66750  0.59900  0.98010  Biso   1.000  H
  H208     1.0000 0.33250  0.59900  0.51990  Biso   1.000  H
  H209     1.0000 0.80910  0.81790  0.01310  Biso   1.000  H
  H210     1.0000 0.19090  0.81790  0.48690  Biso   1.000  H
  H211     1.0000 0.30910  0.31790  0.01310  Biso   1.000  H
  H212     1.0000 0.69090  0.31790  0.48690  Biso   1.000  H
  H213     1.0000 0.19090  0.18210  0.98690  Biso   1.000  H
  H214     1.0000 0.80910  0.18210  0.51310  Biso   1.000  H
  H215     1.0000 0.69090  0.68210  0.98690  Biso   1.000  H
  H216     1.0000 0.30910  0.68210  0.51310  Biso   1.000  H
  C209     1.0000 0.17510  0.09060  0.40600  Biso   1.000  C
  C210     1.0000 0.82490  0.09060  0.09400  Biso   1.000  C
  C211     1.0000 0.67510  0.59060  0.40600  Biso   1.000  C
  C212     1.0000 0.32490  0.59060  0.09400  Biso   1.000  C
  C213     1.0000 0.82490  0.90940  0.59400  Biso   1.000  C
  C214     1.0000 0.17510  0.90940  0.90600  Biso   1.000  C
  C215     1.0000 0.32490  0.40940  0.59400  Biso   1.000  C
  C216     1.0000 0.67510  0.40940  0.90600  Biso   1.000  C
  H217     1.0000 0.13000  0.07070  0.41490  Biso   1.000  H
  H218     1.0000 0.87000  0.07070  0.08510  Biso   1.000  H
  H219     1.0000 0.63000  0.57070  0.41490  Biso   1.000  H
  H220     1.0000 0.37000  0.57070  0.08510  Biso   1.000  H
  H221     1.0000 0.87000  0.92930  0.58510  Biso   1.000  H
  H222     1.0000 0.13000  0.92930  0.91490  Biso   1.000  H
  H223     1.0000 0.37000  0.42930  0.58510  Biso   1.000  H
  H224     1.0000 0.63000  0.42930  0.91490  Biso   1.000  H
  H225     1.0000 0.17380  0.14380  0.41010  Biso   1.000  H
  H226     1.0000 0.82620  0.14380  0.08990  Biso   1.000  H
  H227     1.0000 0.67380  0.64380  0.41010  Biso   1.000  H
  H228     1.0000 0.32620  0.64380  0.08990  Biso   1.000  H
  H229     1.0000 0.82620  0.85620  0.58990  Biso   1.000  H
  H230     1.0000 0.17380  0.85620  0.91010  Biso   1.000  H
  H231     1.0000 0.32620  0.35620  0.58990  Biso   1.000  H
  H232     1.0000 0.67380  0.35620  0.91010  Biso   1.000  H
  H233     1.0000 0.20650  0.07090  0.44290  Biso   1.000  H
  H234     1.0000 0.79350  0.07090  0.05710  Biso   1.000  H
  H235     1.0000 0.70650  0.57090  0.44290  Biso   1.000  H
  H236     1.0000 0.29350  0.57090  0.05710  Biso   1.000  H
  H237     1.0000 0.79350  0.92910  0.55710  Biso   1.000  H
  H238     1.0000 0.20650  0.92910  0.94290  Biso   1.000  H
  H239     1.0000 0.29350  0.42910  0.55710  Biso   1.000  H
  H240     1.0000 0.70650  0.42910  0.94290  Biso   1.000  H
  S25      1.0000 0.28400  0.18910  0.32400  Biso   1.000  S
  S26      1.0000 0.71600  0.18910  0.17600  Biso   1.000  S
  S27      1.0000 0.78400  0.68910  0.32400  Biso   1.000  S
  S28      1.0000 0.21600  0.68910  0.17600  Biso   1.000  S
  S29      1.0000 0.71600  0.81090  0.67600  Biso   1.000  S
  S30      1.0000 0.28400  0.81090  0.82400  Biso   1.000  S
  S31      1.0000 0.21600  0.31090  0.67600  Biso   1.000  S
  S32      1.0000 0.78400  0.31090  0.82400  Biso   1.000  S
