data_image0
_cell_length_a       28.057
_cell_length_b       7.6881
_cell_length_c       13.0578
_cell_angle_alpha    90
_cell_angle_beta     109.292
_cell_angle_gamma    90

_symmetry_space_group_name_H-M    "P 1"
_symmetry_int_tables_number       1

loop_
  _symmetry_equiv_pos_as_xyz
  'x, y, z'

loop_
  _atom_site_label
  _atom_site_occupancy
  _atom_site_fract_x
  _atom_site_fract_y
  _atom_site_fract_z
  _atom_site_thermal_displace_type
  _atom_site_B_iso_or_equiv
  _atom_site_type_symbol
  C1       1.0000 0.43563  0.94600  0.03020  Biso   1.000  C
  C2       1.0000 0.56437  0.94600  0.46980  Biso   1.000  C
  C3       1.0000 0.93563  0.44600  0.03020  Biso   1.000  C
  C4       1.0000 0.06437  0.44600  0.46980  Biso   1.000  C
  C5       1.0000 0.56437  0.05400  0.96980  Biso   1.000  C
  C6       1.0000 0.43563  0.05400  0.53020  Biso   1.000  C
  C7       1.0000 0.06437  0.55400  0.96980  Biso   1.000  C
  C8       1.0000 0.93563  0.55400  0.53020  Biso   1.000  C
  H1       1.0000 0.44180  0.84120  0.07680  Biso   1.000  H
  H2       1.0000 0.55820  0.84120  0.42320  Biso   1.000  H
  H3       1.0000 0.94180  0.34120  0.07680  Biso   1.000  H
  H4       1.0000 0.05820  0.34120  0.42320  Biso   1.000  H
  H5       1.0000 0.55820  0.15880  0.92320  Biso   1.000  H
  H6       1.0000 0.44180  0.15880  0.57680  Biso   1.000  H
  H7       1.0000 0.05820  0.65880  0.92320  Biso   1.000  H
  H8       1.0000 0.94180  0.65880  0.57680  Biso   1.000  H
  H9       1.0000 0.45410  0.93280  0.97780  Biso   1.000  H
  H10      1.0000 0.54590  0.93280  0.52220  Biso   1.000  H
  H11      1.0000 0.95410  0.43280  0.97780  Biso   1.000  H
  H12      1.0000 0.04590  0.43280  0.52220  Biso   1.000  H
  H13      1.0000 0.54590  0.06720  0.02220  Biso   1.000  H
  H14      1.0000 0.45410  0.06720  0.47780  Biso   1.000  H
  H15      1.0000 0.04590  0.56720  0.02220  Biso   1.000  H
  H16      1.0000 0.95410  0.56720  0.47780  Biso   1.000  H
  C9       1.0000 0.37967  0.96770  0.97050  Biso   1.000  C
  C10      1.0000 0.62033  0.96770  0.52950  Biso   1.000  C
  C11      1.0000 0.87967  0.46770  0.97050  Biso   1.000  C
  C12      1.0000 0.12033  0.46770  0.52950  Biso   1.000  C
  C13      1.0000 0.62033  0.03230  0.02950  Biso   1.000  C
  C14      1.0000 0.37967  0.03230  0.47050  Biso   1.000  C
  C15      1.0000 0.12033  0.53230  0.02950  Biso   1.000  C
  C16      1.0000 0.87967  0.53230  0.47050  Biso   1.000  C
  H17      1.0000 0.37410  0.05490  0.91190  Biso   1.000  H
  H18      1.0000 0.62590  0.05490  0.58810  Biso   1.000  H
  H19      1.0000 0.87410  0.55490  0.91190  Biso   1.000  H
  H20      1.0000 0.12590  0.55490  0.58810  Biso   1.000  H
  H21      1.0000 0.62590  0.94510  0.08810  Biso   1.000  H
  H22      1.0000 0.37410  0.94510  0.41190  Biso   1.000  H
  H23      1.0000 0.12590  0.44510  0.08810  Biso   1.000  H
  H24      1.0000 0.87410  0.44510  0.41190  Biso   1.000  H
  H25      1.0000 0.36480  0.85580  0.93760  Biso   1.000  H
  H26      1.0000 0.63520  0.85580  0.56240  Biso   1.000  H
  H27      1.0000 0.86480  0.35580  0.93760  Biso   1.000  H
  H28      1.0000 0.13520  0.35580  0.56240  Biso   1.000  H
  H29      1.0000 0.63520  0.14420  0.06240  Biso   1.000  H
  H30      1.0000 0.36480  0.14420  0.43760  Biso   1.000  H
  H31      1.0000 0.13520  0.64420  0.06240  Biso   1.000  H
  H32      1.0000 0.86480  0.64420  0.43760  Biso   1.000  H
  C17      1.0000 0.30760  0.00980  0.02460  Biso   1.000  C
  C18      1.0000 0.69240  0.00980  0.47540  Biso   1.000  C
  C19      1.0000 0.80760  0.50980  0.02460  Biso   1.000  C
  C20      1.0000 0.19240  0.50980  0.47540  Biso   1.000  C
  C21      1.0000 0.69240  0.99020  0.97540  Biso   1.000  C
  C22      1.0000 0.30760  0.99020  0.52460  Biso   1.000  C
  C23      1.0000 0.19240  0.49020  0.97540  Biso   1.000  C
  C24      1.0000 0.80760  0.49020  0.52460  Biso   1.000  C
  H33      1.0000 0.29030  0.95200  0.95840  Biso   1.000  H
  H34      1.0000 0.70970  0.95200  0.54160  Biso   1.000  H
  H35      1.0000 0.79030  0.45200  0.95840  Biso   1.000  H
  H36      1.0000 0.20970  0.45200  0.54160  Biso   1.000  H
  H37      1.0000 0.70970  0.04800  0.04160  Biso   1.000  H
  H38      1.0000 0.29030  0.04800  0.45840  Biso   1.000  H
  H39      1.0000 0.20970  0.54800  0.04160  Biso   1.000  H
  H40      1.0000 0.79030  0.54800  0.45840  Biso   1.000  H
  C25      1.0000 0.27754  0.07050  0.08710  Biso   1.000  C
  C26      1.0000 0.72246  0.07050  0.41290  Biso   1.000  C
  C27      1.0000 0.77754  0.57050  0.08710  Biso   1.000  C
  C28      1.0000 0.22246  0.57050  0.41290  Biso   1.000  C
  C29      1.0000 0.72246  0.92950  0.91290  Biso   1.000  C
  C30      1.0000 0.27754  0.92950  0.58710  Biso   1.000  C
  C31      1.0000 0.22246  0.42950  0.91290  Biso   1.000  C
  C32      1.0000 0.77754  0.42950  0.58710  Biso   1.000  C
  C33      1.0000 0.29994  0.16310  0.18470  Biso   1.000  C
  C34      1.0000 0.70006  0.16310  0.31530  Biso   1.000  C
  C35      1.0000 0.79994  0.66310  0.18470  Biso   1.000  C
  C36      1.0000 0.20006  0.66310  0.31530  Biso   1.000  C
  C37      1.0000 0.70006  0.83690  0.81530  Biso   1.000  C
  C38      1.0000 0.29994  0.83690  0.68470  Biso   1.000  C
  C39      1.0000 0.20006  0.33690  0.81530  Biso   1.000  C
  C40      1.0000 0.79994  0.33690  0.68470  Biso   1.000  C
  C41      1.0000 0.26775  0.23410  0.23910  Biso   1.000  C
  C42      1.0000 0.73225  0.23410  0.26090  Biso   1.000  C
  C43      1.0000 0.76775  0.73410  0.23910  Biso   1.000  C
  C44      1.0000 0.23225  0.73410  0.26090  Biso   1.000  C
  C45      1.0000 0.73225  0.76590  0.76090  Biso   1.000  C
  C46      1.0000 0.26775  0.76590  0.73910  Biso   1.000  C
  C47      1.0000 0.23225  0.26590  0.76090  Biso   1.000  C
  C48      1.0000 0.76775  0.26590  0.73910  Biso   1.000  C
  H41      1.0000 0.28250  0.29980  0.30350  Biso   1.000  H
  H42      1.0000 0.71750  0.29980  0.19650  Biso   1.000  H
  H43      1.0000 0.78250  0.79980  0.30350  Biso   1.000  H
  H44      1.0000 0.21750  0.79980  0.19650  Biso   1.000  H
  H45      1.0000 0.71750  0.70020  0.69650  Biso   1.000  H
  H46      1.0000 0.28250  0.70020  0.80350  Biso   1.000  H
  H47      1.0000 0.21750  0.20020  0.69650  Biso   1.000  H
  H48      1.0000 0.78250  0.20020  0.80350  Biso   1.000  H
  C49      1.0000 0.21694  0.21100  0.20220  Biso   1.000  C
  C50      1.0000 0.78306  0.21100  0.29780  Biso   1.000  C
  C51      1.0000 0.71694  0.71100  0.20220  Biso   1.000  C
  C52      1.0000 0.28306  0.71100  0.29780  Biso   1.000  C
  C53      1.0000 0.78306  0.78900  0.79780  Biso   1.000  C
  C54      1.0000 0.21694  0.78900  0.70220  Biso   1.000  C
  C55      1.0000 0.28306  0.28900  0.79780  Biso   1.000  C
  C56      1.0000 0.71694  0.28900  0.70220  Biso   1.000  C
  H49      1.0000 0.19700  0.26110  0.24090  Biso   1.000  H
  H50      1.0000 0.80300  0.26110  0.25910  Biso   1.000  H
  H51      1.0000 0.69700  0.76110  0.24090  Biso   1.000  H
  H52      1.0000 0.30300  0.76110  0.25910  Biso   1.000  H
  H53      1.0000 0.80300  0.73890  0.75910  Biso   1.000  H
  H54      1.0000 0.19700  0.73890  0.74090  Biso   1.000  H
  H55      1.0000 0.30300  0.23890  0.75910  Biso   1.000  H
  H56      1.0000 0.69700  0.23890  0.74090  Biso   1.000  H
  C57      1.0000 0.19311  0.11290  0.10660  Biso   1.000  C
  C58      1.0000 0.80689  0.11290  0.39340  Biso   1.000  C
  C59      1.0000 0.69311  0.61290  0.10660  Biso   1.000  C
  C60      1.0000 0.30689  0.61290  0.39340  Biso   1.000  C
  C61      1.0000 0.80689  0.88710  0.89340  Biso   1.000  C
  C62      1.0000 0.19311  0.88710  0.60660  Biso   1.000  C
  C63      1.0000 0.30689  0.38710  0.89340  Biso   1.000  C
  C64      1.0000 0.69311  0.38710  0.60660  Biso   1.000  C
  C65      1.0000 0.14044  0.08170  0.07130  Biso   1.000  C
  C66      1.0000 0.85956  0.08170  0.42870  Biso   1.000  C
  C67      1.0000 0.64044  0.58170  0.07130  Biso   1.000  C
  C68      1.0000 0.35956  0.58170  0.42870  Biso   1.000  C
  C69      1.0000 0.85956  0.91830  0.92870  Biso   1.000  C
  C70      1.0000 0.14044  0.91830  0.57130  Biso   1.000  C
  C71      1.0000 0.35956  0.41830  0.92870  Biso   1.000  C
  C72      1.0000 0.64044  0.41830  0.57130  Biso   1.000  C
  H57      1.0000 0.12100  0.12650  0.11270  Biso   1.000  H
  H58      1.0000 0.87900  0.12650  0.38730  Biso   1.000  H
  H59      1.0000 0.62100  0.62650  0.11270  Biso   1.000  H
  H60      1.0000 0.37900  0.62650  0.38730  Biso   1.000  H
  H61      1.0000 0.87900  0.87350  0.88730  Biso   1.000  H
  H62      1.0000 0.12100  0.87350  0.61270  Biso   1.000  H
  H63      1.0000 0.37900  0.37350  0.88730  Biso   1.000  H
  H64      1.0000 0.62100  0.37350  0.61270  Biso   1.000  H
  C73      1.0000 0.11691  0.98900  0.97960  Biso   1.000  C
  C74      1.0000 0.88309  0.98900  0.52040  Biso   1.000  C
  C75      1.0000 0.61691  0.48900  0.97960  Biso   1.000  C
  C76      1.0000 0.38309  0.48900  0.52040  Biso   1.000  C
  C77      1.0000 0.88309  0.01100  0.02040  Biso   1.000  C
  C78      1.0000 0.11691  0.01100  0.47960  Biso   1.000  C
  C79      1.0000 0.38309  0.51100  0.02040  Biso   1.000  C
  C80      1.0000 0.61691  0.51100  0.47960  Biso   1.000  C
  H65      1.0000 0.08150  0.97020  0.95680  Biso   1.000  H
  H66      1.0000 0.91850  0.97020  0.54320  Biso   1.000  H
  H67      1.0000 0.58150  0.47020  0.95680  Biso   1.000  H
  H68      1.0000 0.41850  0.47020  0.54320  Biso   1.000  H
  H69      1.0000 0.91850  0.02980  0.04320  Biso   1.000  H
  H70      1.0000 0.08150  0.02980  0.45680  Biso   1.000  H
  H71      1.0000 0.41850  0.52980  0.04320  Biso   1.000  H
  H72      1.0000 0.58150  0.52980  0.45680  Biso   1.000  H
  C81      1.0000 0.14591  0.92150  0.91910  Biso   1.000  C
  C82      1.0000 0.85409  0.92150  0.58090  Biso   1.000  C
  C83      1.0000 0.64591  0.42150  0.91910  Biso   1.000  C
  C84      1.0000 0.35409  0.42150  0.58090  Biso   1.000  C
  C85      1.0000 0.85409  0.07850  0.08090  Biso   1.000  C
  C86      1.0000 0.14591  0.07850  0.41910  Biso   1.000  C
  C87      1.0000 0.35409  0.57850  0.08090  Biso   1.000  C
  C88      1.0000 0.64591  0.57850  0.41910  Biso   1.000  C
  H73      1.0000 0.12990  0.85770  0.85450  Biso   1.000  H
  H74      1.0000 0.87010  0.85770  0.64550  Biso   1.000  H
  H75      1.0000 0.62990  0.35770  0.85450  Biso   1.000  H
  H76      1.0000 0.37010  0.35770  0.64550  Biso   1.000  H
  H77      1.0000 0.87010  0.14230  0.14550  Biso   1.000  H
  H78      1.0000 0.12990  0.14230  0.35450  Biso   1.000  H
  H79      1.0000 0.37010  0.64230  0.14550  Biso   1.000  H
  H80      1.0000 0.62990  0.64230  0.35450  Biso   1.000  H
  C89      1.0000 0.19777  0.94770  0.95340  Biso   1.000  C
  C90      1.0000 0.80223  0.94770  0.54660  Biso   1.000  C
  C91      1.0000 0.69777  0.44770  0.95340  Biso   1.000  C
  C92      1.0000 0.30223  0.44770  0.54660  Biso   1.000  C
  C93      1.0000 0.80223  0.05230  0.04660  Biso   1.000  C
  C94      1.0000 0.19777  0.05230  0.45340  Biso   1.000  C
  C95      1.0000 0.30223  0.55230  0.04660  Biso   1.000  C
  C96      1.0000 0.69777  0.55230  0.45340  Biso   1.000  C
  H81      1.0000 0.21670  0.89940  0.91200  Biso   1.000  H
  H82      1.0000 0.78330  0.89940  0.58800  Biso   1.000  H
  H83      1.0000 0.71670  0.39940  0.91200  Biso   1.000  H
  H84      1.0000 0.28330  0.39940  0.58800  Biso   1.000  H
  H85      1.0000 0.78330  0.10060  0.08800  Biso   1.000  H
  H86      1.0000 0.21670  0.10060  0.41200  Biso   1.000  H
  H87      1.0000 0.28330  0.60060  0.08800  Biso   1.000  H
  H88      1.0000 0.71670  0.60060  0.41200  Biso   1.000  H
  C97      1.0000 0.22331  0.04360  0.04790  Biso   1.000  C
  C98      1.0000 0.77669  0.04360  0.45210  Biso   1.000  C
  C99      1.0000 0.72331  0.54360  0.04790  Biso   1.000  C
  C100     1.0000 0.27669  0.54360  0.45210  Biso   1.000  C
  C101     1.0000 0.77669  0.95640  0.95210  Biso   1.000  C
  C102     1.0000 0.22331  0.95640  0.54790  Biso   1.000  C
  C103     1.0000 0.27669  0.45640  0.95210  Biso   1.000  C
  C104     1.0000 0.72331  0.45640  0.54790  Biso   1.000  C
  C105     1.0000 0.45697  0.45680  0.31330  Biso   1.000  C
  C106     1.0000 0.54303  0.45680  0.18670  Biso   1.000  C
  C107     1.0000 0.95697  0.95680  0.31330  Biso   1.000  C
  C108     1.0000 0.04303  0.95680  0.18670  Biso   1.000  C
  C109     1.0000 0.54303  0.54320  0.68670  Biso   1.000  C
  C110     1.0000 0.45697  0.54320  0.81330  Biso   1.000  C
  C111     1.0000 0.04303  0.04320  0.68670  Biso   1.000  C
  C112     1.0000 0.95697  0.04320  0.81330  Biso   1.000  C
  C113     1.0000 0.45636  0.75260  0.31850  Biso   1.000  C
  C114     1.0000 0.54364  0.75260  0.18150  Biso   1.000  C
  C115     1.0000 0.95636  0.25260  0.31850  Biso   1.000  C
  C116     1.0000 0.04364  0.25260  0.18150  Biso   1.000  C
  C117     1.0000 0.54364  0.24740  0.68150  Biso   1.000  C
  C118     1.0000 0.45636  0.24740  0.81850  Biso   1.000  C
  C119     1.0000 0.04364  0.74740  0.68150  Biso   1.000  C
  C120     1.0000 0.95636  0.74740  0.81850  Biso   1.000  C
  N1       1.0000 0.45314  0.10450  0.09760  Biso   1.000  N
  N2       1.0000 0.54686  0.10450  0.40240  Biso   1.000  N
  N3       1.0000 0.95314  0.60450  0.09760  Biso   1.000  N
  N4       1.0000 0.04686  0.60450  0.40240  Biso   1.000  N
  N5       1.0000 0.54686  0.89550  0.90240  Biso   1.000  N
  N6       1.0000 0.45314  0.89550  0.59760  Biso   1.000  N
  N7       1.0000 0.04686  0.39550  0.90240  Biso   1.000  N
  N8       1.0000 0.95314  0.39550  0.59760  Biso   1.000  N
  H89      1.0000 0.45460  0.20520  0.05140  Biso   1.000  H
  H90      1.0000 0.54540  0.20520  0.44860  Biso   1.000  H
  H91      1.0000 0.95460  0.70520  0.05140  Biso   1.000  H
  H92      1.0000 0.04540  0.70520  0.44860  Biso   1.000  H
  H93      1.0000 0.54540  0.79480  0.94860  Biso   1.000  H
  H94      1.0000 0.45460  0.79480  0.55140  Biso   1.000  H
  H95      1.0000 0.04540  0.29480  0.94860  Biso   1.000  H
  H96      1.0000 0.95460  0.29480  0.55140  Biso   1.000  H
  H97      1.0000 0.48710  0.08580  0.15130  Biso   1.000  H
  H98      1.0000 0.51290  0.08580  0.34870  Biso   1.000  H
  H99      1.0000 0.98710  0.58580  0.15130  Biso   1.000  H
  H100     1.0000 0.01290  0.58580  0.34870  Biso   1.000  H
  H101     1.0000 0.51290  0.91420  0.84870  Biso   1.000  H
  H102     1.0000 0.48710  0.91420  0.65130  Biso   1.000  H
  H103     1.0000 0.01290  0.41420  0.84870  Biso   1.000  H
  H104     1.0000 0.98710  0.41420  0.65130  Biso   1.000  H
  N9       1.0000 0.35568  0.02590  0.04940  Biso   1.000  N
  N10      1.0000 0.64432  0.02590  0.45060  Biso   1.000  N
  N11      1.0000 0.85568  0.52590  0.04940  Biso   1.000  N
  N12      1.0000 0.14432  0.52590  0.45060  Biso   1.000  N
  N13      1.0000 0.64432  0.97410  0.95060  Biso   1.000  N
  N14      1.0000 0.35568  0.97410  0.54940  Biso   1.000  N
  N15      1.0000 0.14432  0.47410  0.95060  Biso   1.000  N
  N16      1.0000 0.85568  0.47410  0.54940  Biso   1.000  N
  N17      1.0000 0.47478  0.60250  0.36070  Biso   1.000  N
  N18      1.0000 0.52522  0.60250  0.13930  Biso   1.000  N
  N19      1.0000 0.97478  0.10250  0.36070  Biso   1.000  N
  N20      1.0000 0.02522  0.10250  0.13930  Biso   1.000  N
  N21      1.0000 0.52522  0.39750  0.63930  Biso   1.000  N
  N22      1.0000 0.47478  0.39750  0.86070  Biso   1.000  N
  N23      1.0000 0.02522  0.89750  0.63930  Biso   1.000  N
  N24      1.0000 0.97478  0.89750  0.86070  Biso   1.000  N
  N25      1.0000 0.44476  0.32080  0.27800  Biso   1.000  N
  N26      1.0000 0.55524  0.32080  0.22200  Biso   1.000  N
  N27      1.0000 0.94476  0.82080  0.27800  Biso   1.000  N
  N28      1.0000 0.05524  0.82080  0.22200  Biso   1.000  N
  N29      1.0000 0.55524  0.67920  0.72200  Biso   1.000  N
  N30      1.0000 0.44476  0.67920  0.77800  Biso   1.000  N
  N31      1.0000 0.05524  0.17920  0.72200  Biso   1.000  N
  N32      1.0000 0.94476  0.17920  0.77800  Biso   1.000  N
  N33      1.0000 0.44261  0.89140  0.28950  Biso   1.000  N
  N34      1.0000 0.55739  0.89140  0.21050  Biso   1.000  N
  N35      1.0000 0.94261  0.39140  0.28950  Biso   1.000  N
  N36      1.0000 0.05739  0.39140  0.21050  Biso   1.000  N
  N37      1.0000 0.55739  0.10860  0.71050  Biso   1.000  N
  N38      1.0000 0.44261  0.10860  0.78950  Biso   1.000  N
  N39      1.0000 0.05739  0.60860  0.71050  Biso   1.000  N
  N40      1.0000 0.94261  0.60860  0.78950  Biso   1.000  N
  O1       1.0000 0.34809  0.19280  0.22890  Biso   1.000  O
  O2       1.0000 0.65191  0.19280  0.27110  Biso   1.000  O
  O3       1.0000 0.84809  0.69280  0.22890  Biso   1.000  O
  O4       1.0000 0.15191  0.69280  0.27110  Biso   1.000  O
  O5       1.0000 0.65191  0.80720  0.77110  Biso   1.000  O
  O6       1.0000 0.34809  0.80720  0.72890  Biso   1.000  O
  O7       1.0000 0.15191  0.30720  0.77110  Biso   1.000  O
  O8       1.0000 0.84809  0.30720  0.72890  Biso   1.000  O
  Cu1      1.0000 0.40132  0.14667  0.17374  Biso   1.000  Cu
  Cu2      1.0000 0.59868  0.14667  0.32626  Biso   1.000  Cu
  Cu3      1.0000 0.90132  0.64667  0.17374  Biso   1.000  Cu
  Cu4      1.0000 0.09868  0.64667  0.32626  Biso   1.000  Cu
  Cu5      1.0000 0.59868  0.85333  0.82626  Biso   1.000  Cu
  Cu6      1.0000 0.40132  0.85333  0.67374  Biso   1.000  Cu
  Cu7      1.0000 0.09868  0.35333  0.82626  Biso   1.000  Cu
  Cu8      1.0000 0.90132  0.35333  0.67374  Biso   1.000  Cu
