data_image0
_cell_length_a       12.793
_cell_length_b       13.167
_cell_length_c       7.731
_cell_angle_alpha    90
_cell_angle_beta     90
_cell_angle_gamma    90

_symmetry_space_group_name_H-M    "P 1"
_symmetry_int_tables_number       1

loop_
  _symmetry_equiv_pos_as_xyz
  'x, y, z'

loop_
  _atom_site_label
  _atom_site_occupancy
  _atom_site_fract_x
  _atom_site_fract_y
  _atom_site_fract_z
  _atom_site_thermal_displace_type
  _atom_site_B_iso_or_equiv
  _atom_site_type_symbol
  Cu1      1.0000 0.90029  0.44317  0.82482  Biso   1.000  Cu
  Cu2      1.0000 0.09971  0.55683  0.32482  Biso   1.000  Cu
  Cu3      1.0000 0.40029  0.05683  0.82482  Biso   1.000  Cu
  Cu4      1.0000 0.59971  0.94317  0.32482  Biso   1.000  Cu
  N1       1.0000 0.83060  0.38490  0.62580  Biso   1.000  N
  N2       1.0000 0.16940  0.61510  0.12580  Biso   1.000  N
  N3       1.0000 0.33060  0.11510  0.62580  Biso   1.000  N
  N4       1.0000 0.66940  0.88490  0.12580  Biso   1.000  N
  N5       1.0000 0.67940  0.34740  0.50320  Biso   1.000  N
  N6       1.0000 0.32060  0.65260  0.00320  Biso   1.000  N
  N7       1.0000 0.17940  0.15260  0.50320  Biso   1.000  N
  N8       1.0000 0.82060  0.84740  0.00320  Biso   1.000  N
  N9       1.0000 0.75170  0.46200  0.90910  Biso   1.000  N
  N10      1.0000 0.24830  0.53800  0.40910  Biso   1.000  N
  N11      1.0000 0.25170  0.03800  0.90910  Biso   1.000  N
  N12      1.0000 0.74830  0.96200  0.40910  Biso   1.000  N
  O1       1.0000 0.95150  0.49100  0.04660  Biso   1.000  O
  O2       1.0000 0.04850  0.50900  0.54660  Biso   1.000  O
  O3       1.0000 0.45150  0.00900  0.04660  Biso   1.000  O
  O4       1.0000 0.54850  0.99100  0.54660  Biso   1.000  O
  O5       1.0000 0.95650  0.59230  0.27310  Biso   1.000  O
  O6       1.0000 0.04350  0.40770  0.77310  Biso   1.000  O
  O7       1.0000 0.45650  0.90770  0.27310  Biso   1.000  O
  O8       1.0000 0.54350  0.09230  0.77310  Biso   1.000  O
  C1       1.0000 0.84720  0.34440  0.46310  Biso   1.000  C
  C2       1.0000 0.15280  0.65560  0.96310  Biso   1.000  C
  C3       1.0000 0.34720  0.15560  0.46310  Biso   1.000  C
  C4       1.0000 0.65280  0.84440  0.96310  Biso   1.000  C
  H1       1.0000 0.91410  0.33520  0.40940  Biso   1.000  H
  H2       1.0000 0.08590  0.66480  0.90940  Biso   1.000  H
  H3       1.0000 0.41410  0.16480  0.40940  Biso   1.000  H
  H4       1.0000 0.58590  0.83520  0.90940  Biso   1.000  H
  C5       1.0000 0.75530  0.32250  0.39530  Biso   1.000  C
  C6       1.0000 0.24470  0.67750  0.89530  Biso   1.000  C
  C7       1.0000 0.25530  0.17750  0.39530  Biso   1.000  C
  C8       1.0000 0.74470  0.82250  0.89530  Biso   1.000  C
  H5       1.0000 0.74510  0.29070  0.28490  Biso   1.000  H
  H6       1.0000 0.25490  0.70930  0.78490  Biso   1.000  H
  H7       1.0000 0.24510  0.20930  0.28490  Biso   1.000  H
  H8       1.0000 0.75490  0.79070  0.78490  Biso   1.000  H
  C9       1.0000 0.56960  0.33880  0.47210  Biso   1.000  C
  C10      1.0000 0.43040  0.66120  0.97210  Biso   1.000  C
  C11      1.0000 0.06960  0.16120  0.47210  Biso   1.000  C
  C12      1.0000 0.93040  0.83880  0.97210  Biso   1.000  C
  H9       1.0000 0.55840  0.30950  0.35990  Biso   1.000  H
  H10      1.0000 0.44160  0.69050  0.85990  Biso   1.000  H
  H11      1.0000 0.05840  0.19050  0.35990  Biso   1.000  H
  H12      1.0000 0.94160  0.80950  0.85990  Biso   1.000  H
  H13      1.0000 0.53830  0.29630  0.55870  Biso   1.000  H
  H14      1.0000 0.46170  0.70370  0.05870  Biso   1.000  H
  H15      1.0000 0.03830  0.20370  0.55870  Biso   1.000  H
  H16      1.0000 0.96170  0.79630  0.05870  Biso   1.000  H
  H17      1.0000 0.53840  0.40510  0.47630  Biso   1.000  H
  H18      1.0000 0.46160  0.59490  0.97630  Biso   1.000  H
  H19      1.0000 0.03840  0.09490  0.47630  Biso   1.000  H
  H20      1.0000 0.96160  0.90510  0.97630  Biso   1.000  H
  C13      1.0000 0.72810  0.38630  0.65020  Biso   1.000  C
  C14      1.0000 0.27190  0.61370  0.15020  Biso   1.000  C
  C15      1.0000 0.22810  0.11370  0.65020  Biso   1.000  C
  C16      1.0000 0.77190  0.88630  0.15020  Biso   1.000  C
  C17      1.0000 0.68600  0.42690  0.80010  Biso   1.000  C
  C18      1.0000 0.31400  0.57310  0.30010  Biso   1.000  C
  C19      1.0000 0.18600  0.07310  0.80010  Biso   1.000  C
  C20      1.0000 0.81400  0.92690  0.30010  Biso   1.000  C
  H21      1.0000 0.61200  0.42910  0.82030  Biso   1.000  H
  H22      1.0000 0.38800  0.57090  0.32030  Biso   1.000  H
  H23      1.0000 0.11200  0.07090  0.82030  Biso   1.000  H
  H24      1.0000 0.88800  0.92910  0.32030  Biso   1.000  H
  C21      1.0000 0.72290  0.50860  0.06600  Biso   1.000  C
  C22      1.0000 0.27710  0.49140  0.56600  Biso   1.000  C
  C23      1.0000 0.22290  0.99140  0.06600  Biso   1.000  C
  C24      1.0000 0.77710  0.00860  0.56600  Biso   1.000  C
  H25      1.0000 0.72270  0.45840  0.15610  Biso   1.000  H
  H26      1.0000 0.27730  0.54160  0.65610  Biso   1.000  H
  H27      1.0000 0.22270  0.04160  0.15610  Biso   1.000  H
  H28      1.0000 0.77730  0.95840  0.65610  Biso   1.000  H
  H29      1.0000 0.65350  0.53570  0.05600  Biso   1.000  H
  H30      1.0000 0.34650  0.46430  0.55600  Biso   1.000  H
  H31      1.0000 0.15350  0.96430  0.05600  Biso   1.000  H
  H32      1.0000 0.84650  0.03570  0.55600  Biso   1.000  H
  C25      1.0000 0.80020  0.59230  0.11530  Biso   1.000  C
  C26      1.0000 0.19980  0.40770  0.61530  Biso   1.000  C
  C27      1.0000 0.30020  0.90770  0.11530  Biso   1.000  C
  C28      1.0000 0.69980  0.09230  0.61530  Biso   1.000  C
  H33      1.0000 0.77530  0.62640  0.21700  Biso   1.000  H
  H34      1.0000 0.22470  0.37360  0.71700  Biso   1.000  H
  H35      1.0000 0.27530  0.87360  0.21700  Biso   1.000  H
  H36      1.0000 0.72470  0.12640  0.71700  Biso   1.000  H
  H37      1.0000 0.80180  0.64090  0.02280  Biso   1.000  H
  H38      1.0000 0.19820  0.35910  0.52280  Biso   1.000  H
  H39      1.0000 0.30180  0.85910  0.02280  Biso   1.000  H
  H40      1.0000 0.69820  0.14090  0.52280  Biso   1.000  H
  C29      1.0000 0.91030  0.55540  0.14690  Biso   1.000  C
  C30      1.0000 0.08970  0.44460  0.64690  Biso   1.000  C
  C31      1.0000 0.41030  0.94460  0.14690  Biso   1.000  C
  C32      1.0000 0.58970  0.05540  0.64690  Biso   1.000  C
  O9       1.0000 0.88510  0.61820  0.70610  Biso   1.000  O
  O10      1.0000 0.11490  0.38180  0.20610  Biso   1.000  O
  O11      1.0000 0.38510  0.88180  0.70610  Biso   1.000  O
  O12      1.0000 0.61490  0.11820  0.20610  Biso   1.000  O
  H41      1.0000 0.81080  0.62890  0.65460  Biso   1.000  H
  H42      1.0000 0.18920  0.37110  0.15460  Biso   1.000  H
  H43      1.0000 0.31080  0.87110  0.65460  Biso   1.000  H
  H44      1.0000 0.68920  0.12890  0.15460  Biso   1.000  H
  H45      1.0000 0.88440  0.61160  0.83750  Biso   1.000  H
  H46      1.0000 0.11560  0.38840  0.33750  Biso   1.000  H
  H47      1.0000 0.38440  0.88840  0.83750  Biso   1.000  H
  H48      1.0000 0.61560  0.11160  0.33750  Biso   1.000  H
  Cl1      1.0000 0.90231  0.16550  0.00410  Biso   1.000  Cl
  Cl2      1.0000 0.09769  0.83450  0.50410  Biso   1.000  Cl
  Cl3      1.0000 0.40231  0.33450  0.00410  Biso   1.000  Cl
  Cl4      1.0000 0.59769  0.66550  0.50410  Biso   1.000  Cl
  O13      1.0000 0.88070  0.26920  0.01860  Biso   1.000  O
  O14      1.0000 0.11930  0.73080  0.51860  Biso   1.000  O
  O15      1.0000 0.38070  0.23080  0.01860  Biso   1.000  O
  O16      1.0000 0.61930  0.76920  0.51860  Biso   1.000  O
  O17      1.0000 0.91580  0.14470  0.82330  Biso   1.000  O
  O18      1.0000 0.08420  0.85530  0.32330  Biso   1.000  O
  O19      1.0000 0.41580  0.35530  0.82330  Biso   1.000  O
  O20      1.0000 0.58420  0.64470  0.32330  Biso   1.000  O
  O21      1.0000 0.00040  0.13990  0.07930  Biso   1.000  O
  O22      1.0000 0.99960  0.86010  0.57930  Biso   1.000  O
  O23      1.0000 0.50040  0.36010  0.07930  Biso   1.000  O
  O24      1.0000 0.49960  0.63990  0.57930  Biso   1.000  O
  O25      1.0000 0.82300  0.10310  0.06760  Biso   1.000  O
  O26      1.0000 0.17700  0.89690  0.56760  Biso   1.000  O
  O27      1.0000 0.32300  0.39690  0.06760  Biso   1.000  O
  O28      1.0000 0.67700  0.60310  0.56760  Biso   1.000  O
  O29      1.0000 0.93700  0.26530  0.03140  Biso   1.000  O
  O30      1.0000 0.06300  0.73470  0.53140  Biso   1.000  O
  O31      1.0000 0.43700  0.23470  0.03140  Biso   1.000  O
  O32      1.0000 0.56300  0.76530  0.53140  Biso   1.000  O
  O33      1.0000 0.79090  0.16790  0.99050  Biso   1.000  O
  O34      1.0000 0.20910  0.83210  0.49050  Biso   1.000  O
  O35      1.0000 0.29090  0.33210  0.99050  Biso   1.000  O
  O36      1.0000 0.70910  0.66790  0.49050  Biso   1.000  O
  O37      1.0000 0.92820  0.10190  0.14360  Biso   1.000  O
  O38      1.0000 0.07180  0.89810  0.64360  Biso   1.000  O
  O39      1.0000 0.42820  0.39810  0.14360  Biso   1.000  O
  O40      1.0000 0.57180  0.60190  0.64360  Biso   1.000  O
  O41      1.0000 0.93990  0.12850  0.84430  Biso   1.000  O
  O42      1.0000 0.06010  0.87150  0.34430  Biso   1.000  O
  O43      1.0000 0.43990  0.37150  0.84430  Biso   1.000  O
  O44      1.0000 0.56010  0.62850  0.34430  Biso   1.000  O
