data_image0
_cell_length_a       14.916
_cell_length_b       7.458
_cell_length_c       23.687
_cell_angle_alpha    90
_cell_angle_beta     97.89
_cell_angle_gamma    90

_symmetry_space_group_name_H-M    "P 1"
_symmetry_int_tables_number       1

loop_
  _symmetry_equiv_pos_as_xyz
  'x, y, z'

loop_
  _atom_site_label
  _atom_site_occupancy
  _atom_site_fract_x
  _atom_site_fract_y
  _atom_site_fract_z
  _atom_site_thermal_displace_type
  _atom_site_B_iso_or_equiv
  _atom_site_type_symbol
  Cu1      1.0000 0.76608  0.08493  0.31295  Biso   1.000  Cu
  Cu2      1.0000 0.26608  0.58493  0.31295  Biso   1.000  Cu
  Cu3      1.0000 0.76608  0.91507  0.81295  Biso   1.000  Cu
  Cu4      1.0000 0.26608  0.41507  0.81295  Biso   1.000  Cu
  Cu5      1.0000 0.23392  0.91507  0.68705  Biso   1.000  Cu
  Cu6      1.0000 0.73392  0.41507  0.68705  Biso   1.000  Cu
  Cu7      1.0000 0.23392  0.08493  0.18705  Biso   1.000  Cu
  Cu8      1.0000 0.73392  0.58493  0.18705  Biso   1.000  Cu
  O1       1.0000 0.89840  0.95550  0.26280  Biso   1.000  O
  O2       1.0000 0.39840  0.45550  0.26280  Biso   1.000  O
  O3       1.0000 0.89840  0.04450  0.76280  Biso   1.000  O
  O4       1.0000 0.39840  0.54450  0.76280  Biso   1.000  O
  O5       1.0000 0.10160  0.04450  0.73720  Biso   1.000  O
  O6       1.0000 0.60160  0.54450  0.73720  Biso   1.000  O
  O7       1.0000 0.10160  0.95550  0.23720  Biso   1.000  O
  O8       1.0000 0.60160  0.45550  0.23720  Biso   1.000  O
  H1       1.0000 0.90150  0.99790  0.23250  Biso   1.000  H
  H2       1.0000 0.40150  0.49790  0.23250  Biso   1.000  H
  H3       1.0000 0.90150  0.00210  0.73250  Biso   1.000  H
  H4       1.0000 0.40150  0.50210  0.73250  Biso   1.000  H
  H5       1.0000 0.09850  0.00210  0.76750  Biso   1.000  H
  H6       1.0000 0.59850  0.50210  0.76750  Biso   1.000  H
  H7       1.0000 0.09850  0.99790  0.26750  Biso   1.000  H
  H8       1.0000 0.59850  0.49790  0.26750  Biso   1.000  H
  H9       1.0000 0.94900  0.85130  0.27660  Biso   1.000  H
  H10      1.0000 0.44900  0.35130  0.27660  Biso   1.000  H
  H11      1.0000 0.94900  0.14870  0.77660  Biso   1.000  H
  H12      1.0000 0.44900  0.64870  0.77660  Biso   1.000  H
  H13      1.0000 0.05100  0.14870  0.72340  Biso   1.000  H
  H14      1.0000 0.55100  0.64870  0.72340  Biso   1.000  H
  H15      1.0000 0.05100  0.85130  0.22340  Biso   1.000  H
  H16      1.0000 0.55100  0.35130  0.22340  Biso   1.000  H
  N1       1.0000 0.76190  0.87360  0.36010  Biso   1.000  N
  N2       1.0000 0.26190  0.37360  0.36010  Biso   1.000  N
  N3       1.0000 0.76190  0.12640  0.86010  Biso   1.000  N
  N4       1.0000 0.26190  0.62640  0.86010  Biso   1.000  N
  N5       1.0000 0.23810  0.12640  0.63990  Biso   1.000  N
  N6       1.0000 0.73810  0.62640  0.63990  Biso   1.000  N
  N7       1.0000 0.23810  0.87360  0.13990  Biso   1.000  N
  N8       1.0000 0.73810  0.37360  0.13990  Biso   1.000  N
  N9       1.0000 0.75500  0.63160  0.41030  Biso   1.000  N
  N10      1.0000 0.25500  0.13160  0.41030  Biso   1.000  N
  N11      1.0000 0.75500  0.36840  0.91030  Biso   1.000  N
  N12      1.0000 0.25500  0.86840  0.91030  Biso   1.000  N
  N13      1.0000 0.24500  0.36840  0.58970  Biso   1.000  N
  N14      1.0000 0.74500  0.86840  0.58970  Biso   1.000  N
  N15      1.0000 0.24500  0.63160  0.08970  Biso   1.000  N
  N16      1.0000 0.74500  0.13160  0.08970  Biso   1.000  N
  H17      1.0000 0.73980  0.52030  0.42020  Biso   1.000  H
  H18      1.0000 0.23980  0.02030  0.42020  Biso   1.000  H
  H19      1.0000 0.73980  0.47970  0.92020  Biso   1.000  H
  H20      1.0000 0.23980  0.97970  0.92020  Biso   1.000  H
  H21      1.0000 0.26020  0.47970  0.57980  Biso   1.000  H
  H22      1.0000 0.76020  0.97970  0.57980  Biso   1.000  H
  H23      1.0000 0.26020  0.52030  0.07980  Biso   1.000  H
  H24      1.0000 0.76020  0.02030  0.07980  Biso   1.000  H
  N17      1.0000 0.86600  0.15010  0.37250  Biso   1.000  N
  N18      1.0000 0.36600  0.65010  0.37250  Biso   1.000  N
  N19      1.0000 0.86600  0.84990  0.87250  Biso   1.000  N
  N20      1.0000 0.36600  0.34990  0.87250  Biso   1.000  N
  N21      1.0000 0.13400  0.84990  0.62750  Biso   1.000  N
  N22      1.0000 0.63400  0.34990  0.62750  Biso   1.000  N
  N23      1.0000 0.13400  0.15010  0.12750  Biso   1.000  N
  N24      1.0000 0.63400  0.65010  0.12750  Biso   1.000  N
  O9       1.0000 0.77460  0.30910  0.27480  Biso   1.000  O
  O10      1.0000 0.27460  0.80910  0.27480  Biso   1.000  O
  O11      1.0000 0.77460  0.69090  0.77480  Biso   1.000  O
  O12      1.0000 0.27460  0.19090  0.77480  Biso   1.000  O
  O13      1.0000 0.22540  0.69090  0.72520  Biso   1.000  O
  O14      1.0000 0.72540  0.19090  0.72520  Biso   1.000  O
  O15      1.0000 0.22540  0.30910  0.22520  Biso   1.000  O
  O16      1.0000 0.72540  0.80910  0.22520  Biso   1.000  O
  O17      1.0000 0.84270  0.53390  0.24050  Biso   1.000  O
  O18      1.0000 0.34270  0.03390  0.24050  Biso   1.000  O
  O19      1.0000 0.84270  0.46610  0.74050  Biso   1.000  O
  O20      1.0000 0.34270  0.96610  0.74050  Biso   1.000  O
  O21      1.0000 0.15730  0.46610  0.75950  Biso   1.000  O
  O22      1.0000 0.65730  0.96610  0.75950  Biso   1.000  O
  O23      1.0000 0.15730  0.53390  0.25950  Biso   1.000  O
  O24      1.0000 0.65730  0.03390  0.25950  Biso   1.000  O
  C1       1.0000 0.72140  0.72070  0.36330  Biso   1.000  C
  C2       1.0000 0.22140  0.22070  0.36330  Biso   1.000  C
  C3       1.0000 0.72140  0.27930  0.86330  Biso   1.000  C
  C4       1.0000 0.22140  0.77930  0.86330  Biso   1.000  C
  C5       1.0000 0.27860  0.27930  0.63670  Biso   1.000  C
  C6       1.0000 0.77860  0.77930  0.63670  Biso   1.000  C
  C7       1.0000 0.27860  0.72070  0.13670  Biso   1.000  C
  C8       1.0000 0.77860  0.22070  0.13670  Biso   1.000  C
  H25      1.0000 0.67030  0.68060  0.33720  Biso   1.000  H
  H26      1.0000 0.17030  0.18060  0.33720  Biso   1.000  H
  H27      1.0000 0.67030  0.31940  0.83720  Biso   1.000  H
  H28      1.0000 0.17030  0.81940  0.83720  Biso   1.000  H
  H29      1.0000 0.32970  0.31940  0.66280  Biso   1.000  H
  H30      1.0000 0.82970  0.81940  0.66280  Biso   1.000  H
  H31      1.0000 0.32970  0.68060  0.16280  Biso   1.000  H
  H32      1.0000 0.82970  0.18060  0.16280  Biso   1.000  H
  C9       1.0000 0.82170  0.73100  0.43990  Biso   1.000  C
  C10      1.0000 0.32170  0.23100  0.43990  Biso   1.000  C
  C11      1.0000 0.82170  0.26900  0.93990  Biso   1.000  C
  C12      1.0000 0.32170  0.76900  0.93990  Biso   1.000  C
  C13      1.0000 0.17830  0.26900  0.56010  Biso   1.000  C
  C14      1.0000 0.67830  0.76900  0.56010  Biso   1.000  C
  C15      1.0000 0.17830  0.73100  0.06010  Biso   1.000  C
  C16      1.0000 0.67830  0.23100  0.06010  Biso   1.000  C
  C17      1.0000 0.87600  0.67050  0.49280  Biso   1.000  C
  C18      1.0000 0.37600  0.17050  0.49280  Biso   1.000  C
  C19      1.0000 0.87600  0.32950  0.99280  Biso   1.000  C
  C20      1.0000 0.37600  0.82950  0.99280  Biso   1.000  C
  C21      1.0000 0.12400  0.32950  0.50720  Biso   1.000  C
  C22      1.0000 0.62400  0.82950  0.50720  Biso   1.000  C
  C23      1.0000 0.12400  0.67050  0.00720  Biso   1.000  C
  C24      1.0000 0.62400  0.17050  0.00720  Biso   1.000  C
  H33      1.0000 0.85360  0.55740  0.50430  Biso   1.000  H
  H34      1.0000 0.35360  0.05740  0.50430  Biso   1.000  H
  H35      1.0000 0.85360  0.44260  0.00430  Biso   1.000  H
  H36      1.0000 0.35360  0.94260  0.00430  Biso   1.000  H
  H37      1.0000 0.14640  0.44260  0.49570  Biso   1.000  H
  H38      1.0000 0.64640  0.94260  0.49570  Biso   1.000  H
  H39      1.0000 0.14640  0.55740  0.99570  Biso   1.000  H
  H40      1.0000 0.64640  0.05740  0.99570  Biso   1.000  H
  H41      1.0000 0.93740  0.65640  0.48550  Biso   1.000  H
  H42      1.0000 0.43740  0.15640  0.48550  Biso   1.000  H
  H43      1.0000 0.93740  0.34360  0.98550  Biso   1.000  H
  H44      1.0000 0.43740  0.84360  0.98550  Biso   1.000  H
  H45      1.0000 0.06260  0.34360  0.51450  Biso   1.000  H
  H46      1.0000 0.56260  0.84360  0.51450  Biso   1.000  H
  H47      1.0000 0.06260  0.65640  0.01450  Biso   1.000  H
  H48      1.0000 0.56260  0.15640  0.01450  Biso   1.000  H
  H49      1.0000 0.87400  0.75690  0.52260  Biso   1.000  H
  H50      1.0000 0.37400  0.25690  0.52260  Biso   1.000  H
  H51      1.0000 0.87400  0.24310  0.02260  Biso   1.000  H
  H52      1.0000 0.37400  0.74310  0.02260  Biso   1.000  H
  H53      1.0000 0.12600  0.24310  0.47740  Biso   1.000  H
  H54      1.0000 0.62600  0.74310  0.47740  Biso   1.000  H
  H55      1.0000 0.12600  0.75690  0.97740  Biso   1.000  H
  H56      1.0000 0.62600  0.25690  0.97740  Biso   1.000  H
  C25      1.0000 0.82500  0.88160  0.40870  Biso   1.000  C
  C26      1.0000 0.32500  0.38160  0.40870  Biso   1.000  C
  C27      1.0000 0.82500  0.11840  0.90870  Biso   1.000  C
  C28      1.0000 0.32500  0.61840  0.90870  Biso   1.000  C
  C29      1.0000 0.17500  0.11840  0.59130  Biso   1.000  C
  C30      1.0000 0.67500  0.61840  0.59130  Biso   1.000  C
  C31      1.0000 0.17500  0.88160  0.09130  Biso   1.000  C
  C32      1.0000 0.67500  0.38160  0.09130  Biso   1.000  C
  C33      1.0000 0.88040  0.03790  0.41270  Biso   1.000  C
  C34      1.0000 0.38040  0.53790  0.41270  Biso   1.000  C
  C35      1.0000 0.88040  0.96210  0.91270  Biso   1.000  C
  C36      1.0000 0.38040  0.46210  0.91270  Biso   1.000  C
  C37      1.0000 0.11960  0.96210  0.58730  Biso   1.000  C
  C38      1.0000 0.61960  0.46210  0.58730  Biso   1.000  C
  C39      1.0000 0.11960  0.03790  0.08730  Biso   1.000  C
  C40      1.0000 0.61960  0.53790  0.08730  Biso   1.000  C
  H57      1.0000 0.92850  0.05410  0.44360  Biso   1.000  H
  H58      1.0000 0.42850  0.55410  0.44360  Biso   1.000  H
  H59      1.0000 0.92850  0.94590  0.94360  Biso   1.000  H
  H60      1.0000 0.42850  0.44590  0.94360  Biso   1.000  H
  H61      1.0000 0.07150  0.94590  0.55640  Biso   1.000  H
  H62      1.0000 0.57150  0.44590  0.55640  Biso   1.000  H
  H63      1.0000 0.07150  0.05410  0.05640  Biso   1.000  H
  H64      1.0000 0.57150  0.55410  0.05640  Biso   1.000  H
  C41      1.0000 0.91930  0.30980  0.37070  Biso   1.000  C
  C42      1.0000 0.41930  0.80980  0.37070  Biso   1.000  C
  C43      1.0000 0.91930  0.69020  0.87070  Biso   1.000  C
  C44      1.0000 0.41930  0.19020  0.87070  Biso   1.000  C
  C45      1.0000 0.08070  0.69020  0.62930  Biso   1.000  C
  C46      1.0000 0.58070  0.19020  0.62930  Biso   1.000  C
  C47      1.0000 0.08070  0.30980  0.12930  Biso   1.000  C
  C48      1.0000 0.58070  0.80980  0.12930  Biso   1.000  C
  H65      1.0000 0.97730  0.28740  0.39260  Biso   1.000  H
  H66      1.0000 0.47730  0.78740  0.39260  Biso   1.000  H
  H67      1.0000 0.97730  0.71260  0.89260  Biso   1.000  H
  H68      1.0000 0.47730  0.21260  0.89260  Biso   1.000  H
  H69      1.0000 0.02270  0.71260  0.60740  Biso   1.000  H
  H70      1.0000 0.52270  0.21260  0.60740  Biso   1.000  H
  H71      1.0000 0.02270  0.28740  0.10740  Biso   1.000  H
  H72      1.0000 0.52270  0.78740  0.10740  Biso   1.000  H
  H73      1.0000 0.89120  0.40710  0.38820  Biso   1.000  H
  H74      1.0000 0.39120  0.90710  0.38820  Biso   1.000  H
  H75      1.0000 0.89120  0.59290  0.88820  Biso   1.000  H
  H76      1.0000 0.39120  0.09290  0.88820  Biso   1.000  H
  H77      1.0000 0.10880  0.59290  0.61180  Biso   1.000  H
  H78      1.0000 0.60880  0.09290  0.61180  Biso   1.000  H
  H79      1.0000 0.10880  0.40710  0.11180  Biso   1.000  H
  H80      1.0000 0.60880  0.90710  0.11180  Biso   1.000  H
  C49      1.0000 0.92970  0.36410  0.31190  Biso   1.000  C
  C50      1.0000 0.42970  0.86410  0.31190  Biso   1.000  C
  C51      1.0000 0.92970  0.63590  0.81190  Biso   1.000  C
  C52      1.0000 0.42970  0.13590  0.81190  Biso   1.000  C
  C53      1.0000 0.07030  0.63590  0.68810  Biso   1.000  C
  C54      1.0000 0.57030  0.13590  0.68810  Biso   1.000  C
  C55      1.0000 0.07030  0.36410  0.18810  Biso   1.000  C
  C56      1.0000 0.57030  0.86410  0.18810  Biso   1.000  C
  H81      1.0000 0.95980  0.26800  0.29510  Biso   1.000  H
  H82      1.0000 0.45980  0.76800  0.29510  Biso   1.000  H
  H83      1.0000 0.95980  0.73200  0.79510  Biso   1.000  H
  H84      1.0000 0.45980  0.23200  0.79510  Biso   1.000  H
  H85      1.0000 0.04020  0.73200  0.70490  Biso   1.000  H
  H86      1.0000 0.54020  0.23200  0.70490  Biso   1.000  H
  H87      1.0000 0.04020  0.26800  0.20490  Biso   1.000  H
  H88      1.0000 0.54020  0.76800  0.20490  Biso   1.000  H
  H89      1.0000 0.96740  0.46860  0.31270  Biso   1.000  H
  H90      1.0000 0.46740  0.96860  0.31270  Biso   1.000  H
  H91      1.0000 0.96740  0.53140  0.81270  Biso   1.000  H
  H92      1.0000 0.46740  0.03140  0.81270  Biso   1.000  H
  H93      1.0000 0.03260  0.53140  0.68730  Biso   1.000  H
  H94      1.0000 0.53260  0.03140  0.68730  Biso   1.000  H
  H95      1.0000 0.03260  0.46860  0.18730  Biso   1.000  H
  H96      1.0000 0.53260  0.96860  0.18730  Biso   1.000  H
  C57      1.0000 0.84230  0.40490  0.27350  Biso   1.000  C
  C58      1.0000 0.34230  0.90490  0.27350  Biso   1.000  C
  C59      1.0000 0.84230  0.59510  0.77350  Biso   1.000  C
  C60      1.0000 0.34230  0.09510  0.77350  Biso   1.000  C
  C61      1.0000 0.15770  0.59510  0.72650  Biso   1.000  C
  C62      1.0000 0.65770  0.09510  0.72650  Biso   1.000  C
  C63      1.0000 0.15770  0.40490  0.22650  Biso   1.000  C
  C64      1.0000 0.65770  0.90490  0.22650  Biso   1.000  C
  Cl1      1.0000 0.59653  0.27970  0.40729  Biso   1.000  Cl
  Cl2      1.0000 0.09653  0.77970  0.40729  Biso   1.000  Cl
  Cl3      1.0000 0.59653  0.72030  0.90729  Biso   1.000  Cl
  Cl4      1.0000 0.09653  0.22030  0.90729  Biso   1.000  Cl
  Cl5      1.0000 0.40347  0.72030  0.59271  Biso   1.000  Cl
  Cl6      1.0000 0.90347  0.22030  0.59271  Biso   1.000  Cl
  Cl7      1.0000 0.40347  0.27970  0.09271  Biso   1.000  Cl
  Cl8      1.0000 0.90347  0.77970  0.09271  Biso   1.000  Cl
  O25      1.0000 0.55550  0.11130  0.40690  Biso   1.000  O
  O26      1.0000 0.05550  0.61130  0.40690  Biso   1.000  O
  O27      1.0000 0.55550  0.88870  0.90690  Biso   1.000  O
  O28      1.0000 0.05550  0.38870  0.90690  Biso   1.000  O
  O29      1.0000 0.44450  0.88870  0.59310  Biso   1.000  O
  O30      1.0000 0.94450  0.38870  0.59310  Biso   1.000  O
  O31      1.0000 0.44450  0.11130  0.09310  Biso   1.000  O
  O32      1.0000 0.94450  0.61130  0.09310  Biso   1.000  O
  O33      1.0000 0.54070  0.37870  0.36450  Biso   1.000  O
  O34      1.0000 0.04070  0.87870  0.36450  Biso   1.000  O
  O35      1.0000 0.54070  0.62130  0.86450  Biso   1.000  O
  O36      1.0000 0.04070  0.12130  0.86450  Biso   1.000  O
  O37      1.0000 0.45930  0.62130  0.63550  Biso   1.000  O
  O38      1.0000 0.95930  0.12130  0.63550  Biso   1.000  O
  O39      1.0000 0.45930  0.37870  0.13550  Biso   1.000  O
  O40      1.0000 0.95930  0.87870  0.13550  Biso   1.000  O
  O41      1.0000 0.68000  0.26440  0.38870  Biso   1.000  O
  O42      1.0000 0.18000  0.76440  0.38870  Biso   1.000  O
  O43      1.0000 0.68000  0.73560  0.88870  Biso   1.000  O
  O44      1.0000 0.18000  0.23560  0.88870  Biso   1.000  O
  O45      1.0000 0.32000  0.73560  0.61130  Biso   1.000  O
  O46      1.0000 0.82000  0.23560  0.61130  Biso   1.000  O
  O47      1.0000 0.32000  0.26440  0.11130  Biso   1.000  O
  O48      1.0000 0.82000  0.76440  0.11130  Biso   1.000  O
  O49      1.0000 0.59470  0.37060  0.45750  Biso   1.000  O
  O50      1.0000 0.09470  0.87060  0.45750  Biso   1.000  O
  O51      1.0000 0.59470  0.62940  0.95750  Biso   1.000  O
  O52      1.0000 0.09470  0.12940  0.95750  Biso   1.000  O
  O53      1.0000 0.40530  0.62940  0.54250  Biso   1.000  O
  O54      1.0000 0.90530  0.12940  0.54250  Biso   1.000  O
  O55      1.0000 0.40530  0.37060  0.04250  Biso   1.000  O
  O56      1.0000 0.90530  0.87060  0.04250  Biso   1.000  O
  O57      1.0000 0.59810  0.14800  0.36580  Biso   1.000  O
  O58      1.0000 0.09810  0.64800  0.36580  Biso   1.000  O
  O59      1.0000 0.59810  0.85200  0.86580  Biso   1.000  O
  O60      1.0000 0.09810  0.35200  0.86580  Biso   1.000  O
  O61      1.0000 0.40190  0.85200  0.63420  Biso   1.000  O
  O62      1.0000 0.90190  0.35200  0.63420  Biso   1.000  O
  O63      1.0000 0.40190  0.14800  0.13420  Biso   1.000  O
  O64      1.0000 0.90190  0.64800  0.13420  Biso   1.000  O
  O65      1.0000 0.57090  0.44770  0.38440  Biso   1.000  O
  O66      1.0000 0.07090  0.94770  0.38440  Biso   1.000  O
  O67      1.0000 0.57090  0.55230  0.88440  Biso   1.000  O
  O68      1.0000 0.07090  0.05230  0.88440  Biso   1.000  O
  O69      1.0000 0.42910  0.55230  0.61560  Biso   1.000  O
  O70      1.0000 0.92910  0.05230  0.61560  Biso   1.000  O
  O71      1.0000 0.42910  0.44770  0.11560  Biso   1.000  O
  O72      1.0000 0.92910  0.94770  0.11560  Biso   1.000  O
  O73      1.0000 0.68520  0.29700  0.43830  Biso   1.000  O
  O74      1.0000 0.18520  0.79700  0.43830  Biso   1.000  O
  O75      1.0000 0.68520  0.70300  0.93830  Biso   1.000  O
  O76      1.0000 0.18520  0.20300  0.93830  Biso   1.000  O
  O77      1.0000 0.31480  0.70300  0.56170  Biso   1.000  O
  O78      1.0000 0.81480  0.20300  0.56170  Biso   1.000  O
  O79      1.0000 0.31480  0.29700  0.06170  Biso   1.000  O
  O80      1.0000 0.81480  0.79700  0.06170  Biso   1.000  O
  O81      1.0000 0.54180  0.23400  0.44860  Biso   1.000  O
  O82      1.0000 0.04180  0.73400  0.44860  Biso   1.000  O
  O83      1.0000 0.54180  0.76600  0.94860  Biso   1.000  O
  O84      1.0000 0.04180  0.26600  0.94860  Biso   1.000  O
  O85      1.0000 0.45820  0.76600  0.55140  Biso   1.000  O
  O86      1.0000 0.95820  0.26600  0.55140  Biso   1.000  O
  O87      1.0000 0.45820  0.23400  0.05140  Biso   1.000  O
  O88      1.0000 0.95820  0.73400  0.05140  Biso   1.000  O
