data_image0
_cell_length_a       8.6975
_cell_length_b       9.9815
_cell_length_c       10.116
_cell_angle_alpha    93.095
_cell_angle_beta     111.272
_cell_angle_gamma    105.188

_symmetry_space_group_name_H-M    "P 1"
_symmetry_int_tables_number       1

loop_
  _symmetry_equiv_pos_as_xyz
  'x, y, z'

loop_
  _atom_site_label
  _atom_site_occupancy
  _atom_site_fract_x
  _atom_site_fract_y
  _atom_site_fract_z
  _atom_site_thermal_displace_type
  _atom_site_B_iso_or_equiv
  _atom_site_type_symbol
  Cu1      1.0000 0.50000  0.50000  0.00000  Biso   1.000  Cu
  Cu2      1.0000 0.77963  0.60863  0.66397  Biso   1.000  Cu
  Cu3      1.0000 0.22037  0.39137  0.33603  Biso   1.000  Cu
  C1       1.0000 0.40810  0.11040  0.68670  Biso   1.000  C
  C2       1.0000 0.59190  0.88960  0.31330  Biso   1.000  C
  H1       1.0000 0.43250  0.19310  0.64980  Biso   1.000  H
  H2       1.0000 0.56750  0.80690  0.35020  Biso   1.000  H
  C3       1.0000 0.38460  0.97960  0.62370  Biso   1.000  C
  C4       1.0000 0.61540  0.02040  0.37630  Biso   1.000  C
  H3       1.0000 0.38780  0.95490  0.53500  Biso   1.000  H
  H4       1.0000 0.61220  0.04510  0.46500  Biso   1.000  H
  C5       1.0000 0.35680  0.96560  0.82890  Biso   1.000  C
  C6       1.0000 0.64320  0.03440  0.17110  Biso   1.000  C
  H5       1.0000 0.33790  0.92940  0.90640  Biso   1.000  H
  H6       1.0000 0.66210  0.07060  0.09360  Biso   1.000  H
  C7       1.0000 0.32280  0.73760  0.69380  Biso   1.000  C
  C8       1.0000 0.67720  0.26240  0.30620  Biso   1.000  C
  H7       1.0000 0.22950  0.69680  0.60080  Biso   1.000  H
  H8       1.0000 0.77050  0.30320  0.39920  Biso   1.000  H
  H9       1.0000 0.28500  0.69900  0.76680  Biso   1.000  H
  H10      1.0000 0.71500  0.30100  0.23320  Biso   1.000  H
  C9       1.0000 0.48180  0.69430  0.70040  Biso   1.000  C
  C10      1.0000 0.51820  0.30570  0.29960  Biso   1.000  C
  N1       1.0000 0.35510  0.89090  0.71590  Biso   1.000  N
  N2       1.0000 0.64490  0.10910  0.28410  Biso   1.000  N
  N3       1.0000 0.38940  0.09890  0.81410  Biso   1.000  N
  N4       1.0000 0.61060  0.90110  0.18590  Biso   1.000  N
  H11      1.0000 0.39750  0.16720  0.87440  Biso   1.000  H
  H12      1.0000 0.60250  0.83280  0.12560  Biso   1.000  H
  O1       1.0000 0.53670  0.74504  0.58880  Biso   1.000  O
  O2       1.0000 0.46330  0.25496  0.41120  Biso   1.000  O
  H13      1.0000 0.47830  0.67660  0.50330  Biso   1.000  H
  H14      1.0000 0.52170  0.32340  0.49670  Biso   1.000  H
  O3       1.0000 0.73430  0.91693  0.90530  Biso   1.000  O
  O4       1.0000 0.26570  0.08307  0.09470  Biso   1.000  O
  O5       1.0000 0.80480  0.69501  0.85335  Biso   1.000  O
  O6       1.0000 0.19520  0.30499  0.14665  Biso   1.000  O
  O7       1.0000 0.60550  0.69841  0.98560  Biso   1.000  O
  O8       1.0000 0.39450  0.30159  0.01440  Biso   1.000  O
  O9       1.0000 0.56800  0.46063  0.65026  Biso   1.000  O
  O10      1.0000 0.43200  0.53937  0.34974  Biso   1.000  O
  O11      1.0000 0.37580  0.44448  0.79156  Biso   1.000  O
  O12      1.0000 0.62420  0.55552  0.20844  Biso   1.000  O
  O13      1.0000 0.25490  0.45524  0.53019  Biso   1.000  O
  O14      1.0000 0.74510  0.54476  0.46981  Biso   1.000  O
  O15      1.0000 0.95020  0.47720  0.75490  Biso   1.000  O
  O16      1.0000 0.04980  0.52280  0.24510  Biso   1.000  O
  H15      1.0000 0.94510  0.40800  0.70660  Biso   1.000  H
  H16      1.0000 0.05490  0.59200  0.29340  Biso   1.000  H
  H17      1.0000 0.04180  0.49430  0.84050  Biso   1.000  H
  H18      1.0000 0.95820  0.50570  0.15950  Biso   1.000  H
  O17      1.0000 0.96080  0.77450  0.65580  Biso   1.000  O
  O18      1.0000 0.03920  0.22550  0.34420  Biso   1.000  O
  H19      1.0000 0.98320  0.85710  0.69760  Biso   1.000  H
  H20      1.0000 0.01680  0.14290  0.30240  Biso   1.000  H
  H21      1.0000 0.95630  0.77350  0.56810  Biso   1.000  H
  H22      1.0000 0.04370  0.22650  0.43190  Biso   1.000  H
  O19      1.0000 0.75870  0.45230  0.99310  Biso   1.000  O
  O20      1.0000 0.24130  0.54770  0.00690  Biso   1.000  O
  H23      1.0000 0.75210  0.36020  0.95870  Biso   1.000  H
  H24      1.0000 0.24790  0.63980  0.04130  Biso   1.000  H
  H25      1.0000 0.78870  0.51740  0.94260  Biso   1.000  H
  H26      1.0000 0.21130  0.48260  0.05740  Biso   1.000  H
  P1       1.0000 0.66944  0.75830  0.87224  Biso   1.000  P
  P2       1.0000 0.33056  0.24170  0.12776  Biso   1.000  P
  P3       1.0000 0.41673  0.49915  0.66722  Biso   1.000  P
  P4       1.0000 0.58327  0.50085  0.33278  Biso   1.000  P
  O21      1.0000 0.83000  0.20880  0.97780  Biso   1.000  O
  O22      1.0000 0.17000  0.79120  0.02220  Biso   1.000  O
  H27      1.0000 0.95370  0.22620  0.02360  Biso   1.000  H
  H28      1.0000 0.04630  0.77380  0.97640  Biso   1.000  H
  H29      1.0000 0.80010  0.11730  0.92330  Biso   1.000  H
  H30      1.0000 0.19990  0.88270  0.07670  Biso   1.000  H
  O23      1.0000 0.96920  0.76310  0.37200  Biso   1.000  O
  O24      1.0000 0.03080  0.23690  0.62800  Biso   1.000  O
  H31      1.0000 0.98580  0.83470  0.31970  Biso   1.000  H
  H32      1.0000 0.01420  0.16530  0.68030  Biso   1.000  H
  H33      1.0000 0.86900  0.69910  0.31350  Biso   1.000  H
  H34      1.0000 0.13100  0.30090  0.68650  Biso   1.000  H
  O25      1.0000 0.00930  0.97880  0.19450  Biso   1.000  O
  O26      1.0000 0.99070  0.02120  0.80550  Biso   1.000  O
  H35      1.0000 0.91270  0.94290  0.10840  Biso   1.000  H
  H36      1.0000 0.08730  0.05710  0.89160  Biso   1.000  H
  H37      1.0000 0.10460  0.01550  0.18440  Biso   1.000  H
  H38      1.0000 0.89540  0.98450  0.81560  Biso   1.000  H
