data_image0
_cell_length_a       3.7908
_cell_length_b       17.401
_cell_length_c       10.2861
_cell_angle_alpha    90
_cell_angle_beta     90.855
_cell_angle_gamma    90

_symmetry_space_group_name_H-M    "P 1"
_symmetry_int_tables_number       1

loop_
  _symmetry_equiv_pos_as_xyz
  'x, y, z'

loop_
  _atom_site_label
  _atom_site_occupancy
  _atom_site_fract_x
  _atom_site_fract_y
  _atom_site_fract_z
  _atom_site_thermal_displace_type
  _atom_site_B_iso_or_equiv
  _atom_site_type_symbol
  Cu1      1.0000 0.00000  0.50000  0.00000  Biso   1.000  Cu
  Cu2      1.0000 0.50000  0.00000  0.50000  Biso   1.000  Cu
  Cl1      1.0000 0.39330  0.41553  0.08267  Biso   1.000  Cl
  Cl2      1.0000 0.10670  0.91553  0.41733  Biso   1.000  Cl
  Cl3      1.0000 0.60670  0.58447  0.91733  Biso   1.000  Cl
  Cl4      1.0000 0.89330  0.08447  0.58267  Biso   1.000  Cl
  N1       1.0000 0.03300  0.56418  0.16900  Biso   1.000  N
  N2       1.0000 0.46700  0.06418  0.33100  Biso   1.000  N
  N3       1.0000 0.96700  0.43582  0.83100  Biso   1.000  N
  N4       1.0000 0.53300  0.93582  0.66900  Biso   1.000  N
  C1       1.0000 0.02900  0.53907  0.29550  Biso   1.000  C
  C2       1.0000 0.47100  0.03907  0.20450  Biso   1.000  C
  C3       1.0000 0.97100  0.46093  0.70450  Biso   1.000  C
  C4       1.0000 0.52900  0.96093  0.79550  Biso   1.000  C
  N5       1.0000 0.14230  0.58171  0.39890  Biso   1.000  N
  N6       1.0000 0.35770  0.08171  0.10110  Biso   1.000  N
  N7       1.0000 0.85770  0.41829  0.60110  Biso   1.000  N
  N8       1.0000 0.64230  0.91829  0.89890  Biso   1.000  N
  C5       1.0000 0.26610  0.65100  0.37570  Biso   1.000  C
  C6       1.0000 0.23390  0.15100  0.12430  Biso   1.000  C
  C7       1.0000 0.73390  0.34900  0.62430  Biso   1.000  C
  C8       1.0000 0.76610  0.84900  0.87570  Biso   1.000  C
  H1       1.0000 0.35800  0.68100  0.44560  Biso   1.000  H
  H2       1.0000 0.14200  0.18100  0.05440  Biso   1.000  H
  H3       1.0000 0.64200  0.31900  0.55440  Biso   1.000  H
  H4       1.0000 0.85800  0.81900  0.94560  Biso   1.000  H
  C9       1.0000 0.26420  0.68070  0.25110  Biso   1.000  C
  C10      1.0000 0.23580  0.18070  0.24890  Biso   1.000  C
  C11      1.0000 0.73580  0.31930  0.74890  Biso   1.000  C
  C12      1.0000 0.76420  0.81930  0.75110  Biso   1.000  C
  C13      1.0000 0.13830  0.63662  0.14990  Biso   1.000  C
  C14      1.0000 0.36170  0.13662  0.35010  Biso   1.000  C
  C15      1.0000 0.86170  0.36338  0.85010  Biso   1.000  C
  C16      1.0000 0.63830  0.86338  0.64990  Biso   1.000  C
  H5       1.0000 0.12570  0.65790  0.06490  Biso   1.000  H
  H6       1.0000 0.37430  0.15790  0.43510  Biso   1.000  H
  H7       1.0000 0.87430  0.34210  0.93510  Biso   1.000  H
  H8       1.0000 0.62570  0.84210  0.56490  Biso   1.000  H
  N9       1.0000 0.90550  0.47022  0.32110  Biso   1.000  N
  N10      1.0000 0.59450  0.97022  0.17890  Biso   1.000  N
  N11      1.0000 0.09450  0.52978  0.67890  Biso   1.000  N
  N12      1.0000 0.40550  0.02978  0.82110  Biso   1.000  N
  H9       1.0000 0.89920  0.45380  0.40200  Biso   1.000  H
  H10      1.0000 0.60080  0.95380  0.09800  Biso   1.000  H
  H11      1.0000 0.10080  0.54620  0.59800  Biso   1.000  H
  H12      1.0000 0.39920  0.04620  0.90200  Biso   1.000  H
  H13      1.0000 0.82920  0.44050  0.25750  Biso   1.000  H
  H14      1.0000 0.67080  0.94050  0.24250  Biso   1.000  H
  H15      1.0000 0.17080  0.55950  0.74250  Biso   1.000  H
  H16      1.0000 0.32920  0.05950  0.75750  Biso   1.000  H
  N13      1.0000 0.40580  0.75674  0.22420  Biso   1.000  N
  N14      1.0000 0.09420  0.25674  0.27580  Biso   1.000  N
  N15      1.0000 0.59420  0.24326  0.77580  Biso   1.000  N
  N16      1.0000 0.90580  0.74326  0.72420  Biso   1.000  N
  O1       1.0000 0.60130  0.78539  0.30710  Biso   1.000  O
  O2       1.0000 0.89870  0.28539  0.19290  Biso   1.000  O
  O3       1.0000 0.39870  0.21461  0.69290  Biso   1.000  O
  O4       1.0000 0.10130  0.71461  0.80710  Biso   1.000  O
  O5       1.0000 0.32990  0.78703  0.12000  Biso   1.000  O
  O6       1.0000 0.17010  0.28703  0.38000  Biso   1.000  O
  O7       1.0000 0.67010  0.21297  0.88000  Biso   1.000  O
  O8       1.0000 0.82990  0.71297  0.62000  Biso   1.000  O
