data_image0
_cell_length_a       6.694
_cell_length_b       12.54
_cell_length_c       15.755
_cell_angle_alpha    90
_cell_angle_beta     90
_cell_angle_gamma    90

_symmetry_space_group_name_H-M    "P 1"
_symmetry_int_tables_number       1

loop_
  _symmetry_equiv_pos_as_xyz
  'x, y, z'

loop_
  _atom_site_label
  _atom_site_occupancy
  _atom_site_fract_x
  _atom_site_fract_y
  _atom_site_fract_z
  _atom_site_thermal_displace_type
  _atom_site_B_iso_or_equiv
  _atom_site_type_symbol
  Cu1      1.0000 0.23123  0.99173  0.24060  Biso   1.000  Cu
  Cu2      1.0000 0.26877  0.00827  0.74060  Biso   1.000  Cu
  Cu3      1.0000 0.73123  0.50827  0.75940  Biso   1.000  Cu
  Cu4      1.0000 0.76877  0.49173  0.25940  Biso   1.000  Cu
  N1       1.0000 0.49110  0.05416  0.27123  Biso   1.000  N
  N2       1.0000 0.00890  0.94584  0.77123  Biso   1.000  N
  N3       1.0000 0.99110  0.44584  0.72877  Biso   1.000  N
  N4       1.0000 0.50890  0.55416  0.22877  Biso   1.000  N
  H1       1.0000 0.54020  0.02050  0.31640  Biso   1.000  H
  H2       1.0000 0.95980  0.97950  0.81640  Biso   1.000  H
  H3       1.0000 0.04020  0.47950  0.68360  Biso   1.000  H
  H4       1.0000 0.45980  0.52050  0.18360  Biso   1.000  H
  H5       1.0000 0.47530  0.12300  0.28330  Biso   1.000  H
  H6       1.0000 0.02470  0.87700  0.78330  Biso   1.000  H
  H7       1.0000 0.97530  0.37700  0.71670  Biso   1.000  H
  H8       1.0000 0.52470  0.62300  0.21670  Biso   1.000  H
  H9       1.0000 0.57530  0.04730  0.22790  Biso   1.000  H
  H10      1.0000 0.92470  0.95270  0.72790  Biso   1.000  H
  H11      1.0000 0.07530  0.45270  0.77210  Biso   1.000  H
  H12      1.0000 0.42470  0.54730  0.27210  Biso   1.000  H
  N5       1.0000 0.38180  0.86962  0.13474  Biso   1.000  N
  N6       1.0000 0.11820  0.13038  0.63474  Biso   1.000  N
  N7       1.0000 0.88180  0.63038  0.86526  Biso   1.000  N
  N8       1.0000 0.61820  0.36962  0.36526  Biso   1.000  N
  H13      1.0000 0.41520  0.80860  0.15990  Biso   1.000  H
  H14      1.0000 0.08480  0.19140  0.65990  Biso   1.000  H
  H15      1.0000 0.91520  0.69140  0.84010  Biso   1.000  H
  H16      1.0000 0.58480  0.30860  0.34010  Biso   1.000  H
  H17      1.0000 0.49050  0.89970  0.11270  Biso   1.000  H
  H18      1.0000 0.00950  0.10030  0.61270  Biso   1.000  H
  H19      1.0000 0.99050  0.60030  0.88730  Biso   1.000  H
  H20      1.0000 0.50950  0.39970  0.38730  Biso   1.000  H
  H21      1.0000 0.29390  0.85670  0.09360  Biso   1.000  H
  H22      1.0000 0.20610  0.14330  0.59360  Biso   1.000  H
  H23      1.0000 0.79390  0.64330  0.90640  Biso   1.000  H
  H24      1.0000 0.70610  0.35670  0.40640  Biso   1.000  H
  N9       1.0000 0.96570  0.93065  0.21735  Biso   1.000  N
  N10      1.0000 0.53430  0.06935  0.71735  Biso   1.000  N
  N11      1.0000 0.46570  0.56935  0.78265  Biso   1.000  N
  N12      1.0000 0.03430  0.43065  0.28265  Biso   1.000  N
  H25      1.0000 0.93980  0.87930  0.25480  Biso   1.000  H
  H26      1.0000 0.56020  0.12070  0.75480  Biso   1.000  H
  H27      1.0000 0.43980  0.62070  0.74520  Biso   1.000  H
  H28      1.0000 0.06020  0.37930  0.24520  Biso   1.000  H
  H29      1.0000 0.96370  0.90350  0.16510  Biso   1.000  H
  H30      1.0000 0.53630  0.09650  0.66510  Biso   1.000  H
  H31      1.0000 0.46370  0.59650  0.83490  Biso   1.000  H
  H32      1.0000 0.03630  0.40350  0.33490  Biso   1.000  H
  H33      1.0000 0.87340  0.98150  0.22160  Biso   1.000  H
  H34      1.0000 0.62660  0.01850  0.72160  Biso   1.000  H
  H35      1.0000 0.37340  0.51850  0.77840  Biso   1.000  H
  H36      1.0000 0.12660  0.48150  0.27840  Biso   1.000  H
  N13      1.0000 0.04550  0.11590  0.34812  Biso   1.000  N
  N14      1.0000 0.45450  0.88410  0.84812  Biso   1.000  N
  N15      1.0000 0.54550  0.38410  0.65188  Biso   1.000  N
  N16      1.0000 0.95450  0.61590  0.15188  Biso   1.000  N
  H37      1.0000 0.03980  0.08420  0.39860  Biso   1.000  H
  H38      1.0000 0.46020  0.91580  0.89860  Biso   1.000  H
  H39      1.0000 0.53980  0.41580  0.60140  Biso   1.000  H
  H40      1.0000 0.96020  0.58420  0.10140  Biso   1.000  H
  H41      1.0000 0.92210  0.12840  0.32950  Biso   1.000  H
  H42      1.0000 0.57790  0.87160  0.82950  Biso   1.000  H
  H43      1.0000 0.42210  0.37160  0.67050  Biso   1.000  H
  H44      1.0000 0.07790  0.62840  0.17050  Biso   1.000  H
  H45      1.0000 0.11130  0.17730  0.35280  Biso   1.000  H
  H46      1.0000 0.38870  0.82270  0.85280  Biso   1.000  H
  H47      1.0000 0.61130  0.32270  0.64720  Biso   1.000  H
  H48      1.0000 0.88870  0.67730  0.14720  Biso   1.000  H
  O1       1.0000 0.26380  0.89527  0.33562  Biso   1.000  O
  O2       1.0000 0.23620  0.10473  0.83562  Biso   1.000  O
  O3       1.0000 0.76380  0.60473  0.66438  Biso   1.000  O
  O4       1.0000 0.73620  0.39527  0.16438  Biso   1.000  O
  O5       1.0000 0.34990  0.74380  0.26978  Biso   1.000  O
  O6       1.0000 0.15010  0.25620  0.76978  Biso   1.000  O
  O7       1.0000 0.84990  0.75620  0.73022  Biso   1.000  O
  O8       1.0000 0.65010  0.24380  0.23022  Biso   1.000  O
  O9       1.0000 0.23140  0.40706  0.43501  Biso   1.000  O
  O10      1.0000 0.26860  0.59294  0.93501  Biso   1.000  O
  O11      1.0000 0.73140  0.09294  0.56499  Biso   1.000  O
  O12      1.0000 0.76860  0.90706  0.06499  Biso   1.000  O
  O13      1.0000 0.16230  0.41948  0.57211  Biso   1.000  O
  O14      1.0000 0.33770  0.58052  0.07211  Biso   1.000  O
  O15      1.0000 0.66230  0.08052  0.42789  Biso   1.000  O
  O16      1.0000 0.83770  0.91948  0.92789  Biso   1.000  O
  O17      1.0000 0.35370  0.75992  0.71981  Biso   1.000  O
  O18      1.0000 0.14630  0.24008  0.21981  Biso   1.000  O
  O19      1.0000 0.85370  0.74008  0.28019  Biso   1.000  O
  O20      1.0000 0.64630  0.25992  0.78019  Biso   1.000  O
  O21      1.0000 0.29470  0.90956  0.64668  Biso   1.000  O
  O22      1.0000 0.20530  0.09044  0.14668  Biso   1.000  O
  O23      1.0000 0.79470  0.59044  0.35332  Biso   1.000  O
  O24      1.0000 0.70530  0.40956  0.85332  Biso   1.000  O
  O25      1.0000 0.20680  0.81500  0.97628  Biso   1.000  O
  O26      1.0000 0.29320  0.18500  0.47628  Biso   1.000  O
  O27      1.0000 0.70680  0.68500  0.02372  Biso   1.000  O
  O28      1.0000 0.79320  0.31500  0.52372  Biso   1.000  O
  C1       1.0000 0.30430  0.79650  0.33425  Biso   1.000  C
  C2       1.0000 0.19570  0.20350  0.83425  Biso   1.000  C
  C3       1.0000 0.80430  0.70350  0.66575  Biso   1.000  C
  C4       1.0000 0.69570  0.29650  0.16575  Biso   1.000  C
  C5       1.0000 0.31640  0.80900  0.65283  Biso   1.000  C
  C6       1.0000 0.18360  0.19100  0.15283  Biso   1.000  C
  C7       1.0000 0.81640  0.69100  0.34717  Biso   1.000  C
  C8       1.0000 0.68360  0.30900  0.84717  Biso   1.000  C
  C9       1.0000 0.21680  0.46060  0.50237  Biso   1.000  C
  C10      1.0000 0.28320  0.53940  0.00237  Biso   1.000  C
  C11      1.0000 0.71680  0.03940  0.49763  Biso   1.000  C
  C12      1.0000 0.78320  0.96060  0.99763  Biso   1.000  C
  C13      1.0000 0.29340  0.74074  0.41850  Biso   1.000  C
  C14      1.0000 0.20660  0.25926  0.91850  Biso   1.000  C
  C15      1.0000 0.79340  0.75926  0.58150  Biso   1.000  C
  C16      1.0000 0.70660  0.24074  0.08150  Biso   1.000  C
  C17      1.0000 0.29940  0.79930  0.49351  Biso   1.000  C
  C18      1.0000 0.20060  0.20070  0.99351  Biso   1.000  C
  C19      1.0000 0.79940  0.70070  0.50649  Biso   1.000  C
  C20      1.0000 0.70060  0.29930  0.00649  Biso   1.000  C
  H49      1.0000 0.30580  0.87330  0.49150  Biso   1.000  H
  H50      1.0000 0.19420  0.12670  0.99150  Biso   1.000  H
  H51      1.0000 0.80580  0.62670  0.50850  Biso   1.000  H
  H52      1.0000 0.69420  0.37330  0.00850  Biso   1.000  H
  C21      1.0000 0.29600  0.74702  0.57171  Biso   1.000  C
  C22      1.0000 0.20400  0.25298  0.07171  Biso   1.000  C
  C23      1.0000 0.79600  0.75298  0.42829  Biso   1.000  C
  C24      1.0000 0.70400  0.24702  0.92829  Biso   1.000  C
  C25      1.0000 0.27320  0.63636  0.57484  Biso   1.000  C
  C26      1.0000 0.22680  0.36364  0.07484  Biso   1.000  C
  C27      1.0000 0.77320  0.86364  0.42516  Biso   1.000  C
  C28      1.0000 0.72680  0.13636  0.92516  Biso   1.000  C
  H53      1.0000 0.26830  0.60150  0.62690  Biso   1.000  H
  H54      1.0000 0.23170  0.39850  0.12690  Biso   1.000  H
  H55      1.0000 0.76830  0.89850  0.37310  Biso   1.000  H
  H56      1.0000 0.73170  0.10150  0.87310  Biso   1.000  H
  C29      1.0000 0.25780  0.57850  0.49971  Biso   1.000  C
  C30      1.0000 0.24220  0.42150  0.99971  Biso   1.000  C
  C31      1.0000 0.75780  0.92150  0.50029  Biso   1.000  C
  C32      1.0000 0.74220  0.07850  0.00029  Biso   1.000  C
  C33      1.0000 0.27560  0.62977  0.42165  Biso   1.000  C
  C34      1.0000 0.22440  0.37023  0.92165  Biso   1.000  C
  C35      1.0000 0.77560  0.87023  0.57835  Biso   1.000  C
  C36      1.0000 0.72440  0.12977  0.07835  Biso   1.000  C
  H57      1.0000 0.27560  0.59020  0.37170  Biso   1.000  H
  H58      1.0000 0.22440  0.40980  0.87170  Biso   1.000  H
  H59      1.0000 0.77560  0.90980  0.62830  Biso   1.000  H
  H60      1.0000 0.72440  0.09020  0.12830  Biso   1.000  H
