data_image0
_cell_length_a       37.01
_cell_length_b       9.7422
_cell_length_c       22.538
_cell_angle_alpha    90
_cell_angle_beta     123.317
_cell_angle_gamma    90

_symmetry_space_group_name_H-M    "P 1"
_symmetry_int_tables_number       1

loop_
  _symmetry_equiv_pos_as_xyz
  'x, y, z'

loop_
  _atom_site_label
  _atom_site_occupancy
  _atom_site_fract_x
  _atom_site_fract_y
  _atom_site_fract_z
  _atom_site_thermal_displace_type
  _atom_site_B_iso_or_equiv
  _atom_site_type_symbol
  Cu1      1.0000 0.15581  0.62176  0.56808  Biso   1.000  Cu
  Cu2      1.0000 0.84419  0.62176  0.93192  Biso   1.000  Cu
  Cu3      1.0000 0.65581  0.12176  0.56808  Biso   1.000  Cu
  Cu4      1.0000 0.34419  0.12176  0.93192  Biso   1.000  Cu
  Cu5      1.0000 0.84419  0.37824  0.43192  Biso   1.000  Cu
  Cu6      1.0000 0.15581  0.37824  0.06808  Biso   1.000  Cu
  Cu7      1.0000 0.34419  0.87824  0.43192  Biso   1.000  Cu
  Cu8      1.0000 0.65581  0.87824  0.06808  Biso   1.000  Cu
  O1       1.0000 0.21043  0.60920  0.66585  Biso   1.000  O
  O2       1.0000 0.78957  0.60920  0.83415  Biso   1.000  O
  O3       1.0000 0.71043  0.10920  0.66585  Biso   1.000  O
  O4       1.0000 0.28957  0.10920  0.83415  Biso   1.000  O
  O5       1.0000 0.78957  0.39080  0.33415  Biso   1.000  O
  O6       1.0000 0.21043  0.39080  0.16585  Biso   1.000  O
  O7       1.0000 0.28957  0.89080  0.33415  Biso   1.000  O
  O8       1.0000 0.71043  0.89080  0.16585  Biso   1.000  O
  O9       1.0000 0.10057  0.56080  0.47693  Biso   1.000  O
  O10      1.0000 0.89943  0.56080  0.02307  Biso   1.000  O
  O11      1.0000 0.60057  0.06080  0.47693  Biso   1.000  O
  O12      1.0000 0.39943  0.06080  0.02307  Biso   1.000  O
  O13      1.0000 0.89943  0.43920  0.52307  Biso   1.000  O
  O14      1.0000 0.10057  0.43920  0.97693  Biso   1.000  O
  O15      1.0000 0.39943  0.93920  0.52307  Biso   1.000  O
  O16      1.0000 0.60057  0.93920  0.97693  Biso   1.000  O
  C1       1.0000 0.10028  0.87390  0.54385  Biso   1.000  C
  C2       1.0000 0.89972  0.87390  0.95615  Biso   1.000  C
  C3       1.0000 0.60028  0.37390  0.54385  Biso   1.000  C
  C4       1.0000 0.39972  0.37390  0.95615  Biso   1.000  C
  C5       1.0000 0.89972  0.12610  0.45615  Biso   1.000  C
  C6       1.0000 0.10028  0.12610  0.04385  Biso   1.000  C
  C7       1.0000 0.39972  0.62610  0.45615  Biso   1.000  C
  C8       1.0000 0.60028  0.62610  0.04385  Biso   1.000  C
  N1       1.0000 0.16495  0.42790  0.57396  Biso   1.000  N
  N2       1.0000 0.83505  0.42790  0.92604  Biso   1.000  N
  N3       1.0000 0.66495  0.92790  0.57396  Biso   1.000  N
  N4       1.0000 0.33505  0.92790  0.92604  Biso   1.000  N
  N5       1.0000 0.83505  0.57210  0.42604  Biso   1.000  N
  N6       1.0000 0.16495  0.57210  0.07396  Biso   1.000  N
  N7       1.0000 0.33505  0.07210  0.42604  Biso   1.000  N
  N8       1.0000 0.66495  0.07210  0.07396  Biso   1.000  N
  N9       1.0000 0.13522  0.78870  0.58808  Biso   1.000  N
  N10      1.0000 0.86478  0.78870  0.91192  Biso   1.000  N
  N11      1.0000 0.63522  0.28870  0.58808  Biso   1.000  N
  N12      1.0000 0.36478  0.28870  0.91192  Biso   1.000  N
  N13      1.0000 0.86478  0.21130  0.41192  Biso   1.000  N
  N14      1.0000 0.13522  0.21130  0.08808  Biso   1.000  N
  N15      1.0000 0.36478  0.71130  0.41192  Biso   1.000  N
  N16      1.0000 0.63522  0.71130  0.08808  Biso   1.000  N
  C9       1.0000 0.19976  0.37730  0.63220  Biso   1.000  C
  C10      1.0000 0.80024  0.37730  0.86780  Biso   1.000  C
  C11      1.0000 0.69976  0.87730  0.63220  Biso   1.000  C
  C12      1.0000 0.30024  0.87730  0.86780  Biso   1.000  C
  C13      1.0000 0.80024  0.62270  0.36780  Biso   1.000  C
  C14      1.0000 0.19976  0.62270  0.13220  Biso   1.000  C
  C15      1.0000 0.30024  0.12270  0.36780  Biso   1.000  C
  C16      1.0000 0.69976  0.12270  0.13220  Biso   1.000  C
  N17      1.0000 0.13316  0.95500  0.65377  Biso   1.000  N
  N18      1.0000 0.86684  0.95500  0.84623  Biso   1.000  N
  N19      1.0000 0.63316  0.45500  0.65377  Biso   1.000  N
  N20      1.0000 0.36684  0.45500  0.84623  Biso   1.000  N
  N21      1.0000 0.86684  0.04500  0.34623  Biso   1.000  N
  N22      1.0000 0.13316  0.04500  0.15377  Biso   1.000  N
  N23      1.0000 0.36684  0.54500  0.34623  Biso   1.000  N
  N24      1.0000 0.63316  0.54500  0.15377  Biso   1.000  N
  O17      1.0000 0.06821  0.37640  0.41136  Biso   1.000  O
  O18      1.0000 0.93179  0.37640  0.08864  Biso   1.000  O
  O19      1.0000 0.56821  0.87640  0.41136  Biso   1.000  O
  O20      1.0000 0.43179  0.87640  0.08864  Biso   1.000  O
  O21      1.0000 0.93179  0.62360  0.58864  Biso   1.000  O
  O22      1.0000 0.06821  0.62360  0.91136  Biso   1.000  O
  O23      1.0000 0.43179  0.12360  0.58864  Biso   1.000  O
  O24      1.0000 0.56821  0.12360  0.91136  Biso   1.000  O
  C17      1.0000 0.07025  0.87220  0.47123  Biso   1.000  C
  C18      1.0000 0.92975  0.87220  0.02877  Biso   1.000  C
  C19      1.0000 0.57025  0.37220  0.47123  Biso   1.000  C
  C20      1.0000 0.42975  0.37220  0.02877  Biso   1.000  C
  C21      1.0000 0.92975  0.12780  0.52877  Biso   1.000  C
  C22      1.0000 0.07025  0.12780  0.97123  Biso   1.000  C
  C23      1.0000 0.42975  0.62780  0.52877  Biso   1.000  C
  C24      1.0000 0.57025  0.62780  0.97123  Biso   1.000  C
  H1       1.0000 0.07100  0.80330  0.44340  Biso   1.000  H
  H2       1.0000 0.92900  0.80330  0.05660  Biso   1.000  H
  H3       1.0000 0.57100  0.30330  0.44340  Biso   1.000  H
  H4       1.0000 0.42900  0.30330  0.05660  Biso   1.000  H
  H5       1.0000 0.92900  0.19670  0.55660  Biso   1.000  H
  H6       1.0000 0.07100  0.19670  0.94340  Biso   1.000  H
  H7       1.0000 0.42900  0.69670  0.55660  Biso   1.000  H
  H8       1.0000 0.57100  0.69670  0.94340  Biso   1.000  H
  N25      1.0000 0.17824  0.18760  0.92007  Biso   1.000  N
  N26      1.0000 0.82176  0.18760  0.57993  Biso   1.000  N
  N27      1.0000 0.67824  0.68760  0.92007  Biso   1.000  N
  N28      1.0000 0.32176  0.68760  0.57993  Biso   1.000  N
  N29      1.0000 0.82176  0.81240  0.07993  Biso   1.000  N
  N30      1.0000 0.17824  0.81240  0.42007  Biso   1.000  N
  N31      1.0000 0.32176  0.31240  0.07993  Biso   1.000  N
  N32      1.0000 0.67824  0.31240  0.42007  Biso   1.000  N
  C25      1.0000 0.15383  0.84230  0.65260  Biso   1.000  C
  C26      1.0000 0.84617  0.84230  0.84740  Biso   1.000  C
  C27      1.0000 0.65383  0.34230  0.65260  Biso   1.000  C
  C28      1.0000 0.34617  0.34230  0.84740  Biso   1.000  C
  C29      1.0000 0.84617  0.15770  0.34740  Biso   1.000  C
  C30      1.0000 0.15383  0.15770  0.15260  Biso   1.000  C
  C31      1.0000 0.34617  0.65770  0.34740  Biso   1.000  C
  C32      1.0000 0.65383  0.65770  0.15260  Biso   1.000  C
  H9       1.0000 0.17840  0.80600  0.69260  Biso   1.000  H
  H10      1.0000 0.82160  0.80600  0.80740  Biso   1.000  H
  H11      1.0000 0.67840  0.30600  0.69260  Biso   1.000  H
  H12      1.0000 0.32160  0.30600  0.80740  Biso   1.000  H
  H13      1.0000 0.82160  0.19400  0.30740  Biso   1.000  H
  H14      1.0000 0.17840  0.19400  0.19260  Biso   1.000  H
  H15      1.0000 0.32160  0.69400  0.30740  Biso   1.000  H
  H16      1.0000 0.67840  0.69400  0.19260  Biso   1.000  H
  C33      1.0000 0.09838  0.97800  0.58462  Biso   1.000  C
  C34      1.0000 0.90162  0.97800  0.91538  Biso   1.000  C
  C35      1.0000 0.59838  0.47800  0.58462  Biso   1.000  C
  C36      1.0000 0.40162  0.47800  0.91538  Biso   1.000  C
  C37      1.0000 0.90162  0.02200  0.41538  Biso   1.000  C
  C38      1.0000 0.09838  0.02200  0.08462  Biso   1.000  C
  C39      1.0000 0.40162  0.52200  0.41538  Biso   1.000  C
  C40      1.0000 0.59838  0.52200  0.08462  Biso   1.000  C
  C41      1.0000 0.09769  0.43330  0.46410  Biso   1.000  C
  C42      1.0000 0.90231  0.43330  0.03590  Biso   1.000  C
  C43      1.0000 0.59769  0.93330  0.46410  Biso   1.000  C
  C44      1.0000 0.40231  0.93330  0.03590  Biso   1.000  C
  C45      1.0000 0.90231  0.56670  0.53590  Biso   1.000  C
  C46      1.0000 0.09769  0.56670  0.96410  Biso   1.000  C
  C47      1.0000 0.40231  0.06670  0.53590  Biso   1.000  C
  C48      1.0000 0.59769  0.06670  0.96410  Biso   1.000  C
  C49      1.0000 0.12663  0.96530  0.75714  Biso   1.000  C
  C50      1.0000 0.87337  0.96530  0.74286  Biso   1.000  C
  C51      1.0000 0.62663  0.46530  0.75714  Biso   1.000  C
  C52      1.0000 0.37337  0.46530  0.74286  Biso   1.000  C
  C53      1.0000 0.87337  0.03470  0.24286  Biso   1.000  C
  C54      1.0000 0.12663  0.03470  0.25714  Biso   1.000  C
  C55      1.0000 0.37337  0.53470  0.24286  Biso   1.000  C
  C56      1.0000 0.62663  0.53470  0.25714  Biso   1.000  C
  C57      1.0000 0.13544  0.34960  0.52165  Biso   1.000  C
  C58      1.0000 0.86456  0.34960  0.97835  Biso   1.000  C
  C59      1.0000 0.63544  0.84960  0.52165  Biso   1.000  C
  C60      1.0000 0.36456  0.84960  0.97835  Biso   1.000  C
  C61      1.0000 0.86456  0.65040  0.47835  Biso   1.000  C
  C62      1.0000 0.13544  0.65040  0.02165  Biso   1.000  C
  C63      1.0000 0.36456  0.15040  0.47835  Biso   1.000  C
  C64      1.0000 0.63544  0.15040  0.02165  Biso   1.000  C
  C65      1.0000 0.21127  0.12260  0.97830  Biso   1.000  C
  C66      1.0000 0.78873  0.12260  0.52170  Biso   1.000  C
  C67      1.0000 0.71127  0.62260  0.97830  Biso   1.000  C
  C68      1.0000 0.28873  0.62260  0.52170  Biso   1.000  C
  C69      1.0000 0.78873  0.87740  0.02170  Biso   1.000  C
  C70      1.0000 0.21127  0.87740  0.47830  Biso   1.000  C
  C71      1.0000 0.28873  0.37740  0.02170  Biso   1.000  C
  C72      1.0000 0.71127  0.37740  0.47830  Biso   1.000  C
  C73      1.0000 0.17739  0.15350  0.58510  Biso   1.000  C
  C74      1.0000 0.82261  0.15350  0.91490  Biso   1.000  C
  C75      1.0000 0.67739  0.65350  0.58510  Biso   1.000  C
  C76      1.0000 0.32261  0.65350  0.91490  Biso   1.000  C
  C77      1.0000 0.82261  0.84650  0.41490  Biso   1.000  C
  C78      1.0000 0.17739  0.84650  0.08510  Biso   1.000  C
  C79      1.0000 0.32261  0.34650  0.41490  Biso   1.000  C
  C80      1.0000 0.67739  0.34650  0.08510  Biso   1.000  C
  H17      1.0000 0.18210  0.05930  0.58830  Biso   1.000  H
  H18      1.0000 0.81790  0.05930  0.91170  Biso   1.000  H
  H19      1.0000 0.68210  0.55930  0.58830  Biso   1.000  H
  H20      1.0000 0.31790  0.55930  0.91170  Biso   1.000  H
  H21      1.0000 0.81790  0.94070  0.41170  Biso   1.000  H
  H22      1.0000 0.18210  0.94070  0.08830  Biso   1.000  H
  H23      1.0000 0.31790  0.44070  0.41170  Biso   1.000  H
  H24      1.0000 0.68210  0.44070  0.08830  Biso   1.000  H
  O25      1.0000 0.26049  0.46030  0.73996  Biso   1.000  O
  O26      1.0000 0.73951  0.46030  0.76004  Biso   1.000  O
  O27      1.0000 0.76049  0.96030  0.73996  Biso   1.000  O
  O28      1.0000 0.23951  0.96030  0.76004  Biso   1.000  O
  O29      1.0000 0.73951  0.53970  0.26004  Biso   1.000  O
  O30      1.0000 0.26049  0.53970  0.23996  Biso   1.000  O
  O31      1.0000 0.23951  0.03970  0.26004  Biso   1.000  O
  O32      1.0000 0.76049  0.03970  0.23996  Biso   1.000  O
  C81      1.0000 0.21314  0.17880  0.03650  Biso   1.000  C
  C82      1.0000 0.78686  0.17880  0.46350  Biso   1.000  C
  C83      1.0000 0.71314  0.67880  0.03650  Biso   1.000  C
  C84      1.0000 0.28686  0.67880  0.46350  Biso   1.000  C
  C85      1.0000 0.78686  0.82120  0.96350  Biso   1.000  C
  C86      1.0000 0.21314  0.82120  0.53650  Biso   1.000  C
  C87      1.0000 0.28686  0.32120  0.96350  Biso   1.000  C
  C88      1.0000 0.71314  0.32120  0.53650  Biso   1.000  C
  C89      1.0000 0.06663  0.07910  0.55420  Biso   1.000  C
  C90      1.0000 0.93337  0.07910  0.94580  Biso   1.000  C
  C91      1.0000 0.56663  0.57910  0.55420  Biso   1.000  C
  C92      1.0000 0.43337  0.57910  0.94580  Biso   1.000  C
  C93      1.0000 0.93337  0.92090  0.44580  Biso   1.000  C
  C94      1.0000 0.06663  0.92090  0.05420  Biso   1.000  C
  C95      1.0000 0.43337  0.42090  0.44580  Biso   1.000  C
  C96      1.0000 0.56663  0.42090  0.05420  Biso   1.000  C
  H25      1.0000 0.06530  0.14640  0.58220  Biso   1.000  H
  H26      1.0000 0.93470  0.14640  0.91780  Biso   1.000  H
  H27      1.0000 0.56530  0.64640  0.58220  Biso   1.000  H
  H28      1.0000 0.43470  0.64640  0.91780  Biso   1.000  H
  H29      1.0000 0.93470  0.85360  0.41780  Biso   1.000  H
  H30      1.0000 0.06530  0.85360  0.08220  Biso   1.000  H
  H31      1.0000 0.43470  0.35360  0.41780  Biso   1.000  H
  H32      1.0000 0.56530  0.35360  0.08220  Biso   1.000  H
  C97      1.0000 0.14438  0.03080  0.71730  Biso   1.000  C
  C98      1.0000 0.85562  0.03080  0.78270  Biso   1.000  C
  C99      1.0000 0.64438  0.53080  0.71730  Biso   1.000  C
  C100     1.0000 0.35562  0.53080  0.78270  Biso   1.000  C
  C101     1.0000 0.85562  0.96920  0.28270  Biso   1.000  C
  C102     1.0000 0.14438  0.96920  0.21730  Biso   1.000  C
  C103     1.0000 0.35562  0.46920  0.28270  Biso   1.000  C
  C104     1.0000 0.64438  0.46920  0.21730  Biso   1.000  C
  H33      1.0000 0.13320  0.12350  0.70400  Biso   1.000  H
  H34      1.0000 0.86680  0.12350  0.79600  Biso   1.000  H
  H35      1.0000 0.63320  0.62350  0.70400  Biso   1.000  H
  H36      1.0000 0.36680  0.62350  0.79600  Biso   1.000  H
  H37      1.0000 0.86680  0.87650  0.29600  Biso   1.000  H
  H38      1.0000 0.13320  0.87650  0.20400  Biso   1.000  H
  H39      1.0000 0.36680  0.37650  0.29600  Biso   1.000  H
  H40      1.0000 0.63320  0.37650  0.20400  Biso   1.000  H
  H41      1.0000 0.17560  0.03650  0.74850  Biso   1.000  H
  H42      1.0000 0.82440  0.03650  0.75150  Biso   1.000  H
  H43      1.0000 0.67560  0.53650  0.74850  Biso   1.000  H
  H44      1.0000 0.32440  0.53650  0.75150  Biso   1.000  H
  H45      1.0000 0.82440  0.96350  0.25150  Biso   1.000  H
  H46      1.0000 0.17560  0.96350  0.24850  Biso   1.000  H
  H47      1.0000 0.32440  0.46350  0.25150  Biso   1.000  H
  H48      1.0000 0.67560  0.46350  0.24850  Biso   1.000  H
  C105     1.0000 0.24456  0.13450  0.10470  Biso   1.000  C
  C106     1.0000 0.75544  0.13450  0.39530  Biso   1.000  C
  C107     1.0000 0.74456  0.63450  0.10470  Biso   1.000  C
  C108     1.0000 0.25544  0.63450  0.39530  Biso   1.000  C
  C109     1.0000 0.75544  0.86550  0.89530  Biso   1.000  C
  C110     1.0000 0.24456  0.86550  0.60470  Biso   1.000  C
  C111     1.0000 0.25544  0.36550  0.89530  Biso   1.000  C
  C112     1.0000 0.74456  0.36550  0.60470  Biso   1.000  C
  H49      1.0000 0.24620  0.17330  0.14380  Biso   1.000  H
  H50      1.0000 0.75380  0.17330  0.35620  Biso   1.000  H
  H51      1.0000 0.74620  0.67330  0.14380  Biso   1.000  H
  H52      1.0000 0.25380  0.67330  0.35620  Biso   1.000  H
  H53      1.0000 0.75380  0.82670  0.85620  Biso   1.000  H
  H54      1.0000 0.24620  0.82670  0.64380  Biso   1.000  H
  H55      1.0000 0.25380  0.32670  0.85620  Biso   1.000  H
  H56      1.0000 0.74620  0.32670  0.64380  Biso   1.000  H
  C113     1.0000 0.03764  0.07760  0.48280  Biso   1.000  C
  C114     1.0000 0.96236  0.07760  0.01720  Biso   1.000  C
  C115     1.0000 0.53764  0.57760  0.48280  Biso   1.000  C
  C116     1.0000 0.46236  0.57760  0.01720  Biso   1.000  C
  C117     1.0000 0.96236  0.92240  0.51720  Biso   1.000  C
  C118     1.0000 0.03764  0.92240  0.98280  Biso   1.000  C
  C119     1.0000 0.46236  0.42240  0.51720  Biso   1.000  C
  C120     1.0000 0.53764  0.42240  0.98280  Biso   1.000  C
  C121     1.0000 0.13522  0.02780  0.81935  Biso   1.000  C
  C122     1.0000 0.86478  0.02780  0.68065  Biso   1.000  C
  C123     1.0000 0.63522  0.52780  0.81935  Biso   1.000  C
  C124     1.0000 0.36478  0.52780  0.68065  Biso   1.000  C
  C125     1.0000 0.86478  0.97220  0.18065  Biso   1.000  C
  C126     1.0000 0.13522  0.97220  0.31935  Biso   1.000  C
  C127     1.0000 0.36478  0.47220  0.18065  Biso   1.000  C
  C128     1.0000 0.63522  0.47220  0.31935  Biso   1.000  C
  C129     1.0000 0.22691  0.48930  0.68490  Biso   1.000  C
  C130     1.0000 0.77309  0.48930  0.81510  Biso   1.000  C
  C131     1.0000 0.72691  0.98930  0.68490  Biso   1.000  C
  C132     1.0000 0.27309  0.98930  0.81510  Biso   1.000  C
  C133     1.0000 0.77309  0.51070  0.31510  Biso   1.000  C
  C134     1.0000 0.22691  0.51070  0.18490  Biso   1.000  C
  C135     1.0000 0.27309  0.01070  0.31510  Biso   1.000  C
  C136     1.0000 0.72691  0.01070  0.18490  Biso   1.000  C
  C137     1.0000 0.03929  0.97310  0.44070  Biso   1.000  C
  C138     1.0000 0.96071  0.97310  0.05930  Biso   1.000  C
  C139     1.0000 0.53929  0.47310  0.44070  Biso   1.000  C
  C140     1.0000 0.46071  0.47310  0.05930  Biso   1.000  C
  C141     1.0000 0.96071  0.02690  0.55930  Biso   1.000  C
  C142     1.0000 0.03929  0.02690  0.94070  Biso   1.000  C
  C143     1.0000 0.46071  0.52690  0.55930  Biso   1.000  C
  C144     1.0000 0.53929  0.52690  0.94070  Biso   1.000  C
  C145     1.0000 0.16106  0.27840  0.94340  Biso   1.000  C
  C146     1.0000 0.83894  0.27840  0.55660  Biso   1.000  C
  C147     1.0000 0.66106  0.77840  0.94340  Biso   1.000  C
  C148     1.0000 0.33894  0.77840  0.55660  Biso   1.000  C
  C149     1.0000 0.83894  0.72160  0.05660  Biso   1.000  C
  C150     1.0000 0.16106  0.72160  0.44340  Biso   1.000  C
  C151     1.0000 0.33894  0.22160  0.05660  Biso   1.000  C
  C152     1.0000 0.66106  0.22160  0.44340  Biso   1.000  C
  H57      1.0000 0.13770  0.33500  0.91350  Biso   1.000  H
  H58      1.0000 0.86230  0.33500  0.58650  Biso   1.000  H
  H59      1.0000 0.63770  0.83500  0.91350  Biso   1.000  H
  H60      1.0000 0.36230  0.83500  0.58650  Biso   1.000  H
  H61      1.0000 0.86230  0.66500  0.08650  Biso   1.000  H
  H62      1.0000 0.13770  0.66500  0.41350  Biso   1.000  H
  H63      1.0000 0.36230  0.16500  0.08650  Biso   1.000  H
  H64      1.0000 0.63770  0.16500  0.41350  Biso   1.000  H
  C153     1.0000 0.14070  0.20890  0.52550  Biso   1.000  C
  C154     1.0000 0.85930  0.20890  0.97450  Biso   1.000  C
  C155     1.0000 0.64070  0.70890  0.52550  Biso   1.000  C
  C156     1.0000 0.35930  0.70890  0.97450  Biso   1.000  C
  C157     1.0000 0.85930  0.79110  0.47450  Biso   1.000  C
  C158     1.0000 0.14070  0.79110  0.02550  Biso   1.000  C
  C159     1.0000 0.35930  0.29110  0.47450  Biso   1.000  C
  C160     1.0000 0.64070  0.29110  0.02550  Biso   1.000  C
  H65      1.0000 0.12020  0.15260  0.48910  Biso   1.000  H
  H66      1.0000 0.87980  0.15260  0.01090  Biso   1.000  H
  H67      1.0000 0.62020  0.65260  0.48910  Biso   1.000  H
  H68      1.0000 0.37980  0.65260  0.01090  Biso   1.000  H
  H69      1.0000 0.87980  0.84740  0.51090  Biso   1.000  H
  H70      1.0000 0.12020  0.84740  0.98910  Biso   1.000  H
  H71      1.0000 0.37980  0.34740  0.51090  Biso   1.000  H
  H72      1.0000 0.62020  0.34740  0.98910  Biso   1.000  H
  C161     1.0000 0.20676  0.23860  0.63950  Biso   1.000  C
  C162     1.0000 0.79324  0.23860  0.86050  Biso   1.000  C
  C163     1.0000 0.70676  0.73860  0.63950  Biso   1.000  C
  C164     1.0000 0.29324  0.73860  0.86050  Biso   1.000  C
  C165     1.0000 0.79324  0.76140  0.36050  Biso   1.000  C
  C166     1.0000 0.20676  0.76140  0.13950  Biso   1.000  C
  C167     1.0000 0.29324  0.26140  0.36050  Biso   1.000  C
  C168     1.0000 0.70676  0.26140  0.13950  Biso   1.000  C
  H73      1.0000 0.23080  0.20240  0.68030  Biso   1.000  H
  H74      1.0000 0.76920  0.20240  0.81970  Biso   1.000  H
  H75      1.0000 0.73080  0.70240  0.68030  Biso   1.000  H
  H76      1.0000 0.26920  0.70240  0.81970  Biso   1.000  H
  H77      1.0000 0.76920  0.79760  0.31970  Biso   1.000  H
  H78      1.0000 0.23080  0.79760  0.18030  Biso   1.000  H
  H79      1.0000 0.26920  0.29760  0.31970  Biso   1.000  H
  H80      1.0000 0.73080  0.29760  0.18030  Biso   1.000  H
  C169     1.0000 0.23981  0.02050  0.98680  Biso   1.000  C
  C170     1.0000 0.76019  0.02050  0.51320  Biso   1.000  C
  C171     1.0000 0.73981  0.52050  0.98680  Biso   1.000  C
  C172     1.0000 0.26019  0.52050  0.51320  Biso   1.000  C
  C173     1.0000 0.76019  0.97950  0.01320  Biso   1.000  C
  C174     1.0000 0.23981  0.97950  0.48680  Biso   1.000  C
  C175     1.0000 0.26019  0.47950  0.01320  Biso   1.000  C
  C176     1.0000 0.73981  0.47950  0.48680  Biso   1.000  C
  H81      1.0000 0.23820  0.98290  0.94760  Biso   1.000  H
  H82      1.0000 0.76180  0.98290  0.55240  Biso   1.000  H
  H83      1.0000 0.73820  0.48290  0.94760  Biso   1.000  H
  H84      1.0000 0.26180  0.48290  0.55240  Biso   1.000  H
  H85      1.0000 0.76180  0.01710  0.05240  Biso   1.000  H
  H86      1.0000 0.23820  0.01710  0.44760  Biso   1.000  H
  H87      1.0000 0.26180  0.51710  0.05240  Biso   1.000  H
  H88      1.0000 0.73820  0.51710  0.44760  Biso   1.000  H
  C177     1.0000 0.10222  0.84740  0.73380  Biso   1.000  C
  C178     1.0000 0.89778  0.84740  0.76620  Biso   1.000  C
  C179     1.0000 0.60222  0.34740  0.73380  Biso   1.000  C
  C180     1.0000 0.39778  0.34740  0.76620  Biso   1.000  C
  C181     1.0000 0.89778  0.15260  0.26620  Biso   1.000  C
  C182     1.0000 0.10222  0.15260  0.23380  Biso   1.000  C
  C183     1.0000 0.39778  0.65260  0.26620  Biso   1.000  C
  C184     1.0000 0.60222  0.65260  0.23380  Biso   1.000  C
  H89      1.0000 0.09690  0.80470  0.69280  Biso   1.000  H
  H90      1.0000 0.90310  0.80470  0.80720  Biso   1.000  H
  H91      1.0000 0.59690  0.30470  0.69280  Biso   1.000  H
  H92      1.0000 0.40310  0.30470  0.80720  Biso   1.000  H
  H93      1.0000 0.90310  0.19530  0.30720  Biso   1.000  H
  H94      1.0000 0.09690  0.19530  0.19280  Biso   1.000  H
  H95      1.0000 0.40310  0.69530  0.30720  Biso   1.000  H
  H96      1.0000 0.59690  0.69530  0.19280  Biso   1.000  H
  C185     1.0000 0.27287  0.03420  0.11400  Biso   1.000  C
  C186     1.0000 0.72713  0.03420  0.38600  Biso   1.000  C
  C187     1.0000 0.77287  0.53420  0.11400  Biso   1.000  C
  C188     1.0000 0.22713  0.53420  0.38600  Biso   1.000  C
  C189     1.0000 0.72713  0.96580  0.88600  Biso   1.000  C
  C190     1.0000 0.27287  0.96580  0.61400  Biso   1.000  C
  C191     1.0000 0.22713  0.46580  0.88600  Biso   1.000  C
  C192     1.0000 0.77287  0.46580  0.61400  Biso   1.000  C
  C193     1.0000 0.08552  0.79120  0.76990  Biso   1.000  C
  C194     1.0000 0.91448  0.79120  0.73010  Biso   1.000  C
  C195     1.0000 0.58552  0.29120  0.76990  Biso   1.000  C
  C196     1.0000 0.41448  0.29120  0.73010  Biso   1.000  C
  C197     1.0000 0.91448  0.20880  0.23010  Biso   1.000  C
  C198     1.0000 0.08552  0.20880  0.26990  Biso   1.000  C
  C199     1.0000 0.41448  0.70880  0.23010  Biso   1.000  C
  C200     1.0000 0.58552  0.70880  0.26990  Biso   1.000  C
  H97      1.0000 0.06930  0.71090  0.75350  Biso   1.000  H
  H98      1.0000 0.93070  0.71090  0.74650  Biso   1.000  H
  H99      1.0000 0.56930  0.21090  0.75350  Biso   1.000  H
  H100     1.0000 0.43070  0.21090  0.74650  Biso   1.000  H
  H101     1.0000 0.93070  0.28910  0.24650  Biso   1.000  H
  H102     1.0000 0.06930  0.28910  0.25350  Biso   1.000  H
  H103     1.0000 0.43070  0.78910  0.24650  Biso   1.000  H
  H104     1.0000 0.56930  0.78910  0.25350  Biso   1.000  H
  C201     1.0000 0.11752  0.97110  0.85400  Biso   1.000  C
  C202     1.0000 0.88248  0.97110  0.64600  Biso   1.000  C
  C203     1.0000 0.61752  0.47110  0.85400  Biso   1.000  C
  C204     1.0000 0.38248  0.47110  0.64600  Biso   1.000  C
  C205     1.0000 0.88248  0.02890  0.14600  Biso   1.000  C
  C206     1.0000 0.11752  0.02890  0.35400  Biso   1.000  C
  C207     1.0000 0.38248  0.52890  0.14600  Biso   1.000  C
  C208     1.0000 0.61752  0.52890  0.35400  Biso   1.000  C
  H105     1.0000 0.12240  0.01330  0.89480  Biso   1.000  H
  H106     1.0000 0.87760  0.01330  0.60520  Biso   1.000  H
  H107     1.0000 0.62240  0.51330  0.89480  Biso   1.000  H
  H108     1.0000 0.37760  0.51330  0.60520  Biso   1.000  H
  H109     1.0000 0.87760  0.98670  0.10520  Biso   1.000  H
  H110     1.0000 0.12240  0.98670  0.39480  Biso   1.000  H
  H111     1.0000 0.37760  0.48670  0.10520  Biso   1.000  H
  H112     1.0000 0.62240  0.48670  0.39480  Biso   1.000  H
  C209     1.0000 0.09274  0.85340  0.82960  Biso   1.000  C
  C210     1.0000 0.90726  0.85340  0.67040  Biso   1.000  C
  C211     1.0000 0.59274  0.35340  0.82960  Biso   1.000  C
  C212     1.0000 0.40726  0.35340  0.67040  Biso   1.000  C
  C213     1.0000 0.90726  0.14660  0.17040  Biso   1.000  C
  C214     1.0000 0.09274  0.14660  0.32960  Biso   1.000  C
  C215     1.0000 0.40726  0.64660  0.17040  Biso   1.000  C
  C216     1.0000 0.59274  0.64660  0.32960  Biso   1.000  C
  H113     1.0000 0.08110  0.81690  0.85370  Biso   1.000  H
  H114     1.0000 0.91890  0.81690  0.64630  Biso   1.000  H
  H115     1.0000 0.58110  0.31690  0.85370  Biso   1.000  H
  H116     1.0000 0.41890  0.31690  0.64630  Biso   1.000  H
  H117     1.0000 0.91890  0.18310  0.14630  Biso   1.000  H
  H118     1.0000 0.08110  0.18310  0.35370  Biso   1.000  H
  H119     1.0000 0.41890  0.68310  0.14630  Biso   1.000  H
  H120     1.0000 0.58110  0.68310  0.35370  Biso   1.000  H
  C217     1.0000 0.27079  0.97520  0.05480  Biso   1.000  C
  C218     1.0000 0.72921  0.97520  0.44520  Biso   1.000  C
  C219     1.0000 0.77079  0.47520  0.05480  Biso   1.000  C
  C220     1.0000 0.22921  0.47520  0.44520  Biso   1.000  C
  C221     1.0000 0.72921  0.02480  0.94520  Biso   1.000  C
  C222     1.0000 0.27079  0.02480  0.55480  Biso   1.000  C
  C223     1.0000 0.22921  0.52480  0.94520  Biso   1.000  C
  C224     1.0000 0.77079  0.52480  0.55480  Biso   1.000  C
  C225     1.0000 0.00677  0.97220  0.36080  Biso   1.000  C
  C226     1.0000 0.99323  0.97220  0.13920  Biso   1.000  C
  C227     1.0000 0.50677  0.47220  0.36080  Biso   1.000  C
  C228     1.0000 0.49323  0.47220  0.13920  Biso   1.000  C
  C229     1.0000 0.99323  0.02780  0.63920  Biso   1.000  C
  C230     1.0000 0.00677  0.02780  0.86080  Biso   1.000  C
  C231     1.0000 0.49323  0.52780  0.63920  Biso   1.000  C
  C232     1.0000 0.50677  0.52780  0.86080  Biso   1.000  C
  H121     1.0000 0.97810  0.96320  0.35070  Biso   1.000  H
  H122     1.0000 0.02190  0.96320  0.14930  Biso   1.000  H
  H123     1.0000 0.47810  0.46320  0.35070  Biso   1.000  H
  H124     1.0000 0.52190  0.46320  0.14930  Biso   1.000  H
  H125     1.0000 0.02190  0.03680  0.64930  Biso   1.000  H
  H126     1.0000 0.97810  0.03680  0.85070  Biso   1.000  H
  H127     1.0000 0.52190  0.53680  0.64930  Biso   1.000  H
  H128     1.0000 0.47810  0.53680  0.85070  Biso   1.000  H
  H129     1.0000 0.01270  0.89630  0.34030  Biso   1.000  H
  H130     1.0000 0.98730  0.89630  0.15970  Biso   1.000  H
  H131     1.0000 0.51270  0.39630  0.34030  Biso   1.000  H
  H132     1.0000 0.48730  0.39630  0.15970  Biso   1.000  H
  H133     1.0000 0.98730  0.10370  0.65970  Biso   1.000  H
  H134     1.0000 0.01270  0.10370  0.84030  Biso   1.000  H
  H135     1.0000 0.48730  0.60370  0.65970  Biso   1.000  H
  H136     1.0000 0.51270  0.60370  0.84030  Biso   1.000  H
  H137     1.0000 0.00890  0.05640  0.34090  Biso   1.000  H
  H138     1.0000 0.99110  0.05640  0.15910  Biso   1.000  H
  H139     1.0000 0.50890  0.55640  0.34090  Biso   1.000  H
  H140     1.0000 0.49110  0.55640  0.15910  Biso   1.000  H
  H141     1.0000 0.99110  0.94360  0.65910  Biso   1.000  H
  H142     1.0000 0.00890  0.94360  0.84090  Biso   1.000  H
  H143     1.0000 0.49110  0.44360  0.65910  Biso   1.000  H
  H144     1.0000 0.50890  0.44360  0.84090  Biso   1.000  H
  C233     1.0000 0.16184  0.15650  0.84560  Biso   1.000  C
  C234     1.0000 0.83816  0.15650  0.65440  Biso   1.000  C
  C235     1.0000 0.66184  0.65650  0.84560  Biso   1.000  C
  C236     1.0000 0.33816  0.65650  0.65440  Biso   1.000  C
  C237     1.0000 0.83816  0.84350  0.15440  Biso   1.000  C
  C238     1.0000 0.16184  0.84350  0.34560  Biso   1.000  C
  C239     1.0000 0.33816  0.34350  0.15440  Biso   1.000  C
  C240     1.0000 0.66184  0.34350  0.34560  Biso   1.000  C
  H145     1.0000 0.18610  0.14720  0.84050  Biso   1.000  H
  H146     1.0000 0.81390  0.14720  0.65950  Biso   1.000  H
  H147     1.0000 0.68610  0.64720  0.84050  Biso   1.000  H
  H148     1.0000 0.31390  0.64720  0.65950  Biso   1.000  H
  H149     1.0000 0.81390  0.85280  0.15950  Biso   1.000  H
  H150     1.0000 0.18610  0.85280  0.34050  Biso   1.000  H
  H151     1.0000 0.31390  0.35280  0.15950  Biso   1.000  H
  H152     1.0000 0.68610  0.35280  0.34050  Biso   1.000  H
  H153     1.0000 0.14440  0.23290  0.81620  Biso   1.000  H
  H154     1.0000 0.85560  0.23290  0.68380  Biso   1.000  H
  H155     1.0000 0.64440  0.73290  0.81620  Biso   1.000  H
  H156     1.0000 0.35560  0.73290  0.68380  Biso   1.000  H
  H157     1.0000 0.85560  0.76710  0.18380  Biso   1.000  H
  H158     1.0000 0.14440  0.76710  0.31620  Biso   1.000  H
  H159     1.0000 0.35560  0.26710  0.18380  Biso   1.000  H
  H160     1.0000 0.64440  0.26710  0.31620  Biso   1.000  H
  C241     1.0000 0.00353  0.18920  0.44870  Biso   1.000  C
  C242     1.0000 0.99647  0.18920  0.05130  Biso   1.000  C
  C243     1.0000 0.50353  0.68920  0.44870  Biso   1.000  C
  C244     1.0000 0.49647  0.68920  0.05130  Biso   1.000  C
  C245     1.0000 0.99647  0.81080  0.55130  Biso   1.000  C
  C246     1.0000 0.00353  0.81080  0.94870  Biso   1.000  C
  C247     1.0000 0.49647  0.31080  0.55130  Biso   1.000  C
  C248     1.0000 0.50353  0.31080  0.94870  Biso   1.000  C
  H161     1.0000 0.00720  0.25160  0.48460  Biso   1.000  H
  H162     1.0000 0.99280  0.25160  0.01540  Biso   1.000  H
  H163     1.0000 0.50720  0.75160  0.48460  Biso   1.000  H
  H164     1.0000 0.49280  0.75160  0.01540  Biso   1.000  H
  H165     1.0000 0.99280  0.74840  0.51540  Biso   1.000  H
  H166     1.0000 0.00720  0.74840  0.98460  Biso   1.000  H
  H167     1.0000 0.49280  0.24840  0.51540  Biso   1.000  H
  H168     1.0000 0.50720  0.24840  0.98460  Biso   1.000  H
  H169     1.0000 0.97530  0.14840  0.42530  Biso   1.000  H
  H170     1.0000 0.02470  0.14840  0.07470  Biso   1.000  H
  H171     1.0000 0.47530  0.64840  0.42530  Biso   1.000  H
  H172     1.0000 0.52470  0.64840  0.07470  Biso   1.000  H
  H173     1.0000 0.02470  0.85160  0.57470  Biso   1.000  H
  H174     1.0000 0.97530  0.85160  0.92530  Biso   1.000  H
  H175     1.0000 0.52470  0.35160  0.57470  Biso   1.000  H
  H176     1.0000 0.47530  0.35160  0.92530  Biso   1.000  H
  H177     1.0000 0.00640  0.23810  0.41460  Biso   1.000  H
  H178     1.0000 0.99360  0.23810  0.08540  Biso   1.000  H
  H179     1.0000 0.50640  0.73810  0.41460  Biso   1.000  H
  H180     1.0000 0.49360  0.73810  0.08540  Biso   1.000  H
  H181     1.0000 0.99360  0.76190  0.58540  Biso   1.000  H
  H182     1.0000 0.00640  0.76190  0.91460  Biso   1.000  H
  H183     1.0000 0.49360  0.26190  0.58540  Biso   1.000  H
  H184     1.0000 0.50640  0.26190  0.91460  Biso   1.000  H
  C249     1.0000 0.30275  0.86360  0.06490  Biso   1.000  C
  C250     1.0000 0.69725  0.86360  0.43510  Biso   1.000  C
  C251     1.0000 0.80275  0.36360  0.06490  Biso   1.000  C
  C252     1.0000 0.19725  0.36360  0.43510  Biso   1.000  C
  C253     1.0000 0.69725  0.13640  0.93510  Biso   1.000  C
  C254     1.0000 0.30275  0.13640  0.56490  Biso   1.000  C
  C255     1.0000 0.19725  0.63640  0.93510  Biso   1.000  C
  C256     1.0000 0.80275  0.63640  0.56490  Biso   1.000  C
  H185     1.0000 0.29710  0.83700  0.01950  Biso   1.000  H
  H186     1.0000 0.70290  0.83700  0.48050  Biso   1.000  H
  H187     1.0000 0.79710  0.33700  0.01950  Biso   1.000  H
  H188     1.0000 0.20290  0.33700  0.48050  Biso   1.000  H
  H189     1.0000 0.70290  0.16300  0.98050  Biso   1.000  H
  H190     1.0000 0.29710  0.16300  0.51950  Biso   1.000  H
  H191     1.0000 0.20290  0.66300  0.98050  Biso   1.000  H
  H192     1.0000 0.79710  0.66300  0.51950  Biso   1.000  H
  H193     1.0000 0.29950  0.78530  0.08760  Biso   1.000  H
  H194     1.0000 0.70050  0.78530  0.41240  Biso   1.000  H
  H195     1.0000 0.79950  0.28530  0.08760  Biso   1.000  H
  H196     1.0000 0.20050  0.28530  0.41240  Biso   1.000  H
  H197     1.0000 0.70050  0.21470  0.91240  Biso   1.000  H
  H198     1.0000 0.29950  0.21470  0.58760  Biso   1.000  H
  H199     1.0000 0.20050  0.71470  0.91240  Biso   1.000  H
  H200     1.0000 0.79950  0.71470  0.58760  Biso   1.000  H
  H201     1.0000 0.33170  0.89820  0.09410  Biso   1.000  H
  H202     1.0000 0.66830  0.89820  0.40590  Biso   1.000  H
  H203     1.0000 0.83170  0.39820  0.09410  Biso   1.000  H
  H204     1.0000 0.16830  0.39820  0.40590  Biso   1.000  H
  H205     1.0000 0.66830  0.10180  0.90590  Biso   1.000  H
  H206     1.0000 0.33170  0.10180  0.59410  Biso   1.000  H
  H207     1.0000 0.16830  0.60180  0.90590  Biso   1.000  H
  H208     1.0000 0.83170  0.60180  0.59410  Biso   1.000  H
  C257     1.0000 0.30711  0.98680  0.18760  Biso   1.000  C
  C258     1.0000 0.69289  0.98680  0.31240  Biso   1.000  C
  C259     1.0000 0.80711  0.48680  0.18760  Biso   1.000  C
  C260     1.0000 0.19289  0.48680  0.31240  Biso   1.000  C
  C261     1.0000 0.69289  0.01320  0.81240  Biso   1.000  C
  C262     1.0000 0.30711  0.01320  0.68760  Biso   1.000  C
  C263     1.0000 0.19289  0.51320  0.81240  Biso   1.000  C
  C264     1.0000 0.80711  0.51320  0.68760  Biso   1.000  C
  H209     1.0000 0.33520  0.00690  0.19700  Biso   1.000  H
  H210     1.0000 0.66480  0.00690  0.30300  Biso   1.000  H
  H211     1.0000 0.83520  0.50690  0.19700  Biso   1.000  H
  H212     1.0000 0.16480  0.50690  0.30300  Biso   1.000  H
  H213     1.0000 0.66480  0.99310  0.80300  Biso   1.000  H
  H214     1.0000 0.33520  0.99310  0.69700  Biso   1.000  H
  H215     1.0000 0.16480  0.49310  0.80300  Biso   1.000  H
  H216     1.0000 0.83520  0.49310  0.69700  Biso   1.000  H
  H217     1.0000 0.30440  0.88960  0.19130  Biso   1.000  H
  H218     1.0000 0.69560  0.88960  0.30870  Biso   1.000  H
  H219     1.0000 0.80440  0.38960  0.19130  Biso   1.000  H
  H220     1.0000 0.19560  0.38960  0.30870  Biso   1.000  H
  H221     1.0000 0.69560  0.11040  0.80870  Biso   1.000  H
  H222     1.0000 0.30440  0.11040  0.69130  Biso   1.000  H
  H223     1.0000 0.19560  0.61040  0.80870  Biso   1.000  H
  H224     1.0000 0.80440  0.61040  0.69130  Biso   1.000  H
  H225     1.0000 0.30360  0.03350  0.22160  Biso   1.000  H
  H226     1.0000 0.69640  0.03350  0.27840  Biso   1.000  H
  H227     1.0000 0.80360  0.53350  0.22160  Biso   1.000  H
  H228     1.0000 0.19640  0.53350  0.27840  Biso   1.000  H
  H229     1.0000 0.69640  0.96650  0.77840  Biso   1.000  H
  H230     1.0000 0.30360  0.96650  0.72160  Biso   1.000  H
  H231     1.0000 0.19640  0.46650  0.77840  Biso   1.000  H
  H232     1.0000 0.80360  0.46650  0.72160  Biso   1.000  H
  N33      1.0000 0.18074  0.27820  0.01233  Biso   1.000  N
  N34      1.0000 0.81926  0.27820  0.48767  Biso   1.000  N
  N35      1.0000 0.68074  0.77820  0.01233  Biso   1.000  N
  N36      1.0000 0.31926  0.77820  0.48767  Biso   1.000  N
  N37      1.0000 0.81926  0.72180  0.98767  Biso   1.000  N
  N38      1.0000 0.18074  0.72180  0.51233  Biso   1.000  N
  N39      1.0000 0.31926  0.22180  0.98767  Biso   1.000  N
  N40      1.0000 0.68074  0.22180  0.51233  Biso   1.000  N
