data_image0
_cell_length_a       11.0919
_cell_length_b       10.6761
_cell_length_c       12.9315
_cell_angle_alpha    90
_cell_angle_beta     114.781
_cell_angle_gamma    90

_symmetry_space_group_name_H-M    "P 1"
_symmetry_int_tables_number       1

loop_
  _symmetry_equiv_pos_as_xyz
  'x, y, z'

loop_
  _atom_site_label
  _atom_site_occupancy
  _atom_site_fract_x
  _atom_site_fract_y
  _atom_site_fract_z
  _atom_site_thermal_displace_type
  _atom_site_B_iso_or_equiv
  _atom_site_type_symbol
  Cu1      1.0000 0.89113  0.72947  0.26193  Biso   1.000  Cu
  Cu2      1.0000 0.10887  0.22947  0.73806  Biso   1.000  Cu
  O1       1.0000 0.98049  0.73027  0.43286  Biso   1.000  O
  O2       1.0000 0.01951  0.23027  0.56714  Biso   1.000  O
  O3       1.0000 0.09725  0.82957  0.59523  Biso   1.000  O
  O4       1.0000 0.90275  0.32957  0.40477  Biso   1.000  O
  C1       1.0000 0.03325  0.82717  0.48846  Biso   1.000  C
  C2       1.0000 0.96675  0.32717  0.51154  Biso   1.000  C
  C3       1.0000 0.02474  0.95043  0.42402  Biso   1.000  C
  C4       1.0000 0.97526  0.45043  0.57598  Biso   1.000  C
  H1       1.0000 0.00150  0.01950  0.46470  Biso   1.000  H
  H2       1.0000 0.99850  0.51950  0.53530  Biso   1.000  H
  O5       1.0000 0.92331  0.94265  0.31063  Biso   1.000  O
  O6       1.0000 0.07669  0.44265  0.68937  Biso   1.000  O
  H3       1.0000 0.87150  0.00050  0.30190  Biso   1.000  H
  H4       1.0000 0.12850  0.50050  0.69810  Biso   1.000  H
  C5       1.0000 0.15463  0.98320  0.41816  Biso   1.000  C
  C6       1.0000 0.84537  0.48320  0.58184  Biso   1.000  C
  C7       1.0000 0.15630  0.08790  0.35413  Biso   1.000  C
  C8       1.0000 0.84370  0.58790  0.64587  Biso   1.000  C
  H5       1.0000 0.07910  0.13860  0.32020  Biso   1.000  H
  H6       1.0000 0.92090  0.63860  0.67980  Biso   1.000  H
  C9       1.0000 0.27040  0.11870  0.33974  Biso   1.000  C
  C10      1.0000 0.72960  0.61870  0.66026  Biso   1.000  C
  H7       1.0000 0.26950  0.18940  0.29480  Biso   1.000  H
  H8       1.0000 0.73050  0.68940  0.70520  Biso   1.000  H
  C11      1.0000 0.38600  0.04740  0.39039  Biso   1.000  C
  C12      1.0000 0.61400  0.54740  0.60961  Biso   1.000  C
  H9       1.0000 0.46400  0.06820  0.38090  Biso   1.000  H
  H10      1.0000 0.53600  0.56820  0.61910  Biso   1.000  H
  C13      1.0000 0.38250  0.94558  0.45480  Biso   1.000  C
  C14      1.0000 0.61750  0.44558  0.54520  Biso   1.000  C
  C15      1.0000 0.26953  0.91203  0.47024  Biso   1.000  C
  C16      1.0000 0.73047  0.41203  0.52976  Biso   1.000  C
  H11      1.0000 0.27110  0.84160  0.51570  Biso   1.000  H
  H12      1.0000 0.72890  0.34160  0.48430  Biso   1.000  H
  Cl1      1.0000 0.52581  0.85540  0.52152  Biso   1.000  Cl
  Cl2      1.0000 0.47419  0.35540  0.47848  Biso   1.000  Cl
  O7       1.0000 0.80537  0.68820  0.09752  Biso   1.000  O
  O8       1.0000 0.19463  0.18820  0.90248  Biso   1.000  O
  O9       1.0000 0.70625  0.54806  0.96095  Biso   1.000  O
  O10      1.0000 0.29375  0.04806  0.03905  Biso   1.000  O
  C17      1.0000 0.77039  0.57763  0.06278  Biso   1.000  C
  C18      1.0000 0.22961  0.07763  0.93722  Biso   1.000  C
  C19      1.0000 0.80275  0.46958  0.14918  Biso   1.000  C
  C20      1.0000 0.19725  0.96958  0.85082  Biso   1.000  C
  H13      1.0000 0.71770  0.44050  0.15060  Biso   1.000  H
  H14      1.0000 0.28230  0.94050  0.84940  Biso   1.000  H
  O11      1.0000 0.88644  0.51413  0.25945  Biso   1.000  O
  O12      1.0000 0.11356  0.01413  0.74055  Biso   1.000  O
  H15      1.0000 0.89300  0.45850  0.30450  Biso   1.000  H
  H16      1.0000 0.10700  0.95850  0.69550  Biso   1.000  H
  C21      1.0000 0.86562  0.35915  0.11613  Biso   1.000  C
  C22      1.0000 0.13438  0.85915  0.88387  Biso   1.000  C
  C23      1.0000 0.99180  0.37067  0.11738  Biso   1.000  C
  C24      1.0000 0.00820  0.87067  0.88262  Biso   1.000  C
  H17      1.0000 0.03840  0.44780  0.13890  Biso   1.000  H
  H18      1.0000 0.96160  0.94780  0.86110  Biso   1.000  H
  C25      1.0000 0.04915  0.26972  0.08731  Biso   1.000  C
  C26      1.0000 0.95085  0.76972  0.91269  Biso   1.000  C
  H19      1.0000 0.13440  0.27880  0.08750  Biso   1.000  H
  H20      1.0000 0.86560  0.77880  0.91250  Biso   1.000  H
  C27      1.0000 0.98340  0.15537  0.05691  Biso   1.000  C
  C28      1.0000 0.01660  0.65537  0.94309  Biso   1.000  C
  H21      1.0000 0.02320  0.08580  0.03750  Biso   1.000  H
  H22      1.0000 0.97680  0.58580  0.96250  Biso   1.000  H
  C29      1.0000 0.85875  0.14571  0.05574  Biso   1.000  C
  C30      1.0000 0.14125  0.64571  0.94426  Biso   1.000  C
  C31      1.0000 0.79860  0.24536  0.08476  Biso   1.000  C
  C32      1.0000 0.20140  0.74536  0.91524  Biso   1.000  C
  H23      1.0000 0.71270  0.23600  0.08320  Biso   1.000  H
  H24      1.0000 0.28730  0.73600  0.91680  Biso   1.000  H
  Cl3      1.0000 0.77328  0.00437  0.01538  Biso   1.000  Cl
  Cl4      1.0000 0.22672  0.50437  0.98462  Biso   1.000  Cl
  N1       1.0000 0.06812  0.72998  0.25485  Biso   1.000  N
  N2       1.0000 0.93188  0.22998  0.74515  Biso   1.000  N
  C33      1.0000 0.09865  0.81593  0.19456  Biso   1.000  C
  C34      1.0000 0.90135  0.31593  0.80544  Biso   1.000  C
  H25      1.0000 0.03400  0.87720  0.15390  Biso   1.000  H
  H26      1.0000 0.96600  0.37720  0.84610  Biso   1.000  H
  C35      1.0000 0.22139  0.81946  0.18888  Biso   1.000  C
  C36      1.0000 0.77861  0.31946  0.81112  Biso   1.000  C
  H27      1.0000 0.23970  0.88260  0.14570  Biso   1.000  H
  H28      1.0000 0.76030  0.38260  0.85430  Biso   1.000  H
  C37      1.0000 0.31657  0.72980  0.24683  Biso   1.000  C
  C38      1.0000 0.68343  0.22980  0.75317  Biso   1.000  C
  C39      1.0000 0.28290  0.63969  0.30873  Biso   1.000  C
  C40      1.0000 0.71710  0.13969  0.69127  Biso   1.000  C
  H29      1.0000 0.34450  0.57600  0.34890  Biso   1.000  H
  H30      1.0000 0.65550  0.07600  0.65110  Biso   1.000  H
  C41      1.0000 0.15915  0.64381  0.31113  Biso   1.000  C
  C42      1.0000 0.84085  0.14381  0.68887  Biso   1.000  C
  H31      1.0000 0.13840  0.58280  0.35460  Biso   1.000  H
  H32      1.0000 0.86160  0.08280  0.64540  Biso   1.000  H
  C43      1.0000 0.61571  0.81727  0.19255  Biso   1.000  C
  C44      1.0000 0.38429  0.31727  0.80745  Biso   1.000  C
  H33      1.0000 0.63820  0.87570  0.14810  Biso   1.000  H
  H34      1.0000 0.36180  0.37570  0.85190  Biso   1.000  H
  C45      1.0000 0.48669  0.81775  0.18491  Biso   1.000  C
  C46      1.0000 0.51331  0.31775  0.81509  Biso   1.000  C
  H35      1.0000 0.42350  0.87630  0.13700  Biso   1.000  H
  H36      1.0000 0.57650  0.37630  0.86300  Biso   1.000  H
  C47      1.0000 0.45124  0.73170  0.24804  Biso   1.000  C
  C48      1.0000 0.54876  0.23170  0.75196  Biso   1.000  C
  C49      1.0000 0.54875  0.64910  0.31563  Biso   1.000  C
  C50      1.0000 0.45125  0.14910  0.68437  Biso   1.000  C
  H37      1.0000 0.52850  0.58760  0.35900  Biso   1.000  H
  H38      1.0000 0.47150  0.08760  0.64100  Biso   1.000  H
  C51      1.0000 0.67558  0.65570  0.32029  Biso   1.000  C
  C52      1.0000 0.32442  0.15570  0.67971  Biso   1.000  C
  H39      1.0000 0.74110  0.59910  0.36850  Biso   1.000  H
  H40      1.0000 0.25890  0.09910  0.63150  Biso   1.000  H
  N3       1.0000 0.70944  0.73811  0.25982  Biso   1.000  N
  N4       1.0000 0.29056  0.23811  0.74018  Biso   1.000  N
  O13      1.0000 0.75493  0.10828  0.32756  Biso   1.000  O
  O14      1.0000 0.24507  0.60828  0.67244  Biso   1.000  O
  H41      1.0000 0.65990  0.11700  0.27590  Biso   1.000  H
  H42      1.0000 0.34010  0.61700  0.72410  Biso   1.000  H
  H43      1.0000 0.79600  0.18930  0.34500  Biso   1.000  H
  H44      1.0000 0.20400  0.68930  0.65500  Biso   1.000  H
  C53      1.0000 0.48020  0.30840  0.18030  Biso   1.000  C
  C54      1.0000 0.51980  0.80840  0.81970  Biso   1.000  C
  O15      1.0000 0.49440  0.17810  0.19660  Biso   1.000  O
  O16      1.0000 0.50560  0.67810  0.80340  Biso   1.000  O
  O17      1.0000 0.51590  0.19030  0.15630  Biso   1.000  O
  O18      1.0000 0.48410  0.69030  0.84370  Biso   1.000  O
