data_image0
_cell_length_a       18.5213
_cell_length_b       5.3351
_cell_length_c       23.0685
_cell_angle_alpha    90
_cell_angle_beta     101.828
_cell_angle_gamma    90

_symmetry_space_group_name_H-M    "P 1"
_symmetry_int_tables_number       1

loop_
  _symmetry_equiv_pos_as_xyz
  'x, y, z'

loop_
  _atom_site_label
  _atom_site_occupancy
  _atom_site_fract_x
  _atom_site_fract_y
  _atom_site_fract_z
  _atom_site_thermal_displace_type
  _atom_site_B_iso_or_equiv
  _atom_site_type_symbol
  Cu1      1.0000 0.50000  0.71007  0.25000  Biso   1.000  Cu
  Cu2      1.0000 0.00000  0.21007  0.25000  Biso   1.000  Cu
  Cu3      1.0000 0.50000  0.28993  0.75000  Biso   1.000  Cu
  Cu4      1.0000 0.00000  0.78993  0.75000  Biso   1.000  Cu
  O1       1.0000 0.41750  0.71873  0.28956  Biso   1.000  O
  O2       1.0000 0.58250  0.71873  0.21044  Biso   1.000  O
  O3       1.0000 0.91750  0.21873  0.28956  Biso   1.000  O
  O4       1.0000 0.08250  0.21873  0.21044  Biso   1.000  O
  O5       1.0000 0.58250  0.28127  0.71044  Biso   1.000  O
  O6       1.0000 0.41750  0.28127  0.78956  Biso   1.000  O
  O7       1.0000 0.08250  0.78127  0.71044  Biso   1.000  O
  O8       1.0000 0.91750  0.78127  0.78956  Biso   1.000  O
  O9       1.0000 0.36925  0.08952  0.25732  Biso   1.000  O
  O10      1.0000 0.63075  0.08952  0.24268  Biso   1.000  O
  O11      1.0000 0.86925  0.58952  0.25732  Biso   1.000  O
  O12      1.0000 0.13075  0.58952  0.24268  Biso   1.000  O
  O13      1.0000 0.63075  0.91048  0.74268  Biso   1.000  O
  O14      1.0000 0.36925  0.91048  0.75732  Biso   1.000  O
  O15      1.0000 0.13075  0.41048  0.74268  Biso   1.000  O
  O16      1.0000 0.86925  0.41048  0.75732  Biso   1.000  O
  O17      1.0000 0.37566  0.78694  0.43228  Biso   1.000  O
  O18      1.0000 0.62434  0.78694  0.06772  Biso   1.000  O
  O19      1.0000 0.87566  0.28694  0.43228  Biso   1.000  O
  O20      1.0000 0.12434  0.28694  0.06772  Biso   1.000  O
  O21      1.0000 0.62434  0.21306  0.56772  Biso   1.000  O
  O22      1.0000 0.37566  0.21306  0.93228  Biso   1.000  O
  O23      1.0000 0.12434  0.71306  0.56772  Biso   1.000  O
  O24      1.0000 0.87566  0.71306  0.93228  Biso   1.000  O
  O25      1.0000 0.50000  0.29830  0.25000  Biso   1.000  O
  O26      1.0000 0.00000  0.79830  0.25000  Biso   1.000  O
  O27      1.0000 0.50000  0.70170  0.75000  Biso   1.000  O
  O28      1.0000 0.00000  0.20170  0.75000  Biso   1.000  O
  H1       1.0000 0.46270  0.22100  0.25310  Biso   1.000  H
  H2       1.0000 0.53730  0.22100  0.24690  Biso   1.000  H
  H3       1.0000 0.96270  0.72100  0.25310  Biso   1.000  H
  H4       1.0000 0.03730  0.72100  0.24690  Biso   1.000  H
  H5       1.0000 0.53730  0.77900  0.74690  Biso   1.000  H
  H6       1.0000 0.46270  0.77900  0.75310  Biso   1.000  H
  H7       1.0000 0.03730  0.27900  0.74690  Biso   1.000  H
  H8       1.0000 0.96270  0.27900  0.75310  Biso   1.000  H
  N1       1.0000 0.56858  0.72432  0.33020  Biso   1.000  N
  N2       1.0000 0.43142  0.72432  0.16980  Biso   1.000  N
  N3       1.0000 0.06858  0.22432  0.33020  Biso   1.000  N
  N4       1.0000 0.93142  0.22432  0.16980  Biso   1.000  N
  N5       1.0000 0.43142  0.27568  0.66980  Biso   1.000  N
  N6       1.0000 0.56858  0.27568  0.83020  Biso   1.000  N
  N7       1.0000 0.93142  0.77568  0.66980  Biso   1.000  N
  N8       1.0000 0.06858  0.77568  0.83020  Biso   1.000  N
  C1       1.0000 0.36717  0.88570  0.28275  Biso   1.000  C
  C2       1.0000 0.63283  0.88570  0.21725  Biso   1.000  C
  C3       1.0000 0.86717  0.38570  0.28275  Biso   1.000  C
  C4       1.0000 0.13283  0.38570  0.21725  Biso   1.000  C
  C5       1.0000 0.63283  0.11430  0.71725  Biso   1.000  C
  C6       1.0000 0.36717  0.11430  0.78275  Biso   1.000  C
  C7       1.0000 0.13283  0.61430  0.71725  Biso   1.000  C
  C8       1.0000 0.86717  0.61430  0.78275  Biso   1.000  C
  C9       1.0000 0.30065  0.82060  0.30902  Biso   1.000  C
  C10      1.0000 0.69935  0.82060  0.19098  Biso   1.000  C
  C11      1.0000 0.80065  0.32060  0.30902  Biso   1.000  C
  C12      1.0000 0.19935  0.32060  0.19098  Biso   1.000  C
  C13      1.0000 0.69935  0.17940  0.69098  Biso   1.000  C
  C14      1.0000 0.30065  0.17940  0.80902  Biso   1.000  C
  C15      1.0000 0.19935  0.67940  0.69098  Biso   1.000  C
  C16      1.0000 0.80065  0.67940  0.80902  Biso   1.000  C
  H9       1.0000 0.25690  0.80170  0.27650  Biso   1.000  H
  H10      1.0000 0.74310  0.80170  0.22350  Biso   1.000  H
  H11      1.0000 0.75690  0.30170  0.27650  Biso   1.000  H
  H12      1.0000 0.24310  0.30170  0.22350  Biso   1.000  H
  H13      1.0000 0.74310  0.19830  0.72350  Biso   1.000  H
  H14      1.0000 0.25690  0.19830  0.77650  Biso   1.000  H
  H15      1.0000 0.24310  0.69830  0.72350  Biso   1.000  H
  H16      1.0000 0.75690  0.69830  0.77650  Biso   1.000  H
  H17      1.0000 0.29090  0.96060  0.33450  Biso   1.000  H
  H18      1.0000 0.70910  0.96060  0.16550  Biso   1.000  H
  H19      1.0000 0.79090  0.46060  0.33450  Biso   1.000  H
  H20      1.0000 0.20910  0.46060  0.16550  Biso   1.000  H
  H21      1.0000 0.70910  0.03940  0.66550  Biso   1.000  H
  H22      1.0000 0.29090  0.03940  0.83450  Biso   1.000  H
  H23      1.0000 0.20910  0.53940  0.66550  Biso   1.000  H
  H24      1.0000 0.79090  0.53940  0.83450  Biso   1.000  H
  C17      1.0000 0.31139  0.58000  0.34552  Biso   1.000  C
  C18      1.0000 0.68861  0.58000  0.15448  Biso   1.000  C
  C19      1.0000 0.81139  0.08000  0.34552  Biso   1.000  C
  C20      1.0000 0.18861  0.08000  0.15448  Biso   1.000  C
  C21      1.0000 0.68861  0.42000  0.65448  Biso   1.000  C
  C22      1.0000 0.31139  0.42000  0.84552  Biso   1.000  C
  C23      1.0000 0.18861  0.92000  0.65448  Biso   1.000  C
  C24      1.0000 0.81139  0.92000  0.84552  Biso   1.000  C
  H25      1.0000 0.26500  0.53850  0.35840  Biso   1.000  H
  H26      1.0000 0.73500  0.53850  0.14160  Biso   1.000  H
  H27      1.0000 0.76500  0.03850  0.35840  Biso   1.000  H
  H28      1.0000 0.23500  0.03850  0.14160  Biso   1.000  H
  H29      1.0000 0.73500  0.46150  0.64160  Biso   1.000  H
  H30      1.0000 0.26500  0.46150  0.85840  Biso   1.000  H
  H31      1.0000 0.23500  0.96150  0.64160  Biso   1.000  H
  H32      1.0000 0.76500  0.96150  0.85840  Biso   1.000  H
  H33      1.0000 0.32290  0.44050  0.32060  Biso   1.000  H
  H34      1.0000 0.67710  0.44050  0.17940  Biso   1.000  H
  H35      1.0000 0.82290  0.94050  0.32060  Biso   1.000  H
  H36      1.0000 0.17710  0.94050  0.17940  Biso   1.000  H
  H37      1.0000 0.67710  0.55950  0.67940  Biso   1.000  H
  H38      1.0000 0.32290  0.55950  0.82060  Biso   1.000  H
  H39      1.0000 0.17710  0.05950  0.67940  Biso   1.000  H
  H40      1.0000 0.82290  0.05950  0.82060  Biso   1.000  H
  C25      1.0000 0.37329  0.60650  0.39953  Biso   1.000  C
  C26      1.0000 0.62671  0.60650  0.10047  Biso   1.000  C
  C27      1.0000 0.87329  0.10650  0.39953  Biso   1.000  C
  C28      1.0000 0.12671  0.10650  0.10047  Biso   1.000  C
  C29      1.0000 0.62671  0.39350  0.60047  Biso   1.000  C
  C30      1.0000 0.37329  0.39350  0.89953  Biso   1.000  C
  C31      1.0000 0.12671  0.89350  0.60047  Biso   1.000  C
  C32      1.0000 0.87329  0.89350  0.89953  Biso   1.000  C
  C33      1.0000 0.43050  0.40340  0.41052  Biso   1.000  C
  C34      1.0000 0.56950  0.40340  0.08948  Biso   1.000  C
  C35      1.0000 0.93050  0.90340  0.41052  Biso   1.000  C
  C36      1.0000 0.06950  0.90340  0.08948  Biso   1.000  C
  C37      1.0000 0.56950  0.59660  0.58948  Biso   1.000  C
  C38      1.0000 0.43050  0.59660  0.91052  Biso   1.000  C
  C39      1.0000 0.06950  0.09660  0.58948  Biso   1.000  C
  C40      1.0000 0.93050  0.09660  0.91052  Biso   1.000  C
  H41      1.0000 0.46460  0.43430  0.44830  Biso   1.000  H
  H42      1.0000 0.53540  0.43430  0.05170  Biso   1.000  H
  H43      1.0000 0.96460  0.93430  0.44830  Biso   1.000  H
  H44      1.0000 0.03540  0.93430  0.05170  Biso   1.000  H
  H45      1.0000 0.53540  0.56570  0.55170  Biso   1.000  H
  H46      1.0000 0.46460  0.56570  0.94830  Biso   1.000  H
  H47      1.0000 0.03540  0.06570  0.55170  Biso   1.000  H
  H48      1.0000 0.96460  0.06570  0.94830  Biso   1.000  H
  H49      1.0000 0.45790  0.40250  0.37840  Biso   1.000  H
  H50      1.0000 0.54210  0.40250  0.12160  Biso   1.000  H
  H51      1.0000 0.95790  0.90250  0.37840  Biso   1.000  H
  H52      1.0000 0.04210  0.90250  0.12160  Biso   1.000  H
  H53      1.0000 0.54210  0.59750  0.62160  Biso   1.000  H
  H54      1.0000 0.45790  0.59750  0.87840  Biso   1.000  H
  H55      1.0000 0.04210  0.09750  0.62160  Biso   1.000  H
  H56      1.0000 0.95790  0.09750  0.87840  Biso   1.000  H
  H57      1.0000 0.40630  0.24080  0.41200  Biso   1.000  H
  H58      1.0000 0.59370  0.24080  0.08800  Biso   1.000  H
  H59      1.0000 0.90630  0.74080  0.41200  Biso   1.000  H
  H60      1.0000 0.09370  0.74080  0.08800  Biso   1.000  H
  H61      1.0000 0.59370  0.75920  0.58800  Biso   1.000  H
  H62      1.0000 0.40630  0.75920  0.91200  Biso   1.000  H
  H63      1.0000 0.09370  0.25920  0.58800  Biso   1.000  H
  H64      1.0000 0.90630  0.25920  0.91200  Biso   1.000  H
  C41      1.0000 0.62384  0.55730  0.34271  Biso   1.000  C
  C42      1.0000 0.37616  0.55730  0.15729  Biso   1.000  C
  C43      1.0000 0.12384  0.05730  0.34271  Biso   1.000  C
  C44      1.0000 0.87616  0.05730  0.15729  Biso   1.000  C
  C45      1.0000 0.37616  0.44270  0.65729  Biso   1.000  C
  C46      1.0000 0.62384  0.44270  0.84271  Biso   1.000  C
  C47      1.0000 0.87616  0.94270  0.65729  Biso   1.000  C
  C48      1.0000 0.12384  0.94270  0.84271  Biso   1.000  C
  H65      1.0000 0.63170  0.44530  0.31260  Biso   1.000  H
  H66      1.0000 0.36830  0.44530  0.18740  Biso   1.000  H
  H67      1.0000 0.13170  0.94530  0.31260  Biso   1.000  H
  H68      1.0000 0.86830  0.94530  0.18740  Biso   1.000  H
  H69      1.0000 0.36830  0.55470  0.68740  Biso   1.000  H
  H70      1.0000 0.63170  0.55470  0.81260  Biso   1.000  H
  H71      1.0000 0.86830  0.05470  0.68740  Biso   1.000  H
  H72      1.0000 0.13170  0.05470  0.81260  Biso   1.000  H
  C49      1.0000 0.66982  0.54330  0.39814  Biso   1.000  C
  C50      1.0000 0.33018  0.54330  0.10186  Biso   1.000  C
  C51      1.0000 0.16982  0.04330  0.39814  Biso   1.000  C
  C52      1.0000 0.83018  0.04330  0.10186  Biso   1.000  C
  C53      1.0000 0.33018  0.45670  0.60186  Biso   1.000  C
  C54      1.0000 0.66982  0.45670  0.89814  Biso   1.000  C
  C55      1.0000 0.83018  0.95670  0.60186  Biso   1.000  C
  C56      1.0000 0.16982  0.95670  0.89814  Biso   1.000  C
  H73      1.0000 0.70790  0.42110  0.40580  Biso   1.000  H
  H74      1.0000 0.29210  0.42110  0.09420  Biso   1.000  H
  H75      1.0000 0.20790  0.92110  0.40580  Biso   1.000  H
  H76      1.0000 0.79210  0.92110  0.09420  Biso   1.000  H
  H77      1.0000 0.29210  0.57890  0.59420  Biso   1.000  H
  H78      1.0000 0.70790  0.57890  0.90580  Biso   1.000  H
  H79      1.0000 0.79210  0.07890  0.59420  Biso   1.000  H
  H80      1.0000 0.20790  0.07890  0.90580  Biso   1.000  H
  C57      1.0000 0.66012  0.70850  0.44260  Biso   1.000  C
  C58      1.0000 0.33988  0.70850  0.05740  Biso   1.000  C
  C59      1.0000 0.16012  0.20850  0.44260  Biso   1.000  C
  C60      1.0000 0.83988  0.20850  0.05740  Biso   1.000  C
  C61      1.0000 0.33988  0.29150  0.55740  Biso   1.000  C
  C62      1.0000 0.66012  0.29150  0.94260  Biso   1.000  C
  C63      1.0000 0.83988  0.79150  0.55740  Biso   1.000  C
  C64      1.0000 0.16012  0.79150  0.94260  Biso   1.000  C
  C65      1.0000 0.60338  0.88270  0.42918  Biso   1.000  C
  C66      1.0000 0.39662  0.88270  0.07082  Biso   1.000  C
  C67      1.0000 0.10338  0.38270  0.42918  Biso   1.000  C
  C68      1.0000 0.89662  0.38270  0.07082  Biso   1.000  C
  C69      1.0000 0.39662  0.11730  0.57082  Biso   1.000  C
  C70      1.0000 0.60338  0.11730  0.92918  Biso   1.000  C
  C71      1.0000 0.89662  0.61730  0.57082  Biso   1.000  C
  C72      1.0000 0.10338  0.61730  0.92918  Biso   1.000  C
  H81      1.0000 0.59520  0.99990  0.45810  Biso   1.000  H
  H82      1.0000 0.40480  0.99990  0.04190  Biso   1.000  H
  H83      1.0000 0.09520  0.49990  0.45810  Biso   1.000  H
  H84      1.0000 0.90480  0.49990  0.04190  Biso   1.000  H
  H85      1.0000 0.40480  0.00010  0.54190  Biso   1.000  H
  H86      1.0000 0.59520  0.00010  0.95810  Biso   1.000  H
  H87      1.0000 0.90480  0.50010  0.54190  Biso   1.000  H
  H88      1.0000 0.09520  0.50010  0.95810  Biso   1.000  H
  C73      1.0000 0.55884  0.88310  0.37292  Biso   1.000  C
  C74      1.0000 0.44116  0.88310  0.12708  Biso   1.000  C
  C75      1.0000 0.05884  0.38310  0.37292  Biso   1.000  C
  C76      1.0000 0.94116  0.38310  0.12708  Biso   1.000  C
  C77      1.0000 0.44116  0.11690  0.62708  Biso   1.000  C
  C78      1.0000 0.55884  0.11690  0.87292  Biso   1.000  C
  C79      1.0000 0.94116  0.61690  0.62708  Biso   1.000  C
  C80      1.0000 0.05884  0.61690  0.87292  Biso   1.000  C
  H89      1.0000 0.51970  0.00110  0.36430  Biso   1.000  H
  H90      1.0000 0.48030  0.00110  0.13570  Biso   1.000  H
  H91      1.0000 0.01970  0.50110  0.36430  Biso   1.000  H
  H92      1.0000 0.98030  0.50110  0.13570  Biso   1.000  H
  H93      1.0000 0.48030  0.99890  0.63570  Biso   1.000  H
  H94      1.0000 0.51970  0.99890  0.86430  Biso   1.000  H
  H95      1.0000 0.98030  0.49890  0.63570  Biso   1.000  H
  H96      1.0000 0.01970  0.49890  0.86430  Biso   1.000  H
  C81      1.0000 0.71167  0.70080  0.50210  Biso   1.000  C
  C82      1.0000 0.28833  0.70080  0.99790  Biso   1.000  C
  C83      1.0000 0.21167  0.20080  0.50210  Biso   1.000  C
  C84      1.0000 0.78833  0.20080  0.99790  Biso   1.000  C
  C85      1.0000 0.28833  0.29920  0.49790  Biso   1.000  C
  C86      1.0000 0.71167  0.29920  0.00210  Biso   1.000  C
  C87      1.0000 0.78833  0.79920  0.49790  Biso   1.000  C
  C88      1.0000 0.21167  0.79920  0.00210  Biso   1.000  C
  H97      1.0000 0.71600  0.52630  0.51700  Biso   1.000  H
  H98      1.0000 0.28400  0.52630  0.98300  Biso   1.000  H
  H99      1.0000 0.21600  0.02630  0.51700  Biso   1.000  H
  H100     1.0000 0.78400  0.02630  0.98300  Biso   1.000  H
  H101     1.0000 0.28400  0.47370  0.48300  Biso   1.000  H
  H102     1.0000 0.71600  0.47370  0.01700  Biso   1.000  H
  H103     1.0000 0.78400  0.97370  0.48300  Biso   1.000  H
  H104     1.0000 0.21600  0.97370  0.01700  Biso   1.000  H
  H105     1.0000 0.69130  0.80440  0.53060  Biso   1.000  H
  H106     1.0000 0.30870  0.80440  0.96940  Biso   1.000  H
  H107     1.0000 0.19130  0.30440  0.53060  Biso   1.000  H
  H108     1.0000 0.80870  0.30440  0.96940  Biso   1.000  H
  H109     1.0000 0.30870  0.19560  0.46940  Biso   1.000  H
  H110     1.0000 0.69130  0.19560  0.03060  Biso   1.000  H
  H111     1.0000 0.80870  0.69560  0.46940  Biso   1.000  H
  H112     1.0000 0.19130  0.69560  0.03060  Biso   1.000  H
