data_image0
_cell_length_a       5.354
_cell_length_b       11.8921
_cell_length_c       15.2705
_cell_angle_alpha    110.739
_cell_angle_beta     94.0425
_cell_angle_gamma    99.235

_symmetry_space_group_name_H-M    "P 1"
_symmetry_int_tables_number       1

loop_
  _symmetry_equiv_pos_as_xyz
  'x, y, z'

loop_
  _atom_site_label
  _atom_site_occupancy
  _atom_site_fract_x
  _atom_site_fract_y
  _atom_site_fract_z
  _atom_site_thermal_displace_type
  _atom_site_B_iso_or_equiv
  _atom_site_type_symbol
  Cl1      1.0000 0.65748  0.63312  0.29606  Biso   1.000  Cl
  Cl2      1.0000 0.34252  0.36688  0.70394  Biso   1.000  Cl
  O1       1.0000 0.56270  0.50290  0.25560  Biso   1.000  O
  O2       1.0000 0.43730  0.49710  0.74440  Biso   1.000  O
  O3       1.0000 0.92600  0.66220  0.30060  Biso   1.000  O
  O4       1.0000 0.07400  0.33780  0.69940  Biso   1.000  O
  O5       1.0000 0.54030  0.68730  0.23817  Biso   1.000  O
  O6       1.0000 0.45970  0.31270  0.76183  Biso   1.000  O
  O7       1.0000 0.59150  0.67950  0.38953  Biso   1.000  O
  O8       1.0000 0.40850  0.32050  0.61047  Biso   1.000  O
  Cu1      1.0000 0.00000  0.00000  0.00000  Biso   1.000  Cu
  O9       1.0000 0.69950  0.88014  0.05868  Biso   1.000  O
  O10      1.0000 0.30050  0.11986  0.94132  Biso   1.000  O
  O11      1.0000 0.15560  0.09060  0.13074  Biso   1.000  O
  O12      1.0000 0.84440  0.90940  0.86926  Biso   1.000  O
  H1       1.0000 0.10900  0.06800  0.16500  Biso   1.000  H
  H2       1.0000 0.89100  0.93200  0.83500  Biso   1.000  H
  H3       1.0000 0.30800  0.12600  0.15400  Biso   1.000  H
  H4       1.0000 0.69200  0.87400  0.84600  Biso   1.000  H
  O13      1.0000 0.77390  0.11942  0.02119  Biso   1.000  O
  O14      1.0000 0.22610  0.88058  0.97881  Biso   1.000  O
  H5       1.0000 0.62400  0.10900  0.98400  Biso   1.000  H
  H6       1.0000 0.37600  0.89100  0.01600  Biso   1.000  H
  H7       1.0000 0.76000  0.14500  0.07700  Biso   1.000  H
  H8       1.0000 0.24000  0.85500  0.92300  Biso   1.000  H
  N1       1.0000 0.77160  0.77334  0.04383  Biso   1.000  N
  N2       1.0000 0.22840  0.22666  0.95617  Biso   1.000  N
  C1       1.0000 0.94810  0.76620  0.10727  Biso   1.000  C
  C2       1.0000 0.05190  0.23380  0.89273  Biso   1.000  C
  H9       1.0000 0.00990  0.83380  0.16260  Biso   1.000  H
  H10      1.0000 0.99010  0.16620  0.83740  Biso   1.000  H
  C3       1.0000 0.03890  0.65990  0.09152  Biso   1.000  C
  C4       1.0000 0.96110  0.34010  0.90848  Biso   1.000  C
  H11      1.0000 0.16120  0.65670  0.13650  Biso   1.000  H
  H12      1.0000 0.83880  0.34330  0.86350  Biso   1.000  H
  C5       1.0000 0.95100  0.55750  0.00963  Biso   1.000  C
  C6       1.0000 0.04900  0.44250  0.99037  Biso   1.000  C
  C7       1.0000 0.76500  0.56820  0.94640  Biso   1.000  C
  C8       1.0000 0.23500  0.43180  0.05360  Biso   1.000  C
  H13      1.0000 0.69810  0.50140  0.89100  Biso   1.000  H
  H14      1.0000 0.30190  0.49860  0.10900  Biso   1.000  H
  C9       1.0000 0.67800  0.67580  0.96430  Biso   1.000  C
  C10      1.0000 0.32200  0.32420  0.03570  Biso   1.000  C
  H15      1.0000 0.55370  0.68110  0.92100  Biso   1.000  H
  H16      1.0000 0.44630  0.31890  0.07900  Biso   1.000  H
  O15      1.0000 0.08660  0.08620  0.29537  Biso   1.000  O
  O16      1.0000 0.91340  0.91380  0.70463  Biso   1.000  O
  N3       1.0000 0.91910  0.06630  0.34991  Biso   1.000  N
  N4       1.0000 0.08090  0.93370  0.65009  Biso   1.000  N
  C11      1.0000 0.69850  0.98490  0.31290  Biso   1.000  C
  C12      1.0000 0.30150  0.01510  0.68710  Biso   1.000  C
  H17      1.0000 0.65760  0.94620  0.24760  Biso   1.000  H
  H18      1.0000 0.34240  0.05380  0.75240  Biso   1.000  H
  C13      1.0000 0.53410  0.95840  0.37043  Biso   1.000  C
  C14      1.0000 0.46590  0.04160  0.62957  Biso   1.000  C
  H19      1.0000 0.38400  0.90050  0.34350  Biso   1.000  H
  H20      1.0000 0.61600  0.09950  0.65650  Biso   1.000  H
  C15      1.0000 0.58510  0.01600  0.46847  Biso   1.000  C
  C16      1.0000 0.41490  0.98400  0.53153  Biso   1.000  C
  C17      1.0000 0.80820  0.10490  0.50333  Biso   1.000  C
  C18      1.0000 0.19180  0.89510  0.49667  Biso   1.000  C
  H21      1.0000 0.84650  0.14960  0.56800  Biso   1.000  H
  H22      1.0000 0.15350  0.85040  0.43200  Biso   1.000  H
  C19      1.0000 0.97200  0.12790  0.44434  Biso   1.000  C
  C20      1.0000 0.02800  0.87210  0.55566  Biso   1.000  C
  H23      1.0000 0.12170  0.18660  0.46950  Biso   1.000  H
  H24      1.0000 0.87830  0.81340  0.53050  Biso   1.000  H
  O17      1.0000 0.63520  0.20370  0.18927  Biso   1.000  O
  O18      1.0000 0.36480  0.79630  0.81073  Biso   1.000  O
  N5       1.0000 0.73780  0.28370  0.27470  Biso   1.000  N
  N6       1.0000 0.26220  0.71630  0.72530  Biso   1.000  N
  C21      1.0000 0.61160  0.28940  0.34871  Biso   1.000  C
  C22      1.0000 0.38840  0.71060  0.65129  Biso   1.000  C
  H25      1.0000 0.45620  0.23630  0.34000  Biso   1.000  H
  H26      1.0000 0.54380  0.76370  0.66000  Biso   1.000  H
  C23      1.0000 0.71190  0.37360  0.43699  Biso   1.000  C
  C24      1.0000 0.28810  0.62640  0.56301  Biso   1.000  C
  H27      1.0000 0.62230  0.37720  0.48760  Biso   1.000  H
  H28      1.0000 0.37770  0.62280  0.51240  Biso   1.000  H
  C25      1.0000 0.94560  0.45410  0.45261  Biso   1.000  C
  C26      1.0000 0.05440  0.54590  0.54739  Biso   1.000  C
  C27      1.0000 0.06870  0.44320  0.37388  Biso   1.000  C
  C28      1.0000 0.93130  0.55680  0.62612  Biso   1.000  C
  H29      1.0000 0.22530  0.49450  0.38060  Biso   1.000  H
  H30      1.0000 0.77470  0.50550  0.61940  Biso   1.000  H
  C29      1.0000 0.96350  0.35820  0.28624  Biso   1.000  C
  C30      1.0000 0.03650  0.64180  0.71376  Biso   1.000  C
  H31      1.0000 0.04970  0.35220  0.23450  Biso   1.000  H
  H32      1.0000 0.95030  0.64780  0.76550  Biso   1.000  H
