data_image0
_cell_length_a       24.638
_cell_length_b       8.083
_cell_length_c       14.712
_cell_angle_alpha    90
_cell_angle_beta     105.69
_cell_angle_gamma    90

_symmetry_space_group_name_H-M    "P 1"
_symmetry_int_tables_number       1

loop_
  _symmetry_equiv_pos_as_xyz
  'x, y, z'

loop_
  _atom_site_label
  _atom_site_occupancy
  _atom_site_fract_x
  _atom_site_fract_y
  _atom_site_fract_z
  _atom_site_thermal_displace_type
  _atom_site_B_iso_or_equiv
  _atom_site_type_symbol
  Cu1      1.0000 0.95573  0.55210  0.59390  Biso   1.000  Cu
  Cu2      1.0000 0.04427  0.05210  0.90610  Biso   1.000  Cu
  Cu3      1.0000 0.04427  0.44790  0.40610  Biso   1.000  Cu
  Cu4      1.0000 0.95573  0.94790  0.09390  Biso   1.000  Cu
  Cu5      1.0000 0.55018  0.55226  0.63938  Biso   1.000  Cu
  Cu6      1.0000 0.44982  0.05226  0.86062  Biso   1.000  Cu
  Cu7      1.0000 0.44982  0.44774  0.36062  Biso   1.000  Cu
  Cu8      1.0000 0.55018  0.94774  0.13938  Biso   1.000  Cu
  C1       1.0000 0.93600  0.85230  0.47510  Biso   1.000  C
  C2       1.0000 0.06400  0.35230  0.02490  Biso   1.000  C
  C3       1.0000 0.06400  0.14770  0.52490  Biso   1.000  C
  C4       1.0000 0.93600  0.64770  0.97510  Biso   1.000  C
  H1       1.0000 0.97460  0.87670  0.50340  Biso   1.000  H
  H2       1.0000 0.02540  0.37670  0.99660  Biso   1.000  H
  H3       1.0000 0.02540  0.12330  0.49660  Biso   1.000  H
  H4       1.0000 0.97460  0.62330  0.00340  Biso   1.000  H
  C5       1.0000 0.90410  0.96500  0.41390  Biso   1.000  C
  C6       1.0000 0.09590  0.46500  0.08610  Biso   1.000  C
  C7       1.0000 0.09590  0.03500  0.58610  Biso   1.000  C
  C8       1.0000 0.90410  0.53500  0.91390  Biso   1.000  C
  H5       1.0000 0.92030  0.06540  0.39990  Biso   1.000  H
  H6       1.0000 0.07970  0.56540  0.10010  Biso   1.000  H
  H7       1.0000 0.07970  0.93460  0.60010  Biso   1.000  H
  H8       1.0000 0.92030  0.43460  0.89990  Biso   1.000  H
  C9       1.0000 0.84780  0.92950  0.37270  Biso   1.000  C
  C10      1.0000 0.15220  0.42950  0.12730  Biso   1.000  C
  C11      1.0000 0.15220  0.07050  0.62730  Biso   1.000  C
  C12      1.0000 0.84780  0.57050  0.87270  Biso   1.000  C
  H9       1.0000 0.82460  0.00610  0.33060  Biso   1.000  H
  H10      1.0000 0.17540  0.50610  0.16940  Biso   1.000  H
  H11      1.0000 0.17540  0.99390  0.66940  Biso   1.000  H
  H12      1.0000 0.82460  0.49390  0.83060  Biso   1.000  H
  C13      1.0000 0.82580  0.78060  0.39350  Biso   1.000  C
  C14      1.0000 0.17420  0.28060  0.10650  Biso   1.000  C
  C15      1.0000 0.17420  0.21940  0.60650  Biso   1.000  C
  C16      1.0000 0.82580  0.71940  0.89350  Biso   1.000  C
  H13      1.0000 0.78750  0.75300  0.36540  Biso   1.000  H
  H14      1.0000 0.21250  0.25300  0.13460  Biso   1.000  H
  H15      1.0000 0.21250  0.24700  0.63460  Biso   1.000  H
  H16      1.0000 0.78750  0.74700  0.86540  Biso   1.000  H
  C17      1.0000 0.86090  0.67240  0.45640  Biso   1.000  C
  C18      1.0000 0.13910  0.17240  0.04360  Biso   1.000  C
  C19      1.0000 0.13910  0.32760  0.54360  Biso   1.000  C
  C20      1.0000 0.86090  0.82760  0.95640  Biso   1.000  C
  C21      1.0000 0.84390  0.50930  0.48090  Biso   1.000  C
  C22      1.0000 0.15610  0.00930  0.01910  Biso   1.000  C
  C23      1.0000 0.15610  0.49070  0.51910  Biso   1.000  C
  C24      1.0000 0.84390  0.99070  0.98090  Biso   1.000  C
  C25      1.0000 0.79270  0.43800  0.44020  Biso   1.000  C
  C26      1.0000 0.20730  0.93800  0.05980  Biso   1.000  C
  C27      1.0000 0.20730  0.56200  0.55980  Biso   1.000  C
  C28      1.0000 0.79270  0.06200  0.94020  Biso   1.000  C
  H17      1.0000 0.76540  0.49570  0.39300  Biso   1.000  H
  H18      1.0000 0.23460  0.99570  0.10700  Biso   1.000  H
  H19      1.0000 0.23460  0.50430  0.60700  Biso   1.000  H
  H20      1.0000 0.76540  0.00430  0.89300  Biso   1.000  H
  C29      1.0000 0.78090  0.28200  0.46810  Biso   1.000  C
  C30      1.0000 0.21910  0.78200  0.03190  Biso   1.000  C
  C31      1.0000 0.21910  0.71800  0.53190  Biso   1.000  C
  C32      1.0000 0.78090  0.21800  0.96810  Biso   1.000  C
  H21      1.0000 0.74550  0.23140  0.44040  Biso   1.000  H
  H22      1.0000 0.25450  0.73140  0.05960  Biso   1.000  H
  H23      1.0000 0.25450  0.76860  0.55960  Biso   1.000  H
  H24      1.0000 0.74550  0.26860  0.94040  Biso   1.000  H
  C33      1.0000 0.82190  0.19990  0.53750  Biso   1.000  C
  C34      1.0000 0.17810  0.69990  0.96250  Biso   1.000  C
  C35      1.0000 0.17810  0.80010  0.46250  Biso   1.000  C
  C36      1.0000 0.82190  0.30010  0.03750  Biso   1.000  C
  H25      1.0000 0.81510  0.09200  0.55750  Biso   1.000  H
  H26      1.0000 0.18490  0.59200  0.94250  Biso   1.000  H
  H27      1.0000 0.18490  0.90800  0.44250  Biso   1.000  H
  H28      1.0000 0.81510  0.40800  0.05750  Biso   1.000  H
  C37      1.0000 0.87230  0.27840  0.57650  Biso   1.000  C
  C38      1.0000 0.12770  0.77840  0.92350  Biso   1.000  C
  C39      1.0000 0.12770  0.72160  0.42350  Biso   1.000  C
  C40      1.0000 0.87230  0.22160  0.07650  Biso   1.000  C
  H29      1.0000 0.89990  0.22350  0.62460  Biso   1.000  H
  H30      1.0000 0.10010  0.72350  0.87540  Biso   1.000  H
  H31      1.0000 0.10010  0.77650  0.37540  Biso   1.000  H
  H32      1.0000 0.89990  0.27650  0.12460  Biso   1.000  H
  C41      1.0000 0.05870  0.43900  0.70140  Biso   1.000  C
  C42      1.0000 0.94130  0.93900  0.79860  Biso   1.000  C
  C43      1.0000 0.94130  0.56100  0.29860  Biso   1.000  C
  C44      1.0000 0.05870  0.06100  0.20140  Biso   1.000  C
  C45      1.0000 0.07190  0.59070  0.65550  Biso   1.000  C
  C46      1.0000 0.92810  0.09070  0.84450  Biso   1.000  C
  C47      1.0000 0.92810  0.40930  0.34450  Biso   1.000  C
  C48      1.0000 0.07190  0.90930  0.15550  Biso   1.000  C
  C49      1.0000 0.08840  0.32830  0.76790  Biso   1.000  C
  C50      1.0000 0.91160  0.82830  0.73210  Biso   1.000  C
  C51      1.0000 0.91160  0.67170  0.23210  Biso   1.000  C
  C52      1.0000 0.08840  0.17170  0.26790  Biso   1.000  C
  C53      1.0000 0.15010  0.32040  0.81250  Biso   1.000  C
  C54      1.0000 0.84990  0.82040  0.68750  Biso   1.000  C
  C55      1.0000 0.84990  0.67960  0.18750  Biso   1.000  C
  C56      1.0000 0.15010  0.17960  0.31250  Biso   1.000  C
  C57      1.0000 0.57020  0.86030  0.54520  Biso   1.000  C
  C58      1.0000 0.42980  0.36030  0.95480  Biso   1.000  C
  C59      1.0000 0.42980  0.13970  0.45480  Biso   1.000  C
  C60      1.0000 0.57020  0.63970  0.04520  Biso   1.000  C
  H33      1.0000 0.53170  0.88440  0.53930  Biso   1.000  H
  H34      1.0000 0.46830  0.38440  0.96070  Biso   1.000  H
  H35      1.0000 0.46830  0.11560  0.46070  Biso   1.000  H
  H36      1.0000 0.53170  0.61560  0.03930  Biso   1.000  H
  C61      1.0000 0.60230  0.97470  0.51300  Biso   1.000  C
  C62      1.0000 0.39770  0.47470  0.98700  Biso   1.000  C
  C63      1.0000 0.39770  0.02530  0.48700  Biso   1.000  C
  C64      1.0000 0.60230  0.52530  0.01300  Biso   1.000  C
  H37      1.0000 0.58610  0.07510  0.48450  Biso   1.000  H
  H38      1.0000 0.41390  0.57510  0.01550  Biso   1.000  H
  H39      1.0000 0.41390  0.92490  0.51550  Biso   1.000  H
  H40      1.0000 0.58610  0.42490  0.98450  Biso   1.000  H
  C65      1.0000 0.65800  0.93970  0.52320  Biso   1.000  C
  C66      1.0000 0.34200  0.43970  0.97680  Biso   1.000  C
  C67      1.0000 0.34200  0.06030  0.47680  Biso   1.000  C
  C68      1.0000 0.65800  0.56030  0.02320  Biso   1.000  C
  H41      1.0000 0.68110  0.01710  0.50260  Biso   1.000  H
  H42      1.0000 0.31890  0.51710  0.99740  Biso   1.000  H
  H43      1.0000 0.31890  0.98290  0.49740  Biso   1.000  H
  H44      1.0000 0.68110  0.48290  0.00260  Biso   1.000  H
  C69      1.0000 0.68040  0.79200  0.56330  Biso   1.000  C
  C70      1.0000 0.31960  0.29200  0.93670  Biso   1.000  C
  C71      1.0000 0.31960  0.20800  0.43670  Biso   1.000  C
  C72      1.0000 0.68040  0.70800  0.06330  Biso   1.000  C
  H45      1.0000 0.71880  0.76550  0.56910  Biso   1.000  H
  H46      1.0000 0.28120  0.26550  0.93090  Biso   1.000  H
  H47      1.0000 0.28120  0.23450  0.43090  Biso   1.000  H
  H48      1.0000 0.71880  0.73450  0.06910  Biso   1.000  H
  C73      1.0000 0.64610  0.68240  0.59510  Biso   1.000  C
  C74      1.0000 0.35390  0.18240  0.90490  Biso   1.000  C
  C75      1.0000 0.35390  0.31760  0.40490  Biso   1.000  C
  C76      1.0000 0.64610  0.81760  0.09510  Biso   1.000  C
  C77      1.0000 0.66400  0.51980  0.63680  Biso   1.000  C
  C78      1.0000 0.33600  0.01980  0.86320  Biso   1.000  C
  C79      1.0000 0.33600  0.48020  0.36320  Biso   1.000  C
  C80      1.0000 0.66400  0.98020  0.13680  Biso   1.000  C
  C81      1.0000 0.71780  0.45700  0.65090  Biso   1.000  C
  C82      1.0000 0.28220  0.95700  0.84910  Biso   1.000  C
  C83      1.0000 0.28220  0.54300  0.34910  Biso   1.000  C
  C84      1.0000 0.71780  0.04300  0.15090  Biso   1.000  C
  H49      1.0000 0.74600  0.51910  0.63310  Biso   1.000  H
  H50      1.0000 0.25400  0.01910  0.86690  Biso   1.000  H
  H51      1.0000 0.25400  0.48090  0.36690  Biso   1.000  H
  H52      1.0000 0.74600  0.98090  0.13310  Biso   1.000  H
  C85      1.0000 0.72970  0.30280  0.69110  Biso   1.000  C
  C86      1.0000 0.27030  0.80280  0.80890  Biso   1.000  C
  C87      1.0000 0.27030  0.69720  0.30890  Biso   1.000  C
  C88      1.0000 0.72970  0.19720  0.19110  Biso   1.000  C
  H53      1.0000 0.76630  0.25670  0.70090  Biso   1.000  H
  H54      1.0000 0.23370  0.75670  0.79910  Biso   1.000  H
  H55      1.0000 0.23370  0.74330  0.29910  Biso   1.000  H
  H56      1.0000 0.76630  0.24330  0.20090  Biso   1.000  H
  C89      1.0000 0.68820  0.21580  0.71710  Biso   1.000  C
  C90      1.0000 0.31180  0.71580  0.78290  Biso   1.000  C
  C91      1.0000 0.31180  0.78420  0.28290  Biso   1.000  C
  C92      1.0000 0.68820  0.28420  0.21710  Biso   1.000  C
  H57      1.0000 0.69580  0.10880  0.74430  Biso   1.000  H
  H58      1.0000 0.30420  0.60880  0.75570  Biso   1.000  H
  H59      1.0000 0.30420  0.89120  0.25570  Biso   1.000  H
  H60      1.0000 0.69580  0.39120  0.24430  Biso   1.000  H
  C93      1.0000 0.63550  0.28640  0.70290  Biso   1.000  C
  C94      1.0000 0.36450  0.78640  0.79710  Biso   1.000  C
  C95      1.0000 0.36450  0.71360  0.29710  Biso   1.000  C
  C96      1.0000 0.63550  0.21360  0.20290  Biso   1.000  C
  H61      1.0000 0.60700  0.22740  0.72180  Biso   1.000  H
  H62      1.0000 0.39300  0.72740  0.77820  Biso   1.000  H
  H63      1.0000 0.39300  0.77260  0.27820  Biso   1.000  H
  H64      1.0000 0.60700  0.27260  0.22180  Biso   1.000  H
  C97      1.0000 0.44640  0.42980  0.64370  Biso   1.000  C
  C98      1.0000 0.55360  0.92980  0.85630  Biso   1.000  C
  C99      1.0000 0.55360  0.57020  0.35630  Biso   1.000  C
  C100     1.0000 0.44640  0.07020  0.14370  Biso   1.000  C
  C101     1.0000 0.43340  0.58240  0.58460  Biso   1.000  C
  C102     1.0000 0.56660  0.08240  0.91540  Biso   1.000  C
  C103     1.0000 0.56660  0.41760  0.41540  Biso   1.000  C
  C104     1.0000 0.43340  0.91760  0.08460  Biso   1.000  C
  C105     1.0000 0.41600  0.32270  0.68120  Biso   1.000  C
  C106     1.0000 0.58400  0.82270  0.81880  Biso   1.000  C
  C107     1.0000 0.58400  0.67730  0.31880  Biso   1.000  C
  C108     1.0000 0.41600  0.17730  0.18120  Biso   1.000  C
  C109     1.0000 0.35360  0.31470  0.66780  Biso   1.000  C
  C110     1.0000 0.64640  0.81470  0.83220  Biso   1.000  C
  C111     1.0000 0.64640  0.68530  0.33220  Biso   1.000  C
  C112     1.0000 0.35360  0.18530  0.16780  Biso   1.000  C
  N1       1.0000 0.91530  0.71030  0.49680  Biso   1.000  N
  N2       1.0000 0.08470  0.21030  0.00320  Biso   1.000  N
  N3       1.0000 0.08470  0.28970  0.50320  Biso   1.000  N
  N4       1.0000 0.91530  0.78970  0.99680  Biso   1.000  N
  N5       1.0000 0.88380  0.42910  0.54920  Biso   1.000  N
  N6       1.0000 0.11620  0.92910  0.95080  Biso   1.000  N
  N7       1.0000 0.11620  0.57090  0.45080  Biso   1.000  N
  N8       1.0000 0.88380  0.07090  0.04920  Biso   1.000  N
  N9       1.0000 0.00440  0.39180  0.67800  Biso   1.000  N
  N10      1.0000 0.99560  0.89180  0.82200  Biso   1.000  N
  N11      1.0000 0.99560  0.60820  0.32200  Biso   1.000  N
  N12      1.0000 0.00440  0.10820  0.17800  Biso   1.000  N
  N13      1.0000 0.99980  0.25640  0.72830  Biso   1.000  N
  N14      1.0000 0.00020  0.75640  0.77170  Biso   1.000  N
  N15      1.0000 0.00020  0.74360  0.27170  Biso   1.000  N
  N16      1.0000 0.99980  0.24360  0.22830  Biso   1.000  N
  N17      1.0000 0.05070  0.21700  0.78420  Biso   1.000  N
  N18      1.0000 0.94930  0.71700  0.71580  Biso   1.000  N
  N19      1.0000 0.94930  0.78300  0.21580  Biso   1.000  N
  N20      1.0000 0.05070  0.28300  0.28420  Biso   1.000  N
  N21      1.0000 0.59140  0.71750  0.58410  Biso   1.000  N
  N22      1.0000 0.40860  0.21750  0.91590  Biso   1.000  N
  N23      1.0000 0.40860  0.28250  0.41590  Biso   1.000  N
  N24      1.0000 0.59140  0.78250  0.08410  Biso   1.000  N
  N25      1.0000 0.62370  0.43400  0.66380  Biso   1.000  N
  N26      1.0000 0.37630  0.93400  0.83620  Biso   1.000  N
  N27      1.0000 0.37630  0.56600  0.33620  Biso   1.000  N
  N28      1.0000 0.62370  0.06600  0.16380  Biso   1.000  N
  N29      1.0000 0.50090  0.38670  0.67400  Biso   1.000  N
  N30      1.0000 0.49910  0.88670  0.82600  Biso   1.000  N
  N31      1.0000 0.49910  0.61330  0.32600  Biso   1.000  N
  N32      1.0000 0.50090  0.11330  0.17400  Biso   1.000  N
  N33      1.0000 0.50410  0.25240  0.72960  Biso   1.000  N
  N34      1.0000 0.49590  0.75240  0.77040  Biso   1.000  N
  N35      1.0000 0.49590  0.74760  0.27040  Biso   1.000  N
  N36      1.0000 0.50410  0.24760  0.22960  Biso   1.000  N
  N37      1.0000 0.45280  0.21330  0.73560  Biso   1.000  N
  N38      1.0000 0.54720  0.71330  0.76440  Biso   1.000  N
  N39      1.0000 0.54720  0.78670  0.26440  Biso   1.000  N
  N40      1.0000 0.45280  0.28670  0.23560  Biso   1.000  N
  O1       1.0000 0.03040  0.65380  0.59340  Biso   1.000  O
  O2       1.0000 0.96960  0.15380  0.90660  Biso   1.000  O
  O3       1.0000 0.96960  0.34620  0.40660  Biso   1.000  O
  O4       1.0000 0.03040  0.84620  0.09340  Biso   1.000  O
  O5       1.0000 0.12060  0.64880  0.68000  Biso   1.000  O
  O6       1.0000 0.87940  0.14880  0.82000  Biso   1.000  O
  O7       1.0000 0.87940  0.35120  0.32000  Biso   1.000  O
  O8       1.0000 0.12060  0.85120  0.18000  Biso   1.000  O
  O9       1.0000 0.18060  0.44150  0.79270  Biso   1.000  O
  O10      1.0000 0.81940  0.94150  0.70730  Biso   1.000  O
  O11      1.0000 0.81940  0.55850  0.20730  Biso   1.000  O
  O12      1.0000 0.18060  0.05850  0.29270  Biso   1.000  O
  H65      1.0000 0.15940  0.50930  0.75650  Biso   1.000  H
  H66      1.0000 0.84060  0.00930  0.74350  Biso   1.000  H
  H67      1.0000 0.84060  0.49070  0.24350  Biso   1.000  H
  H68      1.0000 0.15940  0.99070  0.25650  Biso   1.000  H
  O13      1.0000 0.17120  0.20880  0.86540  Biso   1.000  O
  O14      1.0000 0.82880  0.70880  0.63460  Biso   1.000  O
  O15      1.0000 0.82880  0.79120  0.13460  Biso   1.000  O
  O16      1.0000 0.17120  0.29120  0.36540  Biso   1.000  O
  O17      1.0000 0.47560  0.64480  0.56350  Biso   1.000  O
  O18      1.0000 0.52440  0.14480  0.93650  Biso   1.000  O
  O19      1.0000 0.52440  0.35520  0.43650  Biso   1.000  O
  O20      1.0000 0.47560  0.85520  0.06350  Biso   1.000  O
  O21      1.0000 0.38410  0.63600  0.55780  Biso   1.000  O
  O22      1.0000 0.61590  0.13600  0.94220  Biso   1.000  O
  O23      1.0000 0.61590  0.36400  0.44220  Biso   1.000  O
  O24      1.0000 0.38410  0.86400  0.05780  Biso   1.000  O
  O25      1.0000 0.32530  0.43750  0.62030  Biso   1.000  O
  O26      1.0000 0.67470  0.93750  0.87970  Biso   1.000  O
  O27      1.0000 0.67470  0.56250  0.37970  Biso   1.000  O
  O28      1.0000 0.32530  0.06250  0.12030  Biso   1.000  O
  H69      1.0000 0.34780  0.50840  0.60990  Biso   1.000  H
  H70      1.0000 0.65220  0.00840  0.89010  Biso   1.000  H
  H71      1.0000 0.65220  0.49160  0.39010  Biso   1.000  H
  H72      1.0000 0.34780  0.99160  0.10990  Biso   1.000  H
  O29      1.0000 0.33040  0.20230  0.69720  Biso   1.000  O
  O30      1.0000 0.66960  0.70230  0.80280  Biso   1.000  O
  O31      1.0000 0.66960  0.79770  0.30280  Biso   1.000  O
  O32      1.0000 0.33040  0.29770  0.19720  Biso   1.000  O
