data_image0
_cell_length_a       22.587
_cell_length_b       8.3906
_cell_length_c       14.932
_cell_angle_alpha    90
_cell_angle_beta     97.38
_cell_angle_gamma    90

_symmetry_space_group_name_H-M    "P 1"
_symmetry_int_tables_number       1

loop_
  _symmetry_equiv_pos_as_xyz
  'x, y, z'

loop_
  _atom_site_label
  _atom_site_occupancy
  _atom_site_fract_x
  _atom_site_fract_y
  _atom_site_fract_z
  _atom_site_thermal_displace_type
  _atom_site_B_iso_or_equiv
  _atom_site_type_symbol
  Cu1      1.0000 0.29544  0.15151  0.90073  Biso   1.000  Cu
  Cu2      1.0000 0.70456  0.15151  0.59927  Biso   1.000  Cu
  Cu3      1.0000 0.79544  0.65151  0.90073  Biso   1.000  Cu
  Cu4      1.0000 0.20456  0.65151  0.59927  Biso   1.000  Cu
  Cu5      1.0000 0.70456  0.84849  0.09927  Biso   1.000  Cu
  Cu6      1.0000 0.29544  0.84849  0.40073  Biso   1.000  Cu
  Cu7      1.0000 0.20456  0.34849  0.09927  Biso   1.000  Cu
  Cu8      1.0000 0.79544  0.34849  0.40073  Biso   1.000  Cu
  O1       1.0000 0.21447  0.07700  0.92210  Biso   1.000  O
  O2       1.0000 0.78553  0.07700  0.57790  Biso   1.000  O
  O3       1.0000 0.71447  0.57700  0.92210  Biso   1.000  O
  O4       1.0000 0.28553  0.57700  0.57790  Biso   1.000  O
  O5       1.0000 0.78553  0.92300  0.07790  Biso   1.000  O
  O6       1.0000 0.21447  0.92300  0.42210  Biso   1.000  O
  O7       1.0000 0.28553  0.42300  0.07790  Biso   1.000  O
  O8       1.0000 0.71447  0.42300  0.42210  Biso   1.000  O
  N1       1.0000 0.24840  0.29560  0.81280  Biso   1.000  N
  N2       1.0000 0.75160  0.29560  0.68720  Biso   1.000  N
  N3       1.0000 0.74840  0.79560  0.81280  Biso   1.000  N
  N4       1.0000 0.25160  0.79560  0.68720  Biso   1.000  N
  N5       1.0000 0.75160  0.70440  0.18720  Biso   1.000  N
  N6       1.0000 0.24840  0.70440  0.31280  Biso   1.000  N
  N7       1.0000 0.25160  0.20440  0.18720  Biso   1.000  N
  N8       1.0000 0.74840  0.20440  0.31280  Biso   1.000  N
  O9       1.0000 0.06310  0.25170  0.73350  Biso   1.000  O
  O10      1.0000 0.93690  0.25170  0.76650  Biso   1.000  O
  O11      1.0000 0.56310  0.75170  0.73350  Biso   1.000  O
  O12      1.0000 0.43690  0.75170  0.76650  Biso   1.000  O
  O13      1.0000 0.93690  0.74830  0.26650  Biso   1.000  O
  O14      1.0000 0.06310  0.74830  0.23350  Biso   1.000  O
  O15      1.0000 0.43690  0.24830  0.26650  Biso   1.000  O
  O16      1.0000 0.56310  0.24830  0.23350  Biso   1.000  O
  O17      1.0000 0.07832  0.44130  0.63790  Biso   1.000  O
  O18      1.0000 0.92168  0.44130  0.86210  Biso   1.000  O
  O19      1.0000 0.57832  0.94130  0.63790  Biso   1.000  O
  O20      1.0000 0.42168  0.94130  0.86210  Biso   1.000  O
  O21      1.0000 0.92168  0.55870  0.36210  Biso   1.000  O
  O22      1.0000 0.07832  0.55870  0.13790  Biso   1.000  O
  O23      1.0000 0.42168  0.05870  0.36210  Biso   1.000  O
  O24      1.0000 0.57832  0.05870  0.13790  Biso   1.000  O
  N9       1.0000 0.37533  0.25340  0.91310  Biso   1.000  N
  N10      1.0000 0.62467  0.25340  0.58690  Biso   1.000  N
  N11      1.0000 0.87533  0.75340  0.91310  Biso   1.000  N
  N12      1.0000 0.12467  0.75340  0.58690  Biso   1.000  N
  N13      1.0000 0.62467  0.74660  0.08690  Biso   1.000  N
  N14      1.0000 0.37533  0.74660  0.41310  Biso   1.000  N
  N15      1.0000 0.12467  0.24660  0.08690  Biso   1.000  N
  N16      1.0000 0.87533  0.24660  0.41310  Biso   1.000  N
  C1       1.0000 0.16179  0.34820  0.73480  Biso   1.000  C
  C2       1.0000 0.83821  0.34820  0.76520  Biso   1.000  C
  C3       1.0000 0.66179  0.84820  0.73480  Biso   1.000  C
  C4       1.0000 0.33821  0.84820  0.76520  Biso   1.000  C
  C5       1.0000 0.83821  0.65180  0.26520  Biso   1.000  C
  C6       1.0000 0.16179  0.65180  0.23480  Biso   1.000  C
  C7       1.0000 0.33821  0.15180  0.26520  Biso   1.000  C
  C8       1.0000 0.66179  0.15180  0.23480  Biso   1.000  C
  C9       1.0000 0.09778  0.35100  0.69750  Biso   1.000  C
  C10      1.0000 0.90222  0.35100  0.80250  Biso   1.000  C
  C11      1.0000 0.59778  0.85100  0.69750  Biso   1.000  C
  C12      1.0000 0.40222  0.85100  0.80250  Biso   1.000  C
  C13      1.0000 0.90222  0.64900  0.30250  Biso   1.000  C
  C14      1.0000 0.09778  0.64900  0.19750  Biso   1.000  C
  C15      1.0000 0.40222  0.14900  0.30250  Biso   1.000  C
  C16      1.0000 0.59778  0.14900  0.19750  Biso   1.000  C
  N17      1.0000 0.33314  0.03180  0.00720  Biso   1.000  N
  N18      1.0000 0.66686  0.03180  0.49280  Biso   1.000  N
  N19      1.0000 0.83314  0.53180  0.00720  Biso   1.000  N
  N20      1.0000 0.16686  0.53180  0.49280  Biso   1.000  N
  N21      1.0000 0.66686  0.96820  0.99280  Biso   1.000  N
  N22      1.0000 0.33314  0.96820  0.50720  Biso   1.000  N
  N23      1.0000 0.16686  0.46820  0.99280  Biso   1.000  N
  N24      1.0000 0.83314  0.46820  0.50720  Biso   1.000  N
  N25      1.0000 0.25612  0.41050  0.75340  Biso   1.000  N
  N26      1.0000 0.74388  0.41050  0.74660  Biso   1.000  N
  N27      1.0000 0.75612  0.91050  0.75340  Biso   1.000  N
  N28      1.0000 0.24388  0.91050  0.74660  Biso   1.000  N
  N29      1.0000 0.74388  0.58950  0.24660  Biso   1.000  N
  N30      1.0000 0.25612  0.58950  0.25340  Biso   1.000  N
  N31      1.0000 0.24388  0.08950  0.24660  Biso   1.000  N
  N32      1.0000 0.75612  0.08950  0.25340  Biso   1.000  N
  O25      1.0000 0.11940  0.08240  0.85690  Biso   1.000  O
  O26      1.0000 0.88060  0.08240  0.64310  Biso   1.000  O
  O27      1.0000 0.61940  0.58240  0.85690  Biso   1.000  O
  O28      1.0000 0.38060  0.58240  0.64310  Biso   1.000  O
  O29      1.0000 0.88060  0.91760  0.14310  Biso   1.000  O
  O30      1.0000 0.11940  0.91760  0.35690  Biso   1.000  O
  O31      1.0000 0.38060  0.41760  0.14310  Biso   1.000  O
  O32      1.0000 0.61940  0.41760  0.35690  Biso   1.000  O
  C17      1.0000 0.19039  0.25390  0.80350  Biso   1.000  C
  C18      1.0000 0.80961  0.25390  0.69650  Biso   1.000  C
  C19      1.0000 0.69039  0.75390  0.80350  Biso   1.000  C
  C20      1.0000 0.30961  0.75390  0.69650  Biso   1.000  C
  C21      1.0000 0.80961  0.74610  0.19650  Biso   1.000  C
  C22      1.0000 0.19039  0.74610  0.30350  Biso   1.000  C
  C23      1.0000 0.30961  0.24610  0.19650  Biso   1.000  C
  C24      1.0000 0.69039  0.24610  0.30350  Biso   1.000  C
  C25      1.0000 0.39680  0.86300  0.14550  Biso   1.000  C
  C26      1.0000 0.60320  0.86300  0.35450  Biso   1.000  C
  C27      1.0000 0.89680  0.36300  0.14550  Biso   1.000  C
  C28      1.0000 0.10320  0.36300  0.35450  Biso   1.000  C
  C29      1.0000 0.60320  0.13700  0.85450  Biso   1.000  C
  C30      1.0000 0.39680  0.13700  0.64550  Biso   1.000  C
  C31      1.0000 0.10320  0.63700  0.85450  Biso   1.000  C
  C32      1.0000 0.89680  0.63700  0.64550  Biso   1.000  C
  H1       1.0000 0.41870  0.80450  0.19310  Biso   1.000  H
  H2       1.0000 0.58130  0.80450  0.30690  Biso   1.000  H
  H3       1.0000 0.91870  0.30450  0.19310  Biso   1.000  H
  H4       1.0000 0.08130  0.30450  0.30690  Biso   1.000  H
  H5       1.0000 0.58130  0.19550  0.80690  Biso   1.000  H
  H6       1.0000 0.41870  0.19550  0.69310  Biso   1.000  H
  H7       1.0000 0.08130  0.69550  0.80690  Biso   1.000  H
  H8       1.0000 0.91870  0.69550  0.69310  Biso   1.000  H
  C33      1.0000 0.39101  0.06740  0.03310  Biso   1.000  C
  C34      1.0000 0.60899  0.06740  0.46690  Biso   1.000  C
  C35      1.0000 0.89101  0.56740  0.03310  Biso   1.000  C
  C36      1.0000 0.10899  0.56740  0.46690  Biso   1.000  C
  C37      1.0000 0.60899  0.93260  0.96690  Biso   1.000  C
  C38      1.0000 0.39101  0.93260  0.53310  Biso   1.000  C
  C39      1.0000 0.10899  0.43260  0.96690  Biso   1.000  C
  C40      1.0000 0.89101  0.43260  0.53310  Biso   1.000  C
  C41      1.0000 0.33780  0.82650  0.11780  Biso   1.000  C
  C42      1.0000 0.66220  0.82650  0.38220  Biso   1.000  C
  C43      1.0000 0.83780  0.32650  0.11780  Biso   1.000  C
  C44      1.0000 0.16220  0.32650  0.38220  Biso   1.000  C
  C45      1.0000 0.66220  0.17350  0.88220  Biso   1.000  C
  C46      1.0000 0.33780  0.17350  0.61780  Biso   1.000  C
  C47      1.0000 0.16220  0.67350  0.88220  Biso   1.000  C
  C48      1.0000 0.83780  0.67350  0.61780  Biso   1.000  C
  H9       1.0000 0.31890  0.74170  0.14540  Biso   1.000  H
  H10      1.0000 0.68110  0.74170  0.35460  Biso   1.000  H
  H11      1.0000 0.81890  0.24170  0.14540  Biso   1.000  H
  H12      1.0000 0.18110  0.24170  0.35460  Biso   1.000  H
  H13      1.0000 0.68110  0.25830  0.85460  Biso   1.000  H
  H14      1.0000 0.31890  0.25830  0.64540  Biso   1.000  H
  H15      1.0000 0.18110  0.75830  0.85460  Biso   1.000  H
  H16      1.0000 0.81890  0.75830  0.64540  Biso   1.000  H
  C49      1.0000 0.49328  0.35110  0.93410  Biso   1.000  C
  C50      1.0000 0.50672  0.35110  0.56590  Biso   1.000  C
  C51      1.0000 0.99328  0.85110  0.93410  Biso   1.000  C
  C52      1.0000 0.00672  0.85110  0.56590  Biso   1.000  C
  C53      1.0000 0.50672  0.64890  0.06590  Biso   1.000  C
  C54      1.0000 0.49328  0.64890  0.43410  Biso   1.000  C
  C55      1.0000 0.00672  0.14890  0.06590  Biso   1.000  C
  C56      1.0000 0.99328  0.14890  0.43410  Biso   1.000  C
  H17      1.0000 0.53390  0.38350  0.94040  Biso   1.000  H
  H18      1.0000 0.46610  0.38350  0.55960  Biso   1.000  H
  H19      1.0000 0.03390  0.88350  0.94040  Biso   1.000  H
  H20      1.0000 0.96610  0.88350  0.55960  Biso   1.000  H
  H21      1.0000 0.46610  0.61650  0.05960  Biso   1.000  H
  H22      1.0000 0.53390  0.61650  0.44040  Biso   1.000  H
  H23      1.0000 0.96610  0.11650  0.05960  Biso   1.000  H
  H24      1.0000 0.03390  0.11650  0.44040  Biso   1.000  H
  C57      1.0000 0.42390  0.98440  0.10390  Biso   1.000  C
  C58      1.0000 0.57610  0.98440  0.39610  Biso   1.000  C
  C59      1.0000 0.92390  0.48440  0.10390  Biso   1.000  C
  C60      1.0000 0.07610  0.48440  0.39610  Biso   1.000  C
  C61      1.0000 0.57610  0.01560  0.89610  Biso   1.000  C
  C62      1.0000 0.42390  0.01560  0.60390  Biso   1.000  C
  C63      1.0000 0.07610  0.51560  0.89610  Biso   1.000  C
  C64      1.0000 0.92390  0.51560  0.60390  Biso   1.000  C
  H25      1.0000 0.46440  0.01130  0.12300  Biso   1.000  H
  H26      1.0000 0.53560  0.01130  0.37700  Biso   1.000  H
  H27      1.0000 0.96440  0.51130  0.12300  Biso   1.000  H
  H28      1.0000 0.03560  0.51130  0.37700  Biso   1.000  H
  H29      1.0000 0.53560  0.98870  0.87700  Biso   1.000  H
  H30      1.0000 0.46440  0.98870  0.62300  Biso   1.000  H
  H31      1.0000 0.03560  0.48870  0.87700  Biso   1.000  H
  H32      1.0000 0.96440  0.48870  0.62300  Biso   1.000  H
  C65      1.0000 0.39430  0.36420  0.85800  Biso   1.000  C
  C66      1.0000 0.60570  0.36420  0.64200  Biso   1.000  C
  C67      1.0000 0.89430  0.86420  0.85800  Biso   1.000  C
  C68      1.0000 0.10570  0.86420  0.64200  Biso   1.000  C
  C69      1.0000 0.60570  0.63580  0.14200  Biso   1.000  C
  C70      1.0000 0.39430  0.63580  0.35800  Biso   1.000  C
  C71      1.0000 0.10570  0.13580  0.14200  Biso   1.000  C
  C72      1.0000 0.89430  0.13580  0.35800  Biso   1.000  C
  H33      1.0000 0.36640  0.40990  0.81210  Biso   1.000  H
  H34      1.0000 0.63360  0.40990  0.68790  Biso   1.000  H
  H35      1.0000 0.86640  0.90990  0.81210  Biso   1.000  H
  H36      1.0000 0.13360  0.90990  0.68790  Biso   1.000  H
  H37      1.0000 0.63360  0.59010  0.18790  Biso   1.000  H
  H38      1.0000 0.36640  0.59010  0.31210  Biso   1.000  H
  H39      1.0000 0.13360  0.09010  0.18790  Biso   1.000  H
  H40      1.0000 0.86640  0.09010  0.31210  Biso   1.000  H
  C73      1.0000 0.17271  0.12900  0.86420  Biso   1.000  C
  C74      1.0000 0.82729  0.12900  0.63580  Biso   1.000  C
  C75      1.0000 0.67271  0.62900  0.86420  Biso   1.000  C
  C76      1.0000 0.32729  0.62900  0.63580  Biso   1.000  C
  C77      1.0000 0.82729  0.87100  0.13580  Biso   1.000  C
  C78      1.0000 0.17271  0.87100  0.36420  Biso   1.000  C
  C79      1.0000 0.32729  0.37100  0.13580  Biso   1.000  C
  C80      1.0000 0.67271  0.37100  0.36420  Biso   1.000  C
  C81      1.0000 0.30670  0.91490  0.04970  Biso   1.000  C
  C82      1.0000 0.69330  0.91490  0.45030  Biso   1.000  C
  C83      1.0000 0.80670  0.41490  0.04970  Biso   1.000  C
  C84      1.0000 0.19330  0.41490  0.45030  Biso   1.000  C
  C85      1.0000 0.69330  0.08510  0.95030  Biso   1.000  C
  C86      1.0000 0.30670  0.08510  0.54970  Biso   1.000  C
  C87      1.0000 0.19330  0.58510  0.95030  Biso   1.000  C
  C88      1.0000 0.80670  0.58510  0.54970  Biso   1.000  C
  H41      1.0000 0.26560  0.89290  0.03210  Biso   1.000  H
  H42      1.0000 0.73440  0.89290  0.46790  Biso   1.000  H
  H43      1.0000 0.76560  0.39290  0.03210  Biso   1.000  H
  H44      1.0000 0.23440  0.39290  0.46790  Biso   1.000  H
  H45      1.0000 0.73440  0.10710  0.96790  Biso   1.000  H
  H46      1.0000 0.26560  0.10710  0.53210  Biso   1.000  H
  H47      1.0000 0.23440  0.60710  0.96790  Biso   1.000  H
  H48      1.0000 0.76560  0.60710  0.53210  Biso   1.000  H
  C89      1.0000 0.41510  0.19300  0.97940  Biso   1.000  C
  C90      1.0000 0.58490  0.19300  0.52060  Biso   1.000  C
  C91      1.0000 0.91510  0.69300  0.97940  Biso   1.000  C
  C92      1.0000 0.08490  0.69300  0.52060  Biso   1.000  C
  C93      1.0000 0.58490  0.80700  0.02060  Biso   1.000  C
  C94      1.0000 0.41510  0.80700  0.47940  Biso   1.000  C
  C95      1.0000 0.08490  0.30700  0.02060  Biso   1.000  C
  C96      1.0000 0.91510  0.30700  0.47940  Biso   1.000  C
  C97      1.0000 0.47423  0.24090  0.99300  Biso   1.000  C
  C98      1.0000 0.52577  0.24090  0.50700  Biso   1.000  C
  C99      1.0000 0.97423  0.74090  0.99300  Biso   1.000  C
  C100     1.0000 0.02577  0.74090  0.50700  Biso   1.000  C
  C101     1.0000 0.52577  0.75910  0.00700  Biso   1.000  C
  C102     1.0000 0.47423  0.75910  0.49300  Biso   1.000  C
  C103     1.0000 0.02577  0.25910  0.00700  Biso   1.000  C
  C104     1.0000 0.97423  0.25910  0.49300  Biso   1.000  C
  H49      1.0000 0.50100  0.19920  0.04160  Biso   1.000  H
  H50      1.0000 0.49900  0.19920  0.45840  Biso   1.000  H
  H51      1.0000 0.00100  0.69920  0.04160  Biso   1.000  H
  H52      1.0000 0.99900  0.69920  0.45840  Biso   1.000  H
  H53      1.0000 0.49900  0.80080  0.95840  Biso   1.000  H
  H54      1.0000 0.50100  0.80080  0.54160  Biso   1.000  H
  H55      1.0000 0.99900  0.30080  0.95840  Biso   1.000  H
  H56      1.0000 0.00100  0.30080  0.54160  Biso   1.000  H
  C105     1.0000 0.45310  0.41320  0.86630  Biso   1.000  C
  C106     1.0000 0.54690  0.41320  0.63370  Biso   1.000  C
  C107     1.0000 0.95310  0.91320  0.86630  Biso   1.000  C
  C108     1.0000 0.04690  0.91320  0.63370  Biso   1.000  C
  C109     1.0000 0.54690  0.58680  0.13370  Biso   1.000  C
  C110     1.0000 0.45310  0.58680  0.36630  Biso   1.000  C
  C111     1.0000 0.04690  0.08680  0.13370  Biso   1.000  C
  C112     1.0000 0.95310  0.08680  0.36630  Biso   1.000  C
  H57      1.0000 0.46560  0.48920  0.82550  Biso   1.000  H
  H58      1.0000 0.53440  0.48920  0.67450  Biso   1.000  H
  H59      1.0000 0.96560  0.98920  0.82550  Biso   1.000  H
  H60      1.0000 0.03440  0.98920  0.67450  Biso   1.000  H
  H61      1.0000 0.53440  0.51080  0.17450  Biso   1.000  H
  H62      1.0000 0.46560  0.51080  0.32550  Biso   1.000  H
  H63      1.0000 0.03440  0.01080  0.17450  Biso   1.000  H
  H64      1.0000 0.96560  0.01080  0.32550  Biso   1.000  H
  H65      1.0000 0.08100  0.19700  0.77700  Biso   1.000  H
  H66      1.0000 0.91900  0.19700  0.72300  Biso   1.000  H
  H67      1.0000 0.58100  0.69700  0.77700  Biso   1.000  H
  H68      1.0000 0.41900  0.69700  0.72300  Biso   1.000  H
  H69      1.0000 0.91900  0.80300  0.22300  Biso   1.000  H
  H70      1.0000 0.08100  0.80300  0.27700  Biso   1.000  H
  H71      1.0000 0.41900  0.30300  0.22300  Biso   1.000  H
  H72      1.0000 0.58100  0.30300  0.27700  Biso   1.000  H
  N33      1.0000 0.20343  0.44480  0.70580  Biso   1.000  N
  N34      1.0000 0.79657  0.44480  0.79420  Biso   1.000  N
  N35      1.0000 0.70343  0.94480  0.70580  Biso   1.000  N
  N36      1.0000 0.29657  0.94480  0.79420  Biso   1.000  N
  N37      1.0000 0.79657  0.55520  0.29420  Biso   1.000  N
  N38      1.0000 0.20343  0.55520  0.20580  Biso   1.000  N
  N39      1.0000 0.29657  0.05520  0.29420  Biso   1.000  N
  N40      1.0000 0.70343  0.05520  0.20580  Biso   1.000  N
