data_image0
_cell_length_a       7.796
_cell_length_b       8.435
_cell_length_c       13.477
_cell_angle_alpha    82.95
_cell_angle_beta     77.25
_cell_angle_gamma    72.47

_symmetry_space_group_name_H-M    "P 1"
_symmetry_int_tables_number       1

loop_
  _symmetry_equiv_pos_as_xyz
  'x, y, z'

loop_
  _atom_site_label
  _atom_site_occupancy
  _atom_site_fract_x
  _atom_site_fract_y
  _atom_site_fract_z
  _atom_site_thermal_displace_type
  _atom_site_B_iso_or_equiv
  _atom_site_type_symbol
  Cu1      1.0000 0.47891  0.29815  0.69718  Biso   1.000  Cu
  Cu2      1.0000 0.52109  0.70185  0.30282  Biso   1.000  Cu
  Cl1      1.0000 0.80565  0.24328  0.87780  Biso   1.000  Cl
  Cl2      1.0000 0.19435  0.75672  0.12220  Biso   1.000  Cl
  N1       1.0000 0.29150  0.27390  0.58860  Biso   1.000  N
  N2       1.0000 0.70850  0.72610  0.41140  Biso   1.000  N
  O1       1.0000 0.61990  0.33090  0.86720  Biso   1.000  O
  O2       1.0000 0.38010  0.66910  0.13280  Biso   1.000  O
  O3       1.0000 0.85360  0.30680  0.95770  Biso   1.000  O
  O4       1.0000 0.14640  0.69320  0.04230  Biso   1.000  O
  O5       1.0000 0.81950  0.06990  0.89840  Biso   1.000  O
  O6       1.0000 0.18050  0.93010  0.10160  Biso   1.000  O
  O7       1.0000 0.92610  0.26870  0.78260  Biso   1.000  O
  O8       1.0000 0.07390  0.73130  0.21740  Biso   1.000  O
  N3       1.0000 0.27360  0.29540  0.81670  Biso   1.000  N
  N4       1.0000 0.72640  0.70460  0.18330  Biso   1.000  N
  H1       1.0000 0.17870  0.28640  0.79080  Biso   1.000  H
  H2       1.0000 0.82130  0.71360  0.20920  Biso   1.000  H
  N5       1.0000 0.55980  0.05540  0.73610  Biso   1.000  N
  N6       1.0000 0.44020  0.94460  0.26390  Biso   1.000  N
  N7       1.0000 0.36730  0.54310  0.70110  Biso   1.000  N
  N8       1.0000 0.63270  0.45690  0.29890  Biso   1.000  N
  N9       1.0000 0.70510  0.30670  0.60040  Biso   1.000  N
  N10      1.0000 0.29490  0.69330  0.39960  Biso   1.000  N
  C1       1.0000 0.40320  0.65750  0.62700  Biso   1.000  C
  C2       1.0000 0.59680  0.34250  0.37300  Biso   1.000  C
  H3       1.0000 0.49510  0.62330  0.57050  Biso   1.000  H
  H4       1.0000 0.50490  0.37670  0.42950  Biso   1.000  H
  C3       1.0000 0.30810  0.82360  0.63220  Biso   1.000  C
  C4       1.0000 0.69190  0.17640  0.36780  Biso   1.000  C
  H5       1.0000 0.33500  0.90030  0.57990  Biso   1.000  H
  H6       1.0000 0.66500  0.09970  0.42010  Biso   1.000  H
  C5       1.0000 0.17250  0.87490  0.71620  Biso   1.000  C
  C6       1.0000 0.82750  0.12510  0.28380  Biso   1.000  C
  H7       1.0000 0.10660  0.98660  0.72120  Biso   1.000  H
  H8       1.0000 0.89340  0.01340  0.27880  Biso   1.000  H
  C7       1.0000 0.13560  0.75710  0.79340  Biso   1.000  C
  C8       1.0000 0.86440  0.24290  0.20660  Biso   1.000  C
  H9       1.0000 0.04500  0.78880  0.85080  Biso   1.000  H
  H10      1.0000 0.95500  0.21120  0.14920  Biso   1.000  H
  C9       1.0000 0.23570  0.59250  0.78330  Biso   1.000  C
  C10      1.0000 0.76430  0.40750  0.21670  Biso   1.000  C
  C11      1.0000 0.20880  0.45630  0.86440  Biso   1.000  C
  C12      1.0000 0.79120  0.54370  0.13560  Biso   1.000  C
  H11      1.0000 0.27730  0.45330  0.91690  Biso   1.000  H
  H12      1.0000 0.72270  0.54670  0.08310  Biso   1.000  H
  H13      1.0000 0.08010  0.47820  0.89580  Biso   1.000  H
  H14      1.0000 0.91990  0.52180  0.10420  Biso   1.000  H
  C13      1.0000 0.69280  0.93800  0.68200  Biso   1.000  C
  C14      1.0000 0.30720  0.06200  0.31800  Biso   1.000  C
  H15      1.0000 0.75730  0.97020  0.62000  Biso   1.000  H
  H16      1.0000 0.24270  0.02980  0.38000  Biso   1.000  H
  C15      1.0000 0.73720  0.77250  0.71460  Biso   1.000  C
  C16      1.0000 0.26280  0.22750  0.28540  Biso   1.000  C
  H17      1.0000 0.83040  0.69440  0.67570  Biso   1.000  H
  H18      1.0000 0.16960  0.30560  0.32430  Biso   1.000  H
  C17      1.0000 0.64050  0.72400  0.80650  Biso   1.000  C
  C18      1.0000 0.35950  0.27600  0.19350  Biso   1.000  C
  H19      1.0000 0.66740  0.61270  0.83020  Biso   1.000  H
  H20      1.0000 0.33260  0.38730  0.16980  Biso   1.000  H
  C19      1.0000 0.50330  0.84360  0.86270  Biso   1.000  C
  C20      1.0000 0.49670  0.15640  0.13730  Biso   1.000  C
  H21      1.0000 0.43660  0.81340  0.92440  Biso   1.000  H
  H22      1.0000 0.56340  0.18660  0.07560  Biso   1.000  H
  C21      1.0000 0.46640  0.00870  0.82590  Biso   1.000  C
  C22      1.0000 0.53360  0.99130  0.17410  Biso   1.000  C
  C23      1.0000 0.32390  0.14570  0.88480  Biso   1.000  C
  C24      1.0000 0.67610  0.85430  0.11520  Biso   1.000  C
  H23      1.0000 0.21590  0.10920  0.91480  Biso   1.000  H
  H24      1.0000 0.78410  0.89080  0.08520  Biso   1.000  H
  H25      1.0000 0.37160  0.17160  0.93960  Biso   1.000  H
  H26      1.0000 0.62840  0.82840  0.06040  Biso   1.000  H
  C25      1.0000 0.85760  0.29320  0.57020  Biso   1.000  C
  C26      1.0000 0.14240  0.70680  0.42980  Biso   1.000  C
  N11      1.0000 0.02560  0.26820  0.52370  Biso   1.000  N
  N12      1.0000 0.97440  0.73180  0.47630  Biso   1.000  N
  C27      1.0000 0.15890  0.27840  0.56370  Biso   1.000  C
  C28      1.0000 0.84110  0.72160  0.43630  Biso   1.000  C
