data_image0
_cell_length_a       13.935
_cell_length_b       12.0572
_cell_length_c       18.476
_cell_angle_alpha    90
_cell_angle_beta     99.936
_cell_angle_gamma    90

_symmetry_space_group_name_H-M    "P 1"
_symmetry_int_tables_number       1

loop_
  _symmetry_equiv_pos_as_xyz
  'x, y, z'

loop_
  _atom_site_label
  _atom_site_occupancy
  _atom_site_fract_x
  _atom_site_fract_y
  _atom_site_fract_z
  _atom_site_thermal_displace_type
  _atom_site_B_iso_or_equiv
  _atom_site_type_symbol
  Cu1      1.0000 0.00000  0.46482  0.75000  Biso   1.000  Cu
  Cu2      1.0000 0.50000  0.96482  0.75000  Biso   1.000  Cu
  Cu3      1.0000 0.00000  0.53518  0.25000  Biso   1.000  Cu
  Cu4      1.0000 0.50000  0.03518  0.25000  Biso   1.000  Cu
  Cu5      1.0000 0.75000  0.25000  0.00000  Biso   1.000  Cu
  Cu6      1.0000 0.25000  0.25000  0.50000  Biso   1.000  Cu
  Cu7      1.0000 0.25000  0.75000  0.00000  Biso   1.000  Cu
  Cu8      1.0000 0.75000  0.75000  0.50000  Biso   1.000  Cu
  C1       1.0000 0.95160  0.59310  0.88270  Biso   1.000  C
  C2       1.0000 0.04840  0.59310  0.61730  Biso   1.000  C
  C3       1.0000 0.45160  0.09310  0.88270  Biso   1.000  C
  C4       1.0000 0.54840  0.09310  0.61730  Biso   1.000  C
  C5       1.0000 0.04840  0.40690  0.11730  Biso   1.000  C
  C6       1.0000 0.95160  0.40690  0.38270  Biso   1.000  C
  C7       1.0000 0.54840  0.90690  0.11730  Biso   1.000  C
  C8       1.0000 0.45160  0.90690  0.38270  Biso   1.000  C
  C9       1.0000 0.91330  0.48130  0.88900  Biso   1.000  C
  C10      1.0000 0.08670  0.48130  0.61100  Biso   1.000  C
  C11      1.0000 0.41330  0.98130  0.88900  Biso   1.000  C
  C12      1.0000 0.58670  0.98130  0.61100  Biso   1.000  C
  C13      1.0000 0.08670  0.51870  0.11100  Biso   1.000  C
  C14      1.0000 0.91330  0.51870  0.38900  Biso   1.000  C
  C15      1.0000 0.58670  0.01870  0.11100  Biso   1.000  C
  C16      1.0000 0.41330  0.01870  0.38900  Biso   1.000  C
  C17      1.0000 0.86420  0.43430  0.94090  Biso   1.000  C
  C18      1.0000 0.13580  0.43430  0.55910  Biso   1.000  C
  C19      1.0000 0.36420  0.93430  0.94090  Biso   1.000  C
  C20      1.0000 0.63580  0.93430  0.55910  Biso   1.000  C
  C21      1.0000 0.13580  0.56570  0.05910  Biso   1.000  C
  C22      1.0000 0.86420  0.56570  0.44090  Biso   1.000  C
  C23      1.0000 0.63580  0.06570  0.05910  Biso   1.000  C
  C24      1.0000 0.36420  0.06570  0.44090  Biso   1.000  C
  C25      1.0000 0.83650  0.48230  0.00670  Biso   1.000  C
  C26      1.0000 0.16350  0.48230  0.49330  Biso   1.000  C
  C27      1.0000 0.33650  0.98230  0.00670  Biso   1.000  C
  C28      1.0000 0.66350  0.98230  0.49330  Biso   1.000  C
  C29      1.0000 0.16350  0.51770  0.99330  Biso   1.000  C
  C30      1.0000 0.83650  0.51770  0.50670  Biso   1.000  C
  C31      1.0000 0.66350  0.01770  0.99330  Biso   1.000  C
  C32      1.0000 0.33650  0.01770  0.50670  Biso   1.000  C
  C33      1.0000 0.88340  0.30900  0.86190  Biso   1.000  C
  C34      1.0000 0.11660  0.30900  0.63810  Biso   1.000  C
  C35      1.0000 0.38340  0.80900  0.86190  Biso   1.000  C
  C36      1.0000 0.61660  0.80900  0.63810  Biso   1.000  C
  C37      1.0000 0.11660  0.69100  0.13810  Biso   1.000  C
  C38      1.0000 0.88340  0.69100  0.36190  Biso   1.000  C
  C39      1.0000 0.61660  0.19100  0.13810  Biso   1.000  C
  C40      1.0000 0.38340  0.19100  0.36190  Biso   1.000  C
  C41      1.0000 0.88110  0.20110  0.82220  Biso   1.000  C
  C42      1.0000 0.11890  0.20110  0.67780  Biso   1.000  C
  C43      1.0000 0.38110  0.70110  0.82220  Biso   1.000  C
  C44      1.0000 0.61890  0.70110  0.67780  Biso   1.000  C
  C45      1.0000 0.11890  0.79890  0.17780  Biso   1.000  C
  C46      1.0000 0.88110  0.79890  0.32220  Biso   1.000  C
  C47      1.0000 0.61890  0.29890  0.17780  Biso   1.000  C
  C48      1.0000 0.38110  0.29890  0.32220  Biso   1.000  C
  C49      1.0000 0.89140  0.10290  0.86230  Biso   1.000  C
  C50      1.0000 0.10860  0.10290  0.63770  Biso   1.000  C
  C51      1.0000 0.39140  0.60290  0.86230  Biso   1.000  C
  C52      1.0000 0.60860  0.60290  0.63770  Biso   1.000  C
  C53      1.0000 0.10860  0.89710  0.13770  Biso   1.000  C
  C54      1.0000 0.89140  0.89710  0.36230  Biso   1.000  C
  C55      1.0000 0.60860  0.39710  0.13770  Biso   1.000  C
  C56      1.0000 0.39140  0.39710  0.36230  Biso   1.000  C
  H1       1.0000 0.90010  0.10520  0.91340  Biso   1.000  H
  H2       1.0000 0.09990  0.10520  0.58660  Biso   1.000  H
  H3       1.0000 0.40010  0.60520  0.91340  Biso   1.000  H
  H4       1.0000 0.59990  0.60520  0.58660  Biso   1.000  H
  H5       1.0000 0.09990  0.89480  0.08660  Biso   1.000  H
  H6       1.0000 0.90010  0.89480  0.41340  Biso   1.000  H
  H7       1.0000 0.59990  0.39480  0.08660  Biso   1.000  H
  H8       1.0000 0.40010  0.39480  0.41340  Biso   1.000  H
  C57      1.0000 0.88850  0.00070  0.82600  Biso   1.000  C
  C58      1.0000 0.11150  0.00070  0.67400  Biso   1.000  C
  C59      1.0000 0.38850  0.50070  0.82600  Biso   1.000  C
  C60      1.0000 0.61150  0.50070  0.67400  Biso   1.000  C
  C61      1.0000 0.11150  0.99930  0.17400  Biso   1.000  C
  C62      1.0000 0.88850  0.99930  0.32600  Biso   1.000  C
  C63      1.0000 0.61150  0.49930  0.17400  Biso   1.000  C
  C64      1.0000 0.38850  0.49930  0.32600  Biso   1.000  C
  H9       1.0000 0.89480  0.93520  0.85290  Biso   1.000  H
  H10      1.0000 0.10520  0.93520  0.64710  Biso   1.000  H
  H11      1.0000 0.39480  0.43520  0.85290  Biso   1.000  H
  H12      1.0000 0.60520  0.43520  0.64710  Biso   1.000  H
  H13      1.0000 0.10520  0.06480  0.14710  Biso   1.000  H
  H14      1.0000 0.89480  0.06480  0.35290  Biso   1.000  H
  H15      1.0000 0.60520  0.56480  0.14710  Biso   1.000  H
  H16      1.0000 0.39480  0.56480  0.35290  Biso   1.000  H
  C65      1.0000 0.87630  0.99700  0.75090  Biso   1.000  C
  C66      1.0000 0.12370  0.99700  0.74910  Biso   1.000  C
  C67      1.0000 0.37630  0.49700  0.75090  Biso   1.000  C
  C68      1.0000 0.62370  0.49700  0.74910  Biso   1.000  C
  C69      1.0000 0.12370  0.00300  0.24910  Biso   1.000  C
  C70      1.0000 0.87630  0.00300  0.25090  Biso   1.000  C
  C71      1.0000 0.62370  0.50300  0.24910  Biso   1.000  C
  C72      1.0000 0.37630  0.50300  0.25090  Biso   1.000  C
  C73      1.0000 0.86770  0.09760  0.70960  Biso   1.000  C
  C74      1.0000 0.13230  0.09760  0.79040  Biso   1.000  C
  C75      1.0000 0.36770  0.59760  0.70960  Biso   1.000  C
  C76      1.0000 0.63230  0.59760  0.79040  Biso   1.000  C
  C77      1.0000 0.13230  0.90240  0.29040  Biso   1.000  C
  C78      1.0000 0.86770  0.90240  0.20960  Biso   1.000  C
  C79      1.0000 0.63230  0.40240  0.29040  Biso   1.000  C
  C80      1.0000 0.36770  0.40240  0.20960  Biso   1.000  C
  C81      1.0000 0.87020  0.19720  0.74600  Biso   1.000  C
  C82      1.0000 0.12980  0.19720  0.75400  Biso   1.000  C
  C83      1.0000 0.37020  0.69720  0.74600  Biso   1.000  C
  C84      1.0000 0.62980  0.69720  0.75400  Biso   1.000  C
  C85      1.0000 0.12980  0.80280  0.25400  Biso   1.000  C
  C86      1.0000 0.87020  0.80280  0.24600  Biso   1.000  C
  C87      1.0000 0.62980  0.30280  0.25400  Biso   1.000  C
  C88      1.0000 0.37020  0.30280  0.24600  Biso   1.000  C
  H17      1.0000 0.86450  0.26300  0.71930  Biso   1.000  H
  H18      1.0000 0.13550  0.26300  0.78070  Biso   1.000  H
  H19      1.0000 0.36450  0.76300  0.71930  Biso   1.000  H
  H20      1.0000 0.63550  0.76300  0.78070  Biso   1.000  H
  H21      1.0000 0.13550  0.73700  0.28070  Biso   1.000  H
  H22      1.0000 0.86450  0.73700  0.21930  Biso   1.000  H
  H23      1.0000 0.63550  0.23700  0.28070  Biso   1.000  H
  H24      1.0000 0.36450  0.23700  0.21930  Biso   1.000  H
  C89      1.0000 0.84850  0.18060  0.58980  Biso   1.000  C
  C90      1.0000 0.15150  0.18060  0.91020  Biso   1.000  C
  C91      1.0000 0.34850  0.68060  0.58980  Biso   1.000  C
  C92      1.0000 0.65150  0.68060  0.91020  Biso   1.000  C
  C93      1.0000 0.15150  0.81940  0.41020  Biso   1.000  C
  C94      1.0000 0.84850  0.81940  0.08980  Biso   1.000  C
  C95      1.0000 0.65150  0.31940  0.41020  Biso   1.000  C
  C96      1.0000 0.34850  0.31940  0.08980  Biso   1.000  C
  H25      1.0000 0.79060  0.22110  0.59470  Biso   1.000  H
  H26      1.0000 0.20940  0.22110  0.90530  Biso   1.000  H
  H27      1.0000 0.29060  0.72110  0.59470  Biso   1.000  H
  H28      1.0000 0.70940  0.72110  0.90530  Biso   1.000  H
  H29      1.0000 0.20940  0.77890  0.40530  Biso   1.000  H
  H30      1.0000 0.79060  0.77890  0.09470  Biso   1.000  H
  H31      1.0000 0.70940  0.27890  0.40530  Biso   1.000  H
  H32      1.0000 0.29060  0.27890  0.09470  Biso   1.000  H
  H33      1.0000 0.84540  0.15840  0.53960  Biso   1.000  H
  H34      1.0000 0.15460  0.15840  0.96040  Biso   1.000  H
  H35      1.0000 0.34540  0.65840  0.53960  Biso   1.000  H
  H36      1.0000 0.65460  0.65840  0.96040  Biso   1.000  H
  H37      1.0000 0.15460  0.84160  0.46040  Biso   1.000  H
  H38      1.0000 0.84540  0.84160  0.03960  Biso   1.000  H
  H39      1.0000 0.65460  0.34160  0.46040  Biso   1.000  H
  H40      1.0000 0.34540  0.34160  0.03960  Biso   1.000  H
  H41      1.0000 0.90450  0.22700  0.60450  Biso   1.000  H
  H42      1.0000 0.09550  0.22700  0.89550  Biso   1.000  H
  H43      1.0000 0.40450  0.72700  0.60450  Biso   1.000  H
  H44      1.0000 0.59550  0.72700  0.89550  Biso   1.000  H
  H45      1.0000 0.09550  0.77300  0.39550  Biso   1.000  H
  H46      1.0000 0.90450  0.77300  0.10450  Biso   1.000  H
  H47      1.0000 0.59550  0.27300  0.39550  Biso   1.000  H
  H48      1.0000 0.40450  0.27300  0.10450  Biso   1.000  H
  C97      1.0000 0.86950  0.80230  0.74760  Biso   1.000  C
  C98      1.0000 0.13050  0.80230  0.75240  Biso   1.000  C
  C99      1.0000 0.36950  0.30230  0.74760  Biso   1.000  C
  C100     1.0000 0.63050  0.30230  0.75240  Biso   1.000  C
  C101     1.0000 0.13050  0.19770  0.25240  Biso   1.000  C
  C102     1.0000 0.86950  0.19770  0.24760  Biso   1.000  C
  C103     1.0000 0.63050  0.69770  0.25240  Biso   1.000  C
  C104     1.0000 0.36950  0.69770  0.24760  Biso   1.000  C
  H49      1.0000 0.93040  0.79250  0.78010  Biso   1.000  H
  H50      1.0000 0.06960  0.79250  0.71990  Biso   1.000  H
  H51      1.0000 0.43040  0.29250  0.78010  Biso   1.000  H
  H52      1.0000 0.56960  0.29250  0.71990  Biso   1.000  H
  H53      1.0000 0.06960  0.20750  0.21990  Biso   1.000  H
  H54      1.0000 0.93040  0.20750  0.28010  Biso   1.000  H
  H55      1.0000 0.56960  0.70750  0.21990  Biso   1.000  H
  H56      1.0000 0.43040  0.70750  0.28010  Biso   1.000  H
  H57      1.0000 0.85960  0.74210  0.71310  Biso   1.000  H
  H58      1.0000 0.14040  0.74210  0.78690  Biso   1.000  H
  H59      1.0000 0.35960  0.24210  0.71310  Biso   1.000  H
  H60      1.0000 0.64040  0.24210  0.78690  Biso   1.000  H
  H61      1.0000 0.14040  0.25790  0.28690  Biso   1.000  H
  H62      1.0000 0.85960  0.25790  0.21310  Biso   1.000  H
  H63      1.0000 0.64040  0.75790  0.28690  Biso   1.000  H
  H64      1.0000 0.35960  0.75790  0.21310  Biso   1.000  H
  H65      1.0000 0.81750  0.80350  0.77550  Biso   1.000  H
  H66      1.0000 0.18250  0.80350  0.72450  Biso   1.000  H
  H67      1.0000 0.31750  0.30350  0.77550  Biso   1.000  H
  H68      1.0000 0.68250  0.30350  0.72450  Biso   1.000  H
  H69      1.0000 0.18250  0.19650  0.22450  Biso   1.000  H
  H70      1.0000 0.81750  0.19650  0.27550  Biso   1.000  H
  H71      1.0000 0.68250  0.69650  0.22450  Biso   1.000  H
  H72      1.0000 0.31750  0.69650  0.27550  Biso   1.000  H
  N1       1.0000 0.92430  0.40030  0.83880  Biso   1.000  N
  N2       1.0000 0.07570  0.40030  0.66120  Biso   1.000  N
  N3       1.0000 0.42430  0.90030  0.83880  Biso   1.000  N
  N4       1.0000 0.57570  0.90030  0.66120  Biso   1.000  N
  N5       1.0000 0.07570  0.59970  0.16120  Biso   1.000  N
  N6       1.0000 0.92430  0.59970  0.33880  Biso   1.000  N
  N7       1.0000 0.57570  0.09970  0.16120  Biso   1.000  N
  N8       1.0000 0.42430  0.09970  0.33880  Biso   1.000  N
  N9       1.0000 0.84460  0.32560  0.92220  Biso   1.000  N
  N10      1.0000 0.15540  0.32560  0.57780  Biso   1.000  N
  N11      1.0000 0.34460  0.82560  0.92220  Biso   1.000  N
  N12      1.0000 0.65540  0.82560  0.57780  Biso   1.000  N
  N13      1.0000 0.15540  0.67440  0.07780  Biso   1.000  N
  N14      1.0000 0.84460  0.67440  0.42220  Biso   1.000  N
  N15      1.0000 0.65540  0.17440  0.07780  Biso   1.000  N
  N16      1.0000 0.34460  0.17440  0.42220  Biso   1.000  N
  O1       1.0000 0.99440  0.61420  0.83020  Biso   1.000  O
  O2       1.0000 0.00560  0.61420  0.66980  Biso   1.000  O
  O3       1.0000 0.49440  0.11420  0.83020  Biso   1.000  O
  O4       1.0000 0.50560  0.11420  0.66980  Biso   1.000  O
  O5       1.0000 0.00560  0.38580  0.16980  Biso   1.000  O
  O6       1.0000 0.99440  0.38580  0.33020  Biso   1.000  O
  O7       1.0000 0.50560  0.88580  0.16980  Biso   1.000  O
  O8       1.0000 0.49440  0.88580  0.33020  Biso   1.000  O
  O9       1.0000 0.94430  0.66570  0.93160  Biso   1.000  O
  O10      1.0000 0.05570  0.66570  0.56840  Biso   1.000  O
  O11      1.0000 0.44430  0.16570  0.93160  Biso   1.000  O
  O12      1.0000 0.55570  0.16570  0.56840  Biso   1.000  O
  O13      1.0000 0.05570  0.33430  0.06840  Biso   1.000  O
  O14      1.0000 0.94430  0.33430  0.43160  Biso   1.000  O
  O15      1.0000 0.55570  0.83430  0.06840  Biso   1.000  O
  O16      1.0000 0.44430  0.83430  0.43160  Biso   1.000  O
  O17      1.0000 0.85960  0.58400  0.02330  Biso   1.000  O
  O18      1.0000 0.14040  0.58400  0.47670  Biso   1.000  O
  O19      1.0000 0.35960  0.08400  0.02330  Biso   1.000  O
  O20      1.0000 0.64040  0.08400  0.47670  Biso   1.000  O
  O21      1.0000 0.14040  0.41600  0.97670  Biso   1.000  O
  O22      1.0000 0.85960  0.41600  0.52330  Biso   1.000  O
  O23      1.0000 0.64040  0.91600  0.97670  Biso   1.000  O
  O24      1.0000 0.35960  0.91600  0.52330  Biso   1.000  O
  O25      1.0000 0.79230  0.42350  0.04740  Biso   1.000  O
  O26      1.0000 0.20770  0.42350  0.45260  Biso   1.000  O
  O27      1.0000 0.29230  0.92350  0.04740  Biso   1.000  O
  O28      1.0000 0.70770  0.92350  0.45260  Biso   1.000  O
  O29      1.0000 0.20770  0.57650  0.95260  Biso   1.000  O
  O30      1.0000 0.79230  0.57650  0.54740  Biso   1.000  O
  O31      1.0000 0.70770  0.07650  0.95260  Biso   1.000  O
  O32      1.0000 0.29230  0.07650  0.54740  Biso   1.000  O
  O33      1.0000 0.85610  0.08220  0.63670  Biso   1.000  O
  O34      1.0000 0.14390  0.08220  0.86330  Biso   1.000  O
  O35      1.0000 0.35610  0.58220  0.63670  Biso   1.000  O
  O36      1.0000 0.64390  0.58220  0.86330  Biso   1.000  O
  O37      1.0000 0.14390  0.91780  0.36330  Biso   1.000  O
  O38      1.0000 0.85610  0.91780  0.13670  Biso   1.000  O
  O39      1.0000 0.64390  0.41780  0.36330  Biso   1.000  O
  O40      1.0000 0.35610  0.41780  0.13670  Biso   1.000  O
  O41      1.0000 0.87080  0.90260  0.70970  Biso   1.000  O
  O42      1.0000 0.12920  0.90260  0.79030  Biso   1.000  O
  O43      1.0000 0.37080  0.40260  0.70970  Biso   1.000  O
  O44      1.0000 0.62920  0.40260  0.79030  Biso   1.000  O
  O45      1.0000 0.12920  0.09740  0.29030  Biso   1.000  O
  O46      1.0000 0.87080  0.09740  0.20970  Biso   1.000  O
  O47      1.0000 0.62920  0.59740  0.29030  Biso   1.000  O
  O48      1.0000 0.37080  0.59740  0.20970  Biso   1.000  O
  O49      1.0000 0.83710  0.46620  0.68360  Biso   1.000  O
  O50      1.0000 0.16290  0.46620  0.81640  Biso   1.000  O
  O51      1.0000 0.33710  0.96620  0.68360  Biso   1.000  O
  O52      1.0000 0.66290  0.96620  0.81640  Biso   1.000  O
  O53      1.0000 0.16290  0.53380  0.31640  Biso   1.000  O
  O54      1.0000 0.83710  0.53380  0.18360  Biso   1.000  O
  O55      1.0000 0.66290  0.03380  0.31640  Biso   1.000  O
  O56      1.0000 0.33710  0.03380  0.18360  Biso   1.000  O
  H73      1.0000 0.82030  0.39330  0.66460  Biso   1.000  H
  H74      1.0000 0.17970  0.39330  0.83540  Biso   1.000  H
  H75      1.0000 0.32030  0.89330  0.66460  Biso   1.000  H
  H76      1.0000 0.67970  0.89330  0.83540  Biso   1.000  H
  H77      1.0000 0.17970  0.60670  0.33540  Biso   1.000  H
  H78      1.0000 0.82030  0.60670  0.16460  Biso   1.000  H
  H79      1.0000 0.67970  0.10670  0.33540  Biso   1.000  H
  H80      1.0000 0.32030  0.10670  0.16460  Biso   1.000  H
  H81      1.0000 0.83250  0.51790  0.64360  Biso   1.000  H
  H82      1.0000 0.16750  0.51790  0.85640  Biso   1.000  H
  H83      1.0000 0.33250  0.01790  0.64360  Biso   1.000  H
  H84      1.0000 0.66750  0.01790  0.85640  Biso   1.000  H
  H85      1.0000 0.16750  0.48210  0.35640  Biso   1.000  H
  H86      1.0000 0.83250  0.48210  0.14360  Biso   1.000  H
  H87      1.0000 0.66750  0.98210  0.35640  Biso   1.000  H
  H88      1.0000 0.33250  0.98210  0.14360  Biso   1.000  H
  O57      1.0000 0.60630  0.33240  0.93610  Biso   1.000  O
  O58      1.0000 0.39370  0.33240  0.56390  Biso   1.000  O
  O59      1.0000 0.10630  0.83240  0.93610  Biso   1.000  O
  O60      1.0000 0.89370  0.83240  0.56390  Biso   1.000  O
  O61      1.0000 0.39370  0.66760  0.06390  Biso   1.000  O
  O62      1.0000 0.60630  0.66760  0.43610  Biso   1.000  O
  O63      1.0000 0.89370  0.16760  0.06390  Biso   1.000  O
  O64      1.0000 0.10630  0.16760  0.43610  Biso   1.000  O
  H89      1.0000 0.55110  0.28850  0.94300  Biso   1.000  H
  H90      1.0000 0.44890  0.28850  0.55700  Biso   1.000  H
  H91      1.0000 0.05110  0.78850  0.94300  Biso   1.000  H
  H92      1.0000 0.94890  0.78850  0.55700  Biso   1.000  H
  H93      1.0000 0.44890  0.71150  0.05700  Biso   1.000  H
  H94      1.0000 0.55110  0.71150  0.44300  Biso   1.000  H
  H95      1.0000 0.94890  0.21150  0.05700  Biso   1.000  H
  H96      1.0000 0.05110  0.21150  0.44300  Biso   1.000  H
  H97      1.0000 0.60960  0.33600  0.88470  Biso   1.000  H
  H98      1.0000 0.39040  0.33600  0.61530  Biso   1.000  H
  H99      1.0000 0.10960  0.83600  0.88470  Biso   1.000  H
  H100     1.0000 0.89040  0.83600  0.61530  Biso   1.000  H
  H101     1.0000 0.39040  0.66400  0.11530  Biso   1.000  H
  H102     1.0000 0.60960  0.66400  0.38470  Biso   1.000  H
  H103     1.0000 0.89040  0.16400  0.11530  Biso   1.000  H
  H104     1.0000 0.10960  0.16400  0.38470  Biso   1.000  H
  H105     1.0000 0.91660  0.63850  0.96310  Biso   1.000  H
  H106     1.0000 0.08340  0.63850  0.53690  Biso   1.000  H
  H107     1.0000 0.41660  0.13850  0.96310  Biso   1.000  H
  H108     1.0000 0.58340  0.13850  0.53690  Biso   1.000  H
  H109     1.0000 0.08340  0.36150  0.03690  Biso   1.000  H
  H110     1.0000 0.91660  0.36150  0.46310  Biso   1.000  H
  H111     1.0000 0.58340  0.86150  0.03690  Biso   1.000  H
  H112     1.0000 0.41660  0.86150  0.46310  Biso   1.000  H
