data_image0
_cell_length_a       13.433
_cell_length_b       13.433
_cell_length_c       14.77
_cell_angle_alpha    90
_cell_angle_beta     90
_cell_angle_gamma    120

_symmetry_space_group_name_H-M    "P 1"
_symmetry_int_tables_number       1

loop_
  _symmetry_equiv_pos_as_xyz
  'x, y, z'

loop_
  _atom_site_label
  _atom_site_occupancy
  _atom_site_fract_x
  _atom_site_fract_y
  _atom_site_fract_z
  _atom_site_thermal_displace_type
  _atom_site_B_iso_or_equiv
  _atom_site_type_symbol
  O1       1.0000 0.56200  0.80280  0.87480  Biso   1.000  O
  O2       1.0000 0.19720  0.75920  0.87480  Biso   1.000  O
  O3       1.0000 0.80280  0.56200  0.62520  Biso   1.000  O
  O4       1.0000 0.24080  0.43800  0.87480  Biso   1.000  O
  O5       1.0000 0.43800  0.24080  0.62520  Biso   1.000  O
  O6       1.0000 0.75920  0.19720  0.62520  Biso   1.000  O
  O7       1.0000 0.43800  0.19720  0.12520  Biso   1.000  O
  O8       1.0000 0.80280  0.24080  0.12520  Biso   1.000  O
  O9       1.0000 0.19720  0.43800  0.37480  Biso   1.000  O
  O10      1.0000 0.75920  0.56200  0.12520  Biso   1.000  O
  O11      1.0000 0.56200  0.75920  0.37480  Biso   1.000  O
  O12      1.0000 0.24080  0.80280  0.37480  Biso   1.000  O
  O13      1.0000 0.45210  0.63700  0.94210  Biso   1.000  O
  O14      1.0000 0.36300  0.81510  0.94210  Biso   1.000  O
  O15      1.0000 0.63700  0.45210  0.55790  Biso   1.000  O
  O16      1.0000 0.18490  0.54790  0.94210  Biso   1.000  O
  O17      1.0000 0.54790  0.18490  0.55790  Biso   1.000  O
  O18      1.0000 0.81510  0.36300  0.55790  Biso   1.000  O
  O19      1.0000 0.54790  0.36300  0.05790  Biso   1.000  O
  O20      1.0000 0.63700  0.18490  0.05790  Biso   1.000  O
  O21      1.0000 0.36300  0.54790  0.44210  Biso   1.000  O
  O22      1.0000 0.81510  0.45210  0.05790  Biso   1.000  O
  O23      1.0000 0.45210  0.81510  0.44210  Biso   1.000  O
  O24      1.0000 0.18490  0.63700  0.44210  Biso   1.000  O
  O25      1.0000 0.38630  0.56410  0.22620  Biso   1.000  O
  O26      1.0000 0.43590  0.82220  0.22620  Biso   1.000  O
  O27      1.0000 0.56410  0.38630  0.27380  Biso   1.000  O
  O28      1.0000 0.17780  0.61370  0.22620  Biso   1.000  O
  O29      1.0000 0.61370  0.17780  0.27380  Biso   1.000  O
  O30      1.0000 0.82220  0.43590  0.27380  Biso   1.000  O
  O31      1.0000 0.61370  0.43590  0.77380  Biso   1.000  O
  O32      1.0000 0.56410  0.17780  0.77380  Biso   1.000  O
  O33      1.0000 0.43590  0.61370  0.72620  Biso   1.000  O
  O34      1.0000 0.82220  0.38630  0.77380  Biso   1.000  O
  O35      1.0000 0.38630  0.82220  0.72620  Biso   1.000  O
  O36      1.0000 0.17780  0.56410  0.72620  Biso   1.000  O
  O37      1.0000 0.39940  0.47350  0.10430  Biso   1.000  O
  O38      1.0000 0.52650  0.92590  0.10430  Biso   1.000  O
  O39      1.0000 0.47350  0.39940  0.39570  Biso   1.000  O
  O40      1.0000 0.07410  0.60060  0.10430  Biso   1.000  O
  O41      1.0000 0.60060  0.07410  0.39570  Biso   1.000  O
  O42      1.0000 0.92590  0.52650  0.39570  Biso   1.000  O
  O43      1.0000 0.60060  0.52650  0.89570  Biso   1.000  O
  O44      1.0000 0.47350  0.07410  0.89570  Biso   1.000  O
  O45      1.0000 0.52650  0.60060  0.60430  Biso   1.000  O
  O46      1.0000 0.92590  0.39940  0.89570  Biso   1.000  O
  O47      1.0000 0.39940  0.92590  0.60430  Biso   1.000  O
  O48      1.0000 0.07410  0.47350  0.60430  Biso   1.000  O
  N1       1.0000 0.61300  0.65090  0.05670  Biso   1.000  N
  N2       1.0000 0.34910  0.96210  0.05670  Biso   1.000  N
  N3       1.0000 0.65090  0.61300  0.44330  Biso   1.000  N
  N4       1.0000 0.03790  0.38700  0.05670  Biso   1.000  N
  N5       1.0000 0.38700  0.03790  0.44330  Biso   1.000  N
  N6       1.0000 0.96210  0.34910  0.44330  Biso   1.000  N
  N7       1.0000 0.38700  0.34910  0.94330  Biso   1.000  N
  N8       1.0000 0.65090  0.03790  0.94330  Biso   1.000  N
  N9       1.0000 0.34910  0.38700  0.55670  Biso   1.000  N
  N10      1.0000 0.96210  0.61300  0.94330  Biso   1.000  N
  N11      1.0000 0.61300  0.96210  0.55670  Biso   1.000  N
  N12      1.0000 0.03790  0.65090  0.55670  Biso   1.000  N
  C1       1.0000 0.54700  0.72900  0.92860  Biso   1.000  C
  C2       1.0000 0.27100  0.81800  0.92860  Biso   1.000  C
  C3       1.0000 0.72900  0.54700  0.57140  Biso   1.000  C
  C4       1.0000 0.18200  0.45300  0.92860  Biso   1.000  C
  C5       1.0000 0.45300  0.18200  0.57140  Biso   1.000  C
  C6       1.0000 0.81800  0.27100  0.57140  Biso   1.000  C
  C7       1.0000 0.45300  0.27100  0.07140  Biso   1.000  C
  C8       1.0000 0.72900  0.18200  0.07140  Biso   1.000  C
  C9       1.0000 0.27100  0.45300  0.42860  Biso   1.000  C
  C10      1.0000 0.81800  0.54700  0.07140  Biso   1.000  C
  C11      1.0000 0.54700  0.81800  0.42860  Biso   1.000  C
  C12      1.0000 0.18200  0.72900  0.42860  Biso   1.000  C
  C13      1.0000 0.64600  0.74100  0.98800  Biso   1.000  C
  C14      1.0000 0.25900  0.90500  0.98800  Biso   1.000  C
  C15      1.0000 0.74100  0.64600  0.51200  Biso   1.000  C
  C16      1.0000 0.09500  0.35400  0.98800  Biso   1.000  C
  C17      1.0000 0.35400  0.09500  0.51200  Biso   1.000  C
  C18      1.0000 0.90500  0.25900  0.51200  Biso   1.000  C
  C19      1.0000 0.35400  0.25900  0.01200  Biso   1.000  C
  C20      1.0000 0.74100  0.09500  0.01200  Biso   1.000  C
  C21      1.0000 0.25900  0.35400  0.48800  Biso   1.000  C
  C22      1.0000 0.90500  0.64600  0.01200  Biso   1.000  C
  C23      1.0000 0.64600  0.90500  0.48800  Biso   1.000  C
  C24      1.0000 0.09500  0.74100  0.48800  Biso   1.000  C
  C25      1.0000 0.55500  0.66600  0.14000  Biso   1.000  C
  C26      1.0000 0.33400  0.88900  0.14000  Biso   1.000  C
  C27      1.0000 0.66600  0.55500  0.36000  Biso   1.000  C
  C28      1.0000 0.11100  0.44500  0.14000  Biso   1.000  C
  C29      1.0000 0.44500  0.11100  0.36000  Biso   1.000  C
  C30      1.0000 0.88900  0.33400  0.36000  Biso   1.000  C
  C31      1.0000 0.44500  0.33400  0.86000  Biso   1.000  C
  C32      1.0000 0.66600  0.11100  0.86000  Biso   1.000  C
  C33      1.0000 0.33400  0.44500  0.64000  Biso   1.000  C
  C34      1.0000 0.88900  0.55500  0.86000  Biso   1.000  C
  C35      1.0000 0.55500  0.88900  0.64000  Biso   1.000  C
  C36      1.0000 0.11100  0.66600  0.64000  Biso   1.000  C
  C37      1.0000 0.44890  0.57100  0.15620  Biso   1.000  C
  C38      1.0000 0.42900  0.87790  0.15620  Biso   1.000  C
  C39      1.0000 0.57100  0.44890  0.34380  Biso   1.000  C
  C40      1.0000 0.12210  0.55110  0.15620  Biso   1.000  C
  C41      1.0000 0.55110  0.12210  0.34380  Biso   1.000  C
  C42      1.0000 0.87790  0.42900  0.34380  Biso   1.000  C
  C43      1.0000 0.55110  0.42900  0.84380  Biso   1.000  C
  C44      1.0000 0.57100  0.12210  0.84380  Biso   1.000  C
  C45      1.0000 0.42900  0.55110  0.65620  Biso   1.000  C
  C46      1.0000 0.87790  0.44890  0.84380  Biso   1.000  C
  C47      1.0000 0.44890  0.87790  0.65620  Biso   1.000  C
  C48      1.0000 0.12210  0.57100  0.65620  Biso   1.000  C
  Gd1      1.0000 0.33340  0.66670  0.83132  Biso   1.000  Gd
  Gd2      1.0000 0.66670  0.33340  0.66868  Biso   1.000  Gd
  Gd3      1.0000 0.66660  0.33330  0.16868  Biso   1.000  Gd
  Gd4      1.0000 0.33330  0.66660  0.33132  Biso   1.000  Gd
  Cu1      1.0000 0.50000  0.50000  0.00000  Biso   1.000  Cu
  Cu2      1.0000 0.50000  0.00000  0.00000  Biso   1.000  Cu
  Cu3      1.0000 0.50000  0.50000  0.50000  Biso   1.000  Cu
  Cu4      1.0000 0.00000  0.50000  0.00000  Biso   1.000  Cu
  Cu5      1.0000 0.50000  0.00000  0.50000  Biso   1.000  Cu
  Cu6      1.0000 0.00000  0.50000  0.50000  Biso   1.000  Cu
