data_image0
_cell_length_a       12.306
_cell_length_b       12.306
_cell_length_c       18.4537
_cell_angle_alpha    90
_cell_angle_beta     90
_cell_angle_gamma    120

_symmetry_space_group_name_H-M    "P 1"
_symmetry_int_tables_number       1

loop_
  _symmetry_equiv_pos_as_xyz
  'x, y, z'

loop_
  _atom_site_label
  _atom_site_occupancy
  _atom_site_fract_x
  _atom_site_fract_y
  _atom_site_fract_z
  _atom_site_thermal_displace_type
  _atom_site_B_iso_or_equiv
  _atom_site_type_symbol
  Cu1      1.0000 0.71277  0.00000  0.16670  Biso   1.000  Cu
  Cu2      1.0000 0.00000  0.71277  0.83337  Biso   1.000  Cu
  Cu3      1.0000 0.28723  0.28723  0.50003  Biso   1.000  Cu
  N1       1.0000 0.91780  0.00000  0.16670  Biso   1.000  N
  N2       1.0000 0.00000  0.91780  0.83337  Biso   1.000  N
  N3       1.0000 0.08220  0.08220  0.50003  Biso   1.000  N
  C1       1.0000 0.96690  0.98320  0.10700  Biso   1.000  C
  C2       1.0000 0.01680  0.98370  0.77367  Biso   1.000  C
  C3       1.0000 0.01630  0.03310  0.44033  Biso   1.000  C
  C4       1.0000 0.98320  0.96690  0.89300  Biso   1.000  C
  C5       1.0000 0.98370  0.01680  0.22633  Biso   1.000  C
  C6       1.0000 0.03310  0.01630  0.55967  Biso   1.000  C
  H1       1.0000 0.92280  0.97060  0.06390  Biso   1.000  H
  H2       1.0000 0.02940  0.95220  0.73057  Biso   1.000  H
  H3       1.0000 0.04780  0.07720  0.39723  Biso   1.000  H
  H4       1.0000 0.97060  0.92280  0.93610  Biso   1.000  H
  H5       1.0000 0.95220  0.02940  0.26943  Biso   1.000  H
  H6       1.0000 0.07720  0.04780  0.60277  Biso   1.000  H
  C7       1.0000 0.07800  0.98310  0.10380  Biso   1.000  C
  C8       1.0000 0.01690  0.09490  0.77047  Biso   1.000  C
  C9       1.0000 0.90510  0.92200  0.43713  Biso   1.000  C
  C10      1.0000 0.98310  0.07800  0.89620  Biso   1.000  C
  C11      1.0000 0.09490  0.01690  0.22953  Biso   1.000  C
  C12      1.0000 0.92200  0.90510  0.56287  Biso   1.000  C
  H7       1.0000 0.10790  0.97170  0.05980  Biso   1.000  H
  H8       1.0000 0.02830  0.13620  0.72647  Biso   1.000  H
  H9       1.0000 0.86380  0.89210  0.39313  Biso   1.000  H
  H10      1.0000 0.97170  0.10790  0.94020  Biso   1.000  H
  H11      1.0000 0.13620  0.02830  0.27353  Biso   1.000  H
  H12      1.0000 0.89210  0.86380  0.60687  Biso   1.000  H
  C13      1.0000 0.14450  0.00000  0.16670  Biso   1.000  C
  C14      1.0000 0.00000  0.14450  0.83337  Biso   1.000  C
  C15      1.0000 0.85550  0.85550  0.50003  Biso   1.000  C
  C16      1.0000 0.26700  0.00000  0.16670  Biso   1.000  C
  C17      1.0000 0.00000  0.26700  0.83337  Biso   1.000  C
  C18      1.0000 0.73300  0.73300  0.50003  Biso   1.000  C
  C19      1.0000 0.45750  0.04150  0.11170  Biso   1.000  C
  C20      1.0000 0.95850  0.41600  0.77837  Biso   1.000  C
  C21      1.0000 0.58400  0.54250  0.44503  Biso   1.000  C
  C22      1.0000 0.04150  0.45750  0.88830  Biso   1.000  C
  C23      1.0000 0.41600  0.95850  0.22163  Biso   1.000  C
  C24      1.0000 0.54250  0.58400  0.55497  Biso   1.000  C
  H13      1.0000 0.51000  0.07110  0.07160  Biso   1.000  H
  H14      1.0000 0.92890  0.43890  0.73827  Biso   1.000  H
  H15      1.0000 0.56110  0.49000  0.40493  Biso   1.000  H
  H16      1.0000 0.07110  0.51000  0.92840  Biso   1.000  H
  H17      1.0000 0.43890  0.92890  0.26173  Biso   1.000  H
  H18      1.0000 0.49000  0.56110  0.59507  Biso   1.000  H
  C25      1.0000 0.34720  0.04430  0.10930  Biso   1.000  C
  C26      1.0000 0.95570  0.30290  0.77597  Biso   1.000  C
  C27      1.0000 0.69710  0.65280  0.44263  Biso   1.000  C
  C28      1.0000 0.04430  0.34720  0.89070  Biso   1.000  C
  C29      1.0000 0.30290  0.95570  0.22403  Biso   1.000  C
  C30      1.0000 0.65280  0.69710  0.55737  Biso   1.000  C
  H19      1.0000 0.32760  0.07620  0.06880  Biso   1.000  H
  H20      1.0000 0.92380  0.25140  0.73547  Biso   1.000  H
  H21      1.0000 0.74860  0.67240  0.40213  Biso   1.000  H
  H22      1.0000 0.07620  0.32760  0.93120  Biso   1.000  H
  H23      1.0000 0.25140  0.92380  0.26453  Biso   1.000  H
  H24      1.0000 0.67240  0.74860  0.59787  Biso   1.000  H
  N4       1.0000 0.49380  0.00000  0.16670  Biso   1.000  N
  N5       1.0000 0.00000  0.49380  0.83337  Biso   1.000  N
  N6       1.0000 0.50620  0.50620  0.50003  Biso   1.000  N
  O1       1.0000 0.68230  0.93840  0.26520  Biso   1.000  O
  O2       1.0000 0.06160  0.74390  0.93187  Biso   1.000  O
  O3       1.0000 0.25610  0.31770  0.59853  Biso   1.000  O
  O4       1.0000 0.93840  0.68230  0.73480  Biso   1.000  O
  O5       1.0000 0.74390  0.06160  0.06813  Biso   1.000  O
  O6       1.0000 0.31770  0.25610  0.40147  Biso   1.000  O
  O7       1.0000 0.58040  0.76990  0.33273  Biso   1.000  O
  O8       1.0000 0.23010  0.81050  0.99940  Biso   1.000  O
  O9       1.0000 0.18950  0.41960  0.66606  Biso   1.000  O
  O10      1.0000 0.76990  0.58040  0.66727  Biso   1.000  O
  O11      1.0000 0.81050  0.23010  0.00060  Biso   1.000  O
  O12      1.0000 0.41960  0.18950  0.33394  Biso   1.000  O
  N7       1.0000 0.61050  0.82160  0.13990  Biso   1.000  N
  N8       1.0000 0.17840  0.78890  0.80657  Biso   1.000  N
  N9       1.0000 0.21110  0.38950  0.47323  Biso   1.000  N
  N10      1.0000 0.82160  0.61050  0.86010  Biso   1.000  N
  N11      1.0000 0.78890  0.17840  0.19343  Biso   1.000  N
  N12      1.0000 0.38950  0.21110  0.52677  Biso   1.000  N
  H25      1.0000 0.54490  0.81060  0.11280  Biso   1.000  H
  H26      1.0000 0.18940  0.73430  0.77947  Biso   1.000  H
  H27      1.0000 0.26570  0.45510  0.44613  Biso   1.000  H
  H28      1.0000 0.81060  0.54490  0.88720  Biso   1.000  H
  H29      1.0000 0.73430  0.18940  0.22053  Biso   1.000  H
  H30      1.0000 0.45510  0.26570  0.55387  Biso   1.000  H
  H31      1.0000 0.65700  0.79900  0.11310  Biso   1.000  H
  H32      1.0000 0.20100  0.85800  0.77977  Biso   1.000  H
  H33      1.0000 0.14200  0.34300  0.44643  Biso   1.000  H
  H34      1.0000 0.79900  0.65700  0.88690  Biso   1.000  H
  H35      1.0000 0.85800  0.20100  0.22023  Biso   1.000  H
  H36      1.0000 0.34300  0.14200  0.55357  Biso   1.000  H
  C31      1.0000 0.59310  0.63480  0.20360  Biso   1.000  C
  C32      1.0000 0.36520  0.95830  0.87027  Biso   1.000  C
  C33      1.0000 0.04170  0.40690  0.53693  Biso   1.000  C
  C34      1.0000 0.63480  0.59310  0.79640  Biso   1.000  C
  C35      1.0000 0.95830  0.36520  0.12973  Biso   1.000  C
  C36      1.0000 0.40690  0.04170  0.46307  Biso   1.000  C
  H37      1.0000 0.55290  0.58230  0.16170  Biso   1.000  H
  H38      1.0000 0.41770  0.97060  0.82837  Biso   1.000  H
  H39      1.0000 0.02940  0.44710  0.49503  Biso   1.000  H
  H40      1.0000 0.58230  0.55290  0.83830  Biso   1.000  H
  H41      1.0000 0.97060  0.41770  0.17163  Biso   1.000  H
  H42      1.0000 0.44710  0.02940  0.50497  Biso   1.000  H
  H43      1.0000 0.55750  0.58370  0.24660  Biso   1.000  H
  H44      1.0000 0.41630  0.97380  0.91327  Biso   1.000  H
  H45      1.0000 0.02620  0.44250  0.57993  Biso   1.000  H
  H46      1.0000 0.58370  0.55750  0.75340  Biso   1.000  H
  H47      1.0000 0.97380  0.41630  0.08673  Biso   1.000  H
  H48      1.0000 0.44250  0.02620  0.42007  Biso   1.000  H
  N13      1.0000 0.91540  0.65630  0.06130  Biso   1.000  N
  N14      1.0000 0.34370  0.25910  0.72797  Biso   1.000  N
  N15      1.0000 0.74090  0.08460  0.39463  Biso   1.000  N
  N16      1.0000 0.65630  0.91540  0.93870  Biso   1.000  N
  N17      1.0000 0.25910  0.34370  0.27203  Biso   1.000  N
  N18      1.0000 0.08460  0.74090  0.60537  Biso   1.000  N
  H49      1.0000 0.83690  0.63190  0.05680  Biso   1.000  H
  H50      1.0000 0.36810  0.20500  0.72347  Biso   1.000  H
  H51      1.0000 0.79500  0.16310  0.39013  Biso   1.000  H
  H52      1.0000 0.63190  0.83690  0.94320  Biso   1.000  H
  H53      1.0000 0.20500  0.36810  0.27653  Biso   1.000  H
  H54      1.0000 0.16310  0.79500  0.60987  Biso   1.000  H
  H55      1.0000 0.96370  0.68240  0.02400  Biso   1.000  H
  H56      1.0000 0.31760  0.28130  0.69067  Biso   1.000  H
  H57      1.0000 0.71870  0.03630  0.35733  Biso   1.000  H
  H58      1.0000 0.68240  0.96370  0.97600  Biso   1.000  H
  H59      1.0000 0.28130  0.31760  0.30933  Biso   1.000  H
  H60      1.0000 0.03630  0.71870  0.64267  Biso   1.000  H
  C37      1.0000 0.56390  0.74110  0.20470  Biso   1.000  C
  C38      1.0000 0.25890  0.82280  0.87137  Biso   1.000  C
  C39      1.0000 0.17720  0.43610  0.53803  Biso   1.000  C
  C40      1.0000 0.74110  0.56390  0.79530  Biso   1.000  C
  C41      1.0000 0.82280  0.25890  0.12863  Biso   1.000  C
  C42      1.0000 0.43610  0.17720  0.46197  Biso   1.000  C
  H61      1.0000 0.47240  0.70250  0.20480  Biso   1.000  H
  H62      1.0000 0.29750  0.76990  0.87147  Biso   1.000  H
  H63      1.0000 0.23010  0.52760  0.53813  Biso   1.000  H
  H64      1.0000 0.70250  0.47240  0.79520  Biso   1.000  H
  H65      1.0000 0.76990  0.29750  0.12853  Biso   1.000  H
  H66      1.0000 0.52760  0.23010  0.46187  Biso   1.000  H
  N19      1.0000 0.08210  0.69090  0.13010  Biso   1.000  N
  N20      1.0000 0.30910  0.39120  0.79677  Biso   1.000  N
  N21      1.0000 0.60880  0.91790  0.46343  Biso   1.000  N
  N22      1.0000 0.69090  0.08210  0.86990  Biso   1.000  N
  N23      1.0000 0.39120  0.30910  0.20323  Biso   1.000  N
  N24      1.0000 0.91790  0.60880  0.53657  Biso   1.000  N
  H67      1.0000 0.11390  0.68940  0.17130  Biso   1.000  H
  H68      1.0000 0.31060  0.42450  0.83797  Biso   1.000  H
  H69      1.0000 0.57550  0.88610  0.50463  Biso   1.000  H
  H70      1.0000 0.68940  0.11390  0.82870  Biso   1.000  H
  H71      1.0000 0.42450  0.31060  0.16203  Biso   1.000  H
  H72      1.0000 0.88610  0.57550  0.49537  Biso   1.000  H
  H73      1.0000 0.12880  0.71670  0.09220  Biso   1.000  H
  H74      1.0000 0.28330  0.41210  0.75887  Biso   1.000  H
  H75      1.0000 0.58790  0.87120  0.42553  Biso   1.000  H
  H76      1.0000 0.71670  0.12880  0.90780  Biso   1.000  H
  H77      1.0000 0.41210  0.28330  0.24113  Biso   1.000  H
  H78      1.0000 0.87120  0.58790  0.57447  Biso   1.000  H
  C43      1.0000 0.61160  0.81930  0.27310  Biso   1.000  C
  C44      1.0000 0.18070  0.79230  0.93977  Biso   1.000  C
  C45      1.0000 0.20770  0.38840  0.60643  Biso   1.000  C
  C46      1.0000 0.81930  0.61160  0.72690  Biso   1.000  C
  C47      1.0000 0.79230  0.18070  0.06023  Biso   1.000  C
  C48      1.0000 0.38840  0.20770  0.39357  Biso   1.000  C
  C49      1.0000 0.96140  0.65360  0.12510  Biso   1.000  C
  C50      1.0000 0.34640  0.30780  0.79177  Biso   1.000  C
  C51      1.0000 0.69220  0.03860  0.45843  Biso   1.000  C
  C52      1.0000 0.65360  0.96140  0.87490  Biso   1.000  C
  C53      1.0000 0.30780  0.34640  0.20823  Biso   1.000  C
  C54      1.0000 0.03860  0.69220  0.54157  Biso   1.000  C
  C55      1.0000 0.73310  0.68000  0.20100  Biso   1.000  C
  C56      1.0000 0.32000  0.05310  0.86767  Biso   1.000  C
  C57      1.0000 0.94690  0.26690  0.53433  Biso   1.000  C
  C58      1.0000 0.68000  0.73310  0.79900  Biso   1.000  C
  C59      1.0000 0.05310  0.32000  0.13233  Biso   1.000  C
  C60      1.0000 0.26690  0.94690  0.46567  Biso   1.000  C
  H79      1.0000 0.77120  0.71970  0.24670  Biso   1.000  H
  H80      1.0000 0.28030  0.05150  0.91337  Biso   1.000  H
  H81      1.0000 0.94850  0.22880  0.58003  Biso   1.000  H
  H82      1.0000 0.71970  0.77120  0.75330  Biso   1.000  H
  H83      1.0000 0.05150  0.28030  0.08663  Biso   1.000  H
  H84      1.0000 0.22880  0.94850  0.41997  Biso   1.000  H
  H85      1.0000 0.77180  0.74230  0.16300  Biso   1.000  H
  H86      1.0000 0.25770  0.02950  0.82967  Biso   1.000  H
  H87      1.0000 0.97050  0.22820  0.49633  Biso   1.000  H
  H88      1.0000 0.74230  0.77180  0.83700  Biso   1.000  H
  H89      1.0000 0.02950  0.25770  0.17033  Biso   1.000  H
  H90      1.0000 0.22820  0.97050  0.50367  Biso   1.000  H
  N25      1.0000 0.89100  0.61450  0.18320  Biso   1.000  N
  N26      1.0000 0.38550  0.27650  0.84987  Biso   1.000  N
  N27      1.0000 0.72350  0.10900  0.51653  Biso   1.000  N
  N28      1.0000 0.61450  0.89100  0.81680  Biso   1.000  N
  N29      1.0000 0.27650  0.38550  0.15013  Biso   1.000  N
  N30      1.0000 0.10900  0.72350  0.48347  Biso   1.000  N
  H91      1.0000 0.92720  0.61410  0.22300  Biso   1.000  H
  H92      1.0000 0.38590  0.31310  0.88967  Biso   1.000  H
  H93      1.0000 0.68690  0.07280  0.55633  Biso   1.000  H
  H94      1.0000 0.61410  0.92720  0.77700  Biso   1.000  H
  H95      1.0000 0.31310  0.38590  0.11033  Biso   1.000  H
  H96      1.0000 0.07280  0.68690  0.44367  Biso   1.000  H
  C61      1.0000 0.75830  0.57190  0.18680  Biso   1.000  C
  C62      1.0000 0.42810  0.18640  0.85347  Biso   1.000  C
  C63      1.0000 0.81360  0.24170  0.52013  Biso   1.000  C
  C64      1.0000 0.57190  0.75830  0.81320  Biso   1.000  C
  C65      1.0000 0.18640  0.42810  0.14653  Biso   1.000  C
  C66      1.0000 0.24170  0.81360  0.47987  Biso   1.000  C
  H97      1.0000 0.72060  0.51020  0.22520  Biso   1.000  H
  H98      1.0000 0.48980  0.21040  0.89187  Biso   1.000  H
  H99      1.0000 0.78960  0.27940  0.55853  Biso   1.000  H
  H100     1.0000 0.51020  0.72060  0.77480  Biso   1.000  H
  H101     1.0000 0.21040  0.48980  0.10813  Biso   1.000  H
  H102     1.0000 0.27940  0.78960  0.44147  Biso   1.000  H
  H103     1.0000 0.71900  0.53140  0.14140  Biso   1.000  H
  H104     1.0000 0.46860  0.18760  0.80807  Biso   1.000  H
  H105     1.0000 0.81240  0.28100  0.47473  Biso   1.000  H
  H106     1.0000 0.53140  0.71900  0.85860  Biso   1.000  H
  H107     1.0000 0.18760  0.46860  0.19193  Biso   1.000  H
  H108     1.0000 0.28100  0.81240  0.52527  Biso   1.000  H
  Cl1      1.0000 0.68210  0.68210  0.00000  Biso   1.000  Cl
  Cl2      1.0000 0.31790  0.00000  0.66667  Biso   1.000  Cl
  Cl3      1.0000 0.00000  0.31790  0.33333  Biso   1.000  Cl
  Cl4      1.0000 0.26990  0.26990  0.00000  Biso   1.000  Cl
  Cl5      1.0000 0.73010  0.00000  0.66667  Biso   1.000  Cl
  Cl6      1.0000 0.00000  0.73010  0.33333  Biso   1.000  Cl
  O13      1.0000 0.38600  0.53880  0.95330  Biso   1.000  O
  O14      1.0000 0.46120  0.84720  0.61997  Biso   1.000  O
  O15      1.0000 0.15280  0.61400  0.28663  Biso   1.000  O
  O16      1.0000 0.53880  0.38600  0.04670  Biso   1.000  O
  O17      1.0000 0.84720  0.46120  0.38003  Biso   1.000  O
  O18      1.0000 0.61400  0.15280  0.71337  Biso   1.000  O
  Cl7      1.0000 0.72160  0.38250  0.94940  Biso   1.000  Cl
  Cl8      1.0000 0.61750  0.33910  0.61607  Biso   1.000  Cl
  Cl9      1.0000 0.66090  0.27840  0.28273  Biso   1.000  Cl
  Cl10     1.0000 0.38250  0.72160  0.05060  Biso   1.000  Cl
  Cl11     1.0000 0.33910  0.61750  0.38393  Biso   1.000  Cl
  Cl12     1.0000 0.27840  0.66090  0.71727  Biso   1.000  Cl
  O19      1.0000 0.32230  0.44000  0.97210  Biso   1.000  O
  O20      1.0000 0.56000  0.88230  0.63877  Biso   1.000  O
  O21      1.0000 0.11770  0.67770  0.30543  Biso   1.000  O
  O22      1.0000 0.44000  0.32230  0.02790  Biso   1.000  O
  O23      1.0000 0.88230  0.56000  0.36123  Biso   1.000  O
  O24      1.0000 0.67770  0.11770  0.69457  Biso   1.000  O
