data_image0
_cell_length_a       5.1785
_cell_length_b       13.6311
_cell_length_c       8.5386
_cell_angle_alpha    90
_cell_angle_beta     107.524
_cell_angle_gamma    90

_symmetry_space_group_name_H-M    "P 1"
_symmetry_int_tables_number       1

loop_
  _symmetry_equiv_pos_as_xyz
  'x, y, z'

loop_
  _atom_site_label
  _atom_site_occupancy
  _atom_site_fract_x
  _atom_site_fract_y
  _atom_site_fract_z
  _atom_site_thermal_displace_type
  _atom_site_B_iso_or_equiv
  _atom_site_type_symbol
  Cu1      1.0000 0.00000  0.00000  0.00000  Biso   1.000  Cu
  Cu2      1.0000 0.00000  0.50000  0.50000  Biso   1.000  Cu
  C1       1.0000 0.49010  0.05590  0.98190  Biso   1.000  C
  C2       1.0000 0.50990  0.55590  0.51810  Biso   1.000  C
  C3       1.0000 0.50990  0.94410  0.01810  Biso   1.000  C
  C4       1.0000 0.49010  0.44410  0.48190  Biso   1.000  C
  O1       1.0000 0.27130  0.09654  0.97210  Biso   1.000  O
  O2       1.0000 0.72870  0.59654  0.52790  Biso   1.000  O
  O3       1.0000 0.72870  0.90346  0.02790  Biso   1.000  O
  O4       1.0000 0.27130  0.40346  0.47210  Biso   1.000  O
  O5       1.0000 0.69900  0.09546  0.96450  Biso   1.000  O
  O6       1.0000 0.30100  0.59546  0.53550  Biso   1.000  O
  O7       1.0000 0.30100  0.90454  0.03550  Biso   1.000  O
  O8       1.0000 0.69900  0.40454  0.46450  Biso   1.000  O
  S1       1.0000 0.19090  0.13660  0.35110  Biso   1.000  S
  S2       1.0000 0.80910  0.63660  0.14890  Biso   1.000  S
  S3       1.0000 0.80910  0.86340  0.64890  Biso   1.000  S
  S4       1.0000 0.19090  0.36340  0.85110  Biso   1.000  S
  C5       1.0000 0.31600  0.12690  0.56760  Biso   1.000  C
  C6       1.0000 0.68400  0.62690  0.93240  Biso   1.000  C
  C7       1.0000 0.68400  0.87310  0.43240  Biso   1.000  C
  C8       1.0000 0.31600  0.37310  0.06760  Biso   1.000  C
  H1       1.0000 0.19700  0.08620  0.60650  Biso   1.000  H
  H2       1.0000 0.80300  0.58620  0.89350  Biso   1.000  H
  H3       1.0000 0.80300  0.91380  0.39350  Biso   1.000  H
  H4       1.0000 0.19700  0.41380  0.10650  Biso   1.000  H
  H5       1.0000 0.32520  0.19100  0.61560  Biso   1.000  H
  H6       1.0000 0.67480  0.69100  0.88440  Biso   1.000  H
  H7       1.0000 0.67480  0.80900  0.38440  Biso   1.000  H
  H8       1.0000 0.32520  0.30900  0.11560  Biso   1.000  H
  H9       1.0000 0.49360  0.09830  0.59810  Biso   1.000  H
  H10      1.0000 0.50640  0.59830  0.90190  Biso   1.000  H
  H11      1.0000 0.50640  0.90170  0.40190  Biso   1.000  H
  H12      1.0000 0.49360  0.40170  0.09810  Biso   1.000  H
  C9       1.0000 0.88050  0.19470  0.33490  Biso   1.000  C
  C10      1.0000 0.11950  0.69470  0.16510  Biso   1.000  C
  C11      1.0000 0.11950  0.80530  0.66510  Biso   1.000  C
  C12      1.0000 0.88050  0.30530  0.83490  Biso   1.000  C
  H13      1.0000 0.77850  0.20130  0.22120  Biso   1.000  H
  H14      1.0000 0.22150  0.70130  0.27880  Biso   1.000  H
  H15      1.0000 0.22150  0.79870  0.77880  Biso   1.000  H
  H16      1.0000 0.77850  0.29870  0.72120  Biso   1.000  H
  H17      1.0000 0.91410  0.25850  0.38470  Biso   1.000  H
  H18      1.0000 0.08590  0.75850  0.11530  Biso   1.000  H
  H19      1.0000 0.08590  0.74150  0.61530  Biso   1.000  H
  H20      1.0000 0.91410  0.24150  0.88470  Biso   1.000  H
  H21      1.0000 0.77970  0.15600  0.39010  Biso   1.000  H
  H22      1.0000 0.22030  0.65600  0.10990  Biso   1.000  H
  H23      1.0000 0.22030  0.84400  0.60990  Biso   1.000  H
  H24      1.0000 0.77970  0.34400  0.89010  Biso   1.000  H
  O9       1.0000 0.12780  0.03410  0.28710  Biso   1.000  O
  O10      1.0000 0.87220  0.53410  0.21290  Biso   1.000  O
  O11      1.0000 0.87220  0.96590  0.71290  Biso   1.000  O
  O12      1.0000 0.12780  0.46590  0.78710  Biso   1.000  O
