data_image0
_cell_length_a       12.7963
_cell_length_b       18.0945
_cell_length_c       7.4363
_cell_angle_alpha    90
_cell_angle_beta     90
_cell_angle_gamma    90

_symmetry_space_group_name_H-M    "P 1"
_symmetry_int_tables_number       1

loop_
  _symmetry_equiv_pos_as_xyz
  'x, y, z'

loop_
  _atom_site_label
  _atom_site_occupancy
  _atom_site_fract_x
  _atom_site_fract_y
  _atom_site_fract_z
  _atom_site_thermal_displace_type
  _atom_site_B_iso_or_equiv
  _atom_site_type_symbol
  H1       1.0000 0.42700  0.56710  0.35500  Biso   1.000  H
  H2       1.0000 0.07300  0.93290  0.35500  Biso   1.000  H
  H3       1.0000 0.57300  0.06710  0.14500  Biso   1.000  H
  H4       1.0000 0.92700  0.43290  0.14500  Biso   1.000  H
  H5       1.0000 0.57300  0.43290  0.64500  Biso   1.000  H
  H6       1.0000 0.92700  0.06710  0.64500  Biso   1.000  H
  H7       1.0000 0.42700  0.93290  0.85500  Biso   1.000  H
  H8       1.0000 0.07300  0.56710  0.85500  Biso   1.000  H
  Cu1      1.0000 0.50000  0.50000  0.00000  Biso   1.000  Cu
  Cu2      1.0000 0.00000  0.00000  0.00000  Biso   1.000  Cu
  Cu3      1.0000 0.50000  0.00000  0.50000  Biso   1.000  Cu
  Cu4      1.0000 0.00000  0.50000  0.50000  Biso   1.000  Cu
  C1       1.0000 0.69584  0.58576  0.00950  Biso   1.000  C
  C2       1.0000 0.80416  0.91424  0.00950  Biso   1.000  C
  C3       1.0000 0.30416  0.08576  0.49050  Biso   1.000  C
  C4       1.0000 0.19584  0.41424  0.49050  Biso   1.000  C
  C5       1.0000 0.30416  0.41424  0.99050  Biso   1.000  C
  C6       1.0000 0.19584  0.08576  0.99050  Biso   1.000  C
  C7       1.0000 0.69584  0.91424  0.50950  Biso   1.000  C
  C8       1.0000 0.80416  0.58576  0.50950  Biso   1.000  C
  H9       1.0000 0.72570  0.53980  0.98680  Biso   1.000  H
  H10      1.0000 0.77430  0.96020  0.98680  Biso   1.000  H
  H11      1.0000 0.27430  0.03980  0.51320  Biso   1.000  H
  H12      1.0000 0.22570  0.46020  0.51320  Biso   1.000  H
  H13      1.0000 0.27430  0.46020  0.01320  Biso   1.000  H
  H14      1.0000 0.22570  0.03980  0.01320  Biso   1.000  H
  H15      1.0000 0.72570  0.96020  0.48680  Biso   1.000  H
  H16      1.0000 0.77430  0.53980  0.48680  Biso   1.000  H
  C9       1.0000 0.76016  0.64699  0.01590  Biso   1.000  C
  C10      1.0000 0.73984  0.85301  0.01590  Biso   1.000  C
  C11      1.0000 0.23984  0.14699  0.48410  Biso   1.000  C
  C12      1.0000 0.26016  0.35301  0.48410  Biso   1.000  C
  C13      1.0000 0.23984  0.35301  0.98410  Biso   1.000  C
  C14      1.0000 0.26016  0.14699  0.98410  Biso   1.000  C
  C15      1.0000 0.76016  0.85301  0.51590  Biso   1.000  C
  C16      1.0000 0.73984  0.64699  0.51590  Biso   1.000  C
  H17      1.0000 0.83160  0.64200  0.99660  Biso   1.000  H
  H18      1.0000 0.66840  0.85800  0.99660  Biso   1.000  H
  H19      1.0000 0.16840  0.14200  0.50340  Biso   1.000  H
  H20      1.0000 0.33160  0.35800  0.50340  Biso   1.000  H
  H21      1.0000 0.16840  0.35800  0.00340  Biso   1.000  H
  H22      1.0000 0.33160  0.14200  0.00340  Biso   1.000  H
  H23      1.0000 0.83160  0.85800  0.49660  Biso   1.000  H
  H24      1.0000 0.66840  0.64200  0.49660  Biso   1.000  H
  C17      1.0000 0.71724  0.71615  0.05130  Biso   1.000  C
  C18      1.0000 0.78276  0.78385  0.05130  Biso   1.000  C
  C19      1.0000 0.28276  0.21615  0.44870  Biso   1.000  C
  C20      1.0000 0.21724  0.28385  0.44870  Biso   1.000  C
  C21      1.0000 0.28276  0.28385  0.94870  Biso   1.000  C
  C22      1.0000 0.21724  0.21615  0.94870  Biso   1.000  C
  C23      1.0000 0.71724  0.78385  0.55130  Biso   1.000  C
  C24      1.0000 0.78276  0.71615  0.55130  Biso   1.000  C
  C25      1.0000 0.61035  0.71940  0.08300  Biso   1.000  C
  C26      1.0000 0.88965  0.78060  0.08300  Biso   1.000  C
  C27      1.0000 0.38965  0.21940  0.41700  Biso   1.000  C
  C28      1.0000 0.11035  0.28060  0.41700  Biso   1.000  C
  C29      1.0000 0.38965  0.28060  0.91700  Biso   1.000  C
  C30      1.0000 0.11035  0.21940  0.91700  Biso   1.000  C
  C31      1.0000 0.61035  0.78060  0.58300  Biso   1.000  C
  C32      1.0000 0.88965  0.71940  0.58300  Biso   1.000  C
  H25      1.0000 0.57870  0.76420  0.11130  Biso   1.000  H
  H26      1.0000 0.92130  0.73580  0.11130  Biso   1.000  H
  H27      1.0000 0.42130  0.26420  0.38870  Biso   1.000  H
  H28      1.0000 0.07870  0.23580  0.38870  Biso   1.000  H
  H29      1.0000 0.42130  0.23580  0.88870  Biso   1.000  H
  H30      1.0000 0.07870  0.26420  0.88870  Biso   1.000  H
  H31      1.0000 0.57870  0.73580  0.61130  Biso   1.000  H
  H32      1.0000 0.92130  0.76420  0.61130  Biso   1.000  H
  C33      1.0000 0.55138  0.65561  0.07210  Biso   1.000  C
  C34      1.0000 0.94862  0.84439  0.07210  Biso   1.000  C
  C35      1.0000 0.44862  0.15561  0.42790  Biso   1.000  C
  C36      1.0000 0.05138  0.34439  0.42790  Biso   1.000  C
  C37      1.0000 0.44862  0.34439  0.92790  Biso   1.000  C
  C38      1.0000 0.05138  0.15561  0.92790  Biso   1.000  C
  C39      1.0000 0.55138  0.84439  0.57210  Biso   1.000  C
  C40      1.0000 0.94862  0.65561  0.57210  Biso   1.000  C
  H33      1.0000 0.47980  0.65880  0.09180  Biso   1.000  H
  H34      1.0000 0.02020  0.84120  0.09180  Biso   1.000  H
  H35      1.0000 0.52020  0.15880  0.40820  Biso   1.000  H
  H36      1.0000 0.97980  0.34120  0.40820  Biso   1.000  H
  H37      1.0000 0.52020  0.34120  0.90820  Biso   1.000  H
  H38      1.0000 0.97980  0.15880  0.90820  Biso   1.000  H
  H39      1.0000 0.47980  0.84120  0.59180  Biso   1.000  H
  H40      1.0000 0.02020  0.65880  0.59180  Biso   1.000  H
  C41      1.0000 0.58632  0.40824  0.28250  Biso   1.000  C
  C42      1.0000 0.91368  0.09176  0.28250  Biso   1.000  C
  C43      1.0000 0.41368  0.90824  0.21750  Biso   1.000  C
  C44      1.0000 0.08632  0.59176  0.21750  Biso   1.000  C
  C45      1.0000 0.41368  0.59176  0.71750  Biso   1.000  C
  C46      1.0000 0.08632  0.90824  0.71750  Biso   1.000  C
  C47      1.0000 0.58632  0.09176  0.78250  Biso   1.000  C
  C48      1.0000 0.91368  0.40824  0.78250  Biso   1.000  C
  C49      1.0000 0.67872  0.36429  0.35570  Biso   1.000  C
  C50      1.0000 0.82128  0.13571  0.35570  Biso   1.000  C
  C51      1.0000 0.32128  0.86429  0.14430  Biso   1.000  C
  C52      1.0000 0.17872  0.63571  0.14430  Biso   1.000  C
  C53      1.0000 0.32128  0.63571  0.64430  Biso   1.000  C
  C54      1.0000 0.17872  0.86429  0.64430  Biso   1.000  C
  C55      1.0000 0.67872  0.13571  0.85570  Biso   1.000  C
  C56      1.0000 0.82128  0.36429  0.85570  Biso   1.000  C
  H41      1.0000 0.71080  0.33660  0.25860  Biso   1.000  H
  H42      1.0000 0.78920  0.16340  0.25860  Biso   1.000  H
  H43      1.0000 0.28920  0.83660  0.24140  Biso   1.000  H
  H44      1.0000 0.21080  0.66340  0.24140  Biso   1.000  H
  H45      1.0000 0.28920  0.66340  0.74140  Biso   1.000  H
  H46      1.0000 0.21080  0.83660  0.74140  Biso   1.000  H
  H47      1.0000 0.71080  0.16340  0.75860  Biso   1.000  H
  H48      1.0000 0.78920  0.33660  0.75860  Biso   1.000  H
  H49      1.0000 0.73060  0.39820  0.40330  Biso   1.000  H
  H50      1.0000 0.76940  0.10180  0.40330  Biso   1.000  H
  H51      1.0000 0.26940  0.89820  0.09670  Biso   1.000  H
  H52      1.0000 0.23060  0.60180  0.09670  Biso   1.000  H
  H53      1.0000 0.26940  0.60180  0.59670  Biso   1.000  H
  H54      1.0000 0.23060  0.89820  0.59670  Biso   1.000  H
  H55      1.0000 0.73060  0.10180  0.90330  Biso   1.000  H
  H56      1.0000 0.76940  0.39820  0.90330  Biso   1.000  H
  C57      1.0000 0.64633  0.31355  0.49660  Biso   1.000  C
  C58      1.0000 0.85367  0.18645  0.49660  Biso   1.000  C
  C59      1.0000 0.35367  0.81355  0.00340  Biso   1.000  C
  C60      1.0000 0.14633  0.68645  0.00340  Biso   1.000  C
  C61      1.0000 0.35367  0.68645  0.50340  Biso   1.000  C
  C62      1.0000 0.14633  0.81355  0.50340  Biso   1.000  C
  C63      1.0000 0.64633  0.18645  0.99660  Biso   1.000  C
  C64      1.0000 0.85367  0.31355  0.99660  Biso   1.000  C
  N1       1.0000 0.59251  0.58953  0.03460  Biso   1.000  N
  N2       1.0000 0.90749  0.91047  0.03460  Biso   1.000  N
  N3       1.0000 0.40749  0.08953  0.46540  Biso   1.000  N
  N4       1.0000 0.09251  0.41047  0.46540  Biso   1.000  N
  N5       1.0000 0.40749  0.41047  0.96540  Biso   1.000  N
  N6       1.0000 0.09251  0.08953  0.96540  Biso   1.000  N
  N7       1.0000 0.59251  0.91047  0.53460  Biso   1.000  N
  N8       1.0000 0.90749  0.58953  0.53460  Biso   1.000  N
  N9       1.0000 0.61856  0.27479  0.60780  Biso   1.000  N
  N10      1.0000 0.88144  0.22521  0.60780  Biso   1.000  N
  N11      1.0000 0.38144  0.77479  0.89220  Biso   1.000  N
  N12      1.0000 0.11856  0.72521  0.89220  Biso   1.000  N
  N13      1.0000 0.38144  0.72521  0.39220  Biso   1.000  N
  N14      1.0000 0.11856  0.77479  0.39220  Biso   1.000  N
  N15      1.0000 0.61856  0.22521  0.10780  Biso   1.000  N
  N16      1.0000 0.88144  0.27479  0.10780  Biso   1.000  N
  O1       1.0000 0.39792  0.53175  0.27600  Biso   1.000  O
  O2       1.0000 0.10208  0.96825  0.27600  Biso   1.000  O
  O3       1.0000 0.60208  0.03175  0.22400  Biso   1.000  O
  O4       1.0000 0.89792  0.46825  0.22400  Biso   1.000  O
  O5       1.0000 0.60208  0.46825  0.72400  Biso   1.000  O
  O6       1.0000 0.89792  0.03175  0.72400  Biso   1.000  O
  O7       1.0000 0.39792  0.96825  0.77600  Biso   1.000  O
  O8       1.0000 0.10208  0.53175  0.77600  Biso   1.000  O
  O9       1.0000 0.60336  0.44046  0.13535  Biso   1.000  O
  O10      1.0000 0.89664  0.05954  0.13535  Biso   1.000  O
  O11      1.0000 0.39664  0.94046  0.36465  Biso   1.000  O
  O12      1.0000 0.10336  0.55954  0.36465  Biso   1.000  O
  O13      1.0000 0.39664  0.55954  0.86465  Biso   1.000  O
  O14      1.0000 0.10336  0.94046  0.86465  Biso   1.000  O
  O15      1.0000 0.60336  0.05954  0.63535  Biso   1.000  O
  O16      1.0000 0.89664  0.44046  0.63535  Biso   1.000  O
  O17      1.0000 0.50432  0.40908  0.37120  Biso   1.000  O
  O18      1.0000 0.99568  0.09092  0.37120  Biso   1.000  O
  O19      1.0000 0.49568  0.90908  0.12880  Biso   1.000  O
  O20      1.0000 0.00432  0.59092  0.12880  Biso   1.000  O
  O21      1.0000 0.49568  0.59092  0.62880  Biso   1.000  O
  O22      1.0000 0.00432  0.90908  0.62880  Biso   1.000  O
  O23      1.0000 0.50432  0.09092  0.87120  Biso   1.000  O
  O24      1.0000 0.99568  0.40908  0.87120  Biso   1.000  O
  H57      1.0000 0.42200  0.48510  0.31700  Biso   1.000  H
  H58      1.0000 0.07800  0.01490  0.31700  Biso   1.000  H
  H59      1.0000 0.57800  0.98510  0.18300  Biso   1.000  H
  H60      1.0000 0.92200  0.51490  0.18300  Biso   1.000  H
  H61      1.0000 0.57800  0.51490  0.68300  Biso   1.000  H
  H62      1.0000 0.92200  0.98510  0.68300  Biso   1.000  H
  H63      1.0000 0.42200  0.01490  0.81700  Biso   1.000  H
  H64      1.0000 0.07800  0.48510  0.81700  Biso   1.000  H
