data_image0
_cell_length_a       9.6394
_cell_length_b       10.0132
_cell_length_c       10.2337
_cell_angle_alpha    97.073
_cell_angle_beta     91.002
_cell_angle_gamma    117.107

_symmetry_space_group_name_H-M    "P 1"
_symmetry_int_tables_number       1

loop_
  _symmetry_equiv_pos_as_xyz
  'x, y, z'

loop_
  _atom_site_label
  _atom_site_occupancy
  _atom_site_fract_x
  _atom_site_fract_y
  _atom_site_fract_z
  _atom_site_thermal_displace_type
  _atom_site_B_iso_or_equiv
  _atom_site_type_symbol
  Cu1      1.0000 0.32650  0.00950  0.37359  Biso   1.000  Cu
  Cu2      1.0000 0.67350  0.99050  0.62641  Biso   1.000  Cu
  C1       1.0000 0.20040  0.11400  0.21070  Biso   1.000  C
  C2       1.0000 0.79960  0.88600  0.78930  Biso   1.000  C
  C3       1.0000 0.17890  0.20100  0.10750  Biso   1.000  C
  C4       1.0000 0.82110  0.79900  0.89250  Biso   1.000  C
  H1       1.0000 0.24000  0.30870  0.13830  Biso   1.000  H
  H2       1.0000 0.76000  0.69130  0.86170  Biso   1.000  H
  H3       1.0000 0.22010  0.17780  0.02680  Biso   1.000  H
  H4       1.0000 0.77990  0.82220  0.97320  Biso   1.000  H
  C5       1.0000 0.01840  0.16790  0.07750  Biso   1.000  C
  C6       1.0000 0.98160  0.83210  0.92250  Biso   1.000  C
  C7       1.0000 0.27120  0.82780  0.57930  Biso   1.000  C
  C8       1.0000 0.72880  0.17220  0.42070  Biso   1.000  C
  C9       1.0000 0.16220  0.70210  0.65380  Biso   1.000  C
  C10      1.0000 0.83780  0.29790  0.34620  Biso   1.000  C
  H5       1.0000 0.18900  0.61940  0.64060  Biso   1.000  H
  H6       1.0000 0.81100  0.38060  0.35940  Biso   1.000  H
  H7       1.0000 0.18070  0.74090  0.74750  Biso   1.000  H
  H8       1.0000 0.81930  0.25910  0.25250  Biso   1.000  H
  C11      1.0000 0.99680  0.64260  0.61500  Biso   1.000  C
  C12      1.0000 0.00320  0.35740  0.38500  Biso   1.000  C
  C13      1.0000 0.19180  0.70700  0.21290  Biso   1.000  C
  C14      1.0000 0.80820  0.29300  0.78710  Biso   1.000  C
  H9       1.0000 0.11640  0.68440  0.27350  Biso   1.000  H
  H10      1.0000 0.88360  0.31560  0.72650  Biso   1.000  H
  C15      1.0000 0.17600  0.59580  0.11260  Biso   1.000  C
  C16      1.0000 0.82400  0.40420  0.88740  Biso   1.000  C
  H11      1.0000 0.09050  0.50010  0.10650  Biso   1.000  H
  H12      1.0000 0.90950  0.49990  0.89350  Biso   1.000  H
  C17      1.0000 0.28590  0.62400  0.02000  Biso   1.000  C
  C18      1.0000 0.71410  0.37600  0.98000  Biso   1.000  C
  C19      1.0000 0.40980  0.77060  0.03490  Biso   1.000  C
  C20      1.0000 0.59020  0.22940  0.96510  Biso   1.000  C
  H13      1.0000 0.48640  0.79640  0.97530  Biso   1.000  H
  H14      1.0000 0.51360  0.20360  0.02470  Biso   1.000  H
  C21      1.0000 0.41840  0.87680  0.13790  Biso   1.000  C
  C22      1.0000 0.58160  0.12320  0.86210  Biso   1.000  C
  H15      1.0000 0.50210  0.97380  0.14600  Biso   1.000  H
  H16      1.0000 0.49790  0.02620  0.85400  Biso   1.000  H
  C23      1.0000 0.26750  0.50330  0.91420  Biso   1.000  C
  C24      1.0000 0.73250  0.49670  0.08580  Biso   1.000  C
  H17      1.0000 0.17700  0.41140  0.90910  Biso   1.000  H
  H18      1.0000 0.82300  0.58860  0.09090  Biso   1.000  H
  C25      1.0000 0.36880  0.51340  0.82500  Biso   1.000  C
  C26      1.0000 0.63120  0.48660  0.17500  Biso   1.000  C
  H19      1.0000 0.45700  0.60670  0.82800  Biso   1.000  H
  H20      1.0000 0.54300  0.39330  0.17200  Biso   1.000  H
  C27      1.0000 0.35460  0.39190  0.72260  Biso   1.000  C
  C28      1.0000 0.64540  0.60810  0.27740  Biso   1.000  C
  C29      1.0000 0.22370  0.25100  0.69590  Biso   1.000  C
  C30      1.0000 0.77630  0.74900  0.30410  Biso   1.000  C
  H21      1.0000 0.13790  0.22910  0.74550  Biso   1.000  H
  H22      1.0000 0.86210  0.77090  0.25450  Biso   1.000  H
  C31      1.0000 0.22060  0.14420  0.59690  Biso   1.000  C
  C32      1.0000 0.77940  0.85580  0.40310  Biso   1.000  C
  H23      1.0000 0.13160  0.05070  0.58110  Biso   1.000  H
  H24      1.0000 0.86840  0.94930  0.41890  Biso   1.000  H
  C33      1.0000 0.46530  0.30320  0.54600  Biso   1.000  C
  C34      1.0000 0.53470  0.69680  0.45400  Biso   1.000  C
  H25      1.0000 0.54880  0.32250  0.49420  Biso   1.000  H
  H26      1.0000 0.45120  0.67750  0.50580  Biso   1.000  H
  C35      1.0000 0.47720  0.41590  0.64430  Biso   1.000  C
  C36      1.0000 0.52280  0.58410  0.35570  Biso   1.000  C
  H27      1.0000 0.56770  0.50830  0.65810  Biso   1.000  H
  H28      1.0000 0.43230  0.49170  0.34190  Biso   1.000  H
  N1       1.0000 0.31210  0.84740  0.22700  Biso   1.000  N
  N2       1.0000 0.68790  0.15260  0.77300  Biso   1.000  N
  N3       1.0000 0.33990  0.16800  0.52150  Biso   1.000  N
  N4       1.0000 0.66010  0.83200  0.47850  Biso   1.000  N
  N5       1.0000 0.86800  0.59300  0.58750  Biso   1.000  N
  N6       1.0000 0.13200  0.40700  0.41250  Biso   1.000  N
  N7       1.0000 0.89320  0.14210  0.05450  Biso   1.000  N
  N8       1.0000 0.10680  0.85790  0.94550  Biso   1.000  N
  O1       1.0000 0.34130  0.14620  0.23991  Biso   1.000  O
  O2       1.0000 0.65870  0.85380  0.76009  Biso   1.000  O
  O3       1.0000 0.08790  0.02190  0.25760  Biso   1.000  O
  O4       1.0000 0.91210  0.97810  0.74240  Biso   1.000  O
  O5       1.0000 0.21070  0.84920  0.48074  Biso   1.000  O
  O6       1.0000 0.78930  0.15080  0.51926  Biso   1.000  O
  O7       1.0000 0.40810  0.89330  0.62250  Biso   1.000  O
  O8       1.0000 0.59190  0.10670  0.37750  Biso   1.000  O
