data_image0
_cell_length_a       23.9507
_cell_length_b       11.7986
_cell_length_c       14.5996
_cell_angle_alpha    90
_cell_angle_beta     110.044
_cell_angle_gamma    90

_symmetry_space_group_name_H-M    "P 1"
_symmetry_int_tables_number       1

loop_
  _symmetry_equiv_pos_as_xyz
  'x, y, z'

loop_
  _atom_site_label
  _atom_site_occupancy
  _atom_site_fract_x
  _atom_site_fract_y
  _atom_site_fract_z
  _atom_site_thermal_displace_type
  _atom_site_B_iso_or_equiv
  _atom_site_type_symbol
  Cu1      1.0000 0.26250  0.81149  0.11186  Biso   1.000  Cu
  Cu2      1.0000 0.73750  0.81149  0.38814  Biso   1.000  Cu
  Cu3      1.0000 0.76250  0.31149  0.11186  Biso   1.000  Cu
  Cu4      1.0000 0.23750  0.31149  0.38814  Biso   1.000  Cu
  Cu5      1.0000 0.73750  0.18851  0.88814  Biso   1.000  Cu
  Cu6      1.0000 0.26250  0.18851  0.61186  Biso   1.000  Cu
  Cu7      1.0000 0.23750  0.68851  0.88814  Biso   1.000  Cu
  Cu8      1.0000 0.76250  0.68851  0.61186  Biso   1.000  Cu
  C1       1.0000 0.38632  0.81869  0.12109  Biso   1.000  C
  C2       1.0000 0.61368  0.81869  0.37891  Biso   1.000  C
  C3       1.0000 0.88632  0.31869  0.12109  Biso   1.000  C
  C4       1.0000 0.11368  0.31869  0.37891  Biso   1.000  C
  C5       1.0000 0.61368  0.18131  0.87891  Biso   1.000  C
  C6       1.0000 0.38632  0.18131  0.62109  Biso   1.000  C
  C7       1.0000 0.11368  0.68131  0.87891  Biso   1.000  C
  C8       1.0000 0.88632  0.68131  0.62109  Biso   1.000  C
  H1       1.0000 0.38220  0.74030  0.12160  Biso   1.000  H
  H2       1.0000 0.61780  0.74030  0.37840  Biso   1.000  H
  H3       1.0000 0.88220  0.24030  0.12160  Biso   1.000  H
  H4       1.0000 0.11780  0.24030  0.37840  Biso   1.000  H
  H5       1.0000 0.61780  0.25970  0.87840  Biso   1.000  H
  H6       1.0000 0.38220  0.25970  0.62160  Biso   1.000  H
  H7       1.0000 0.11780  0.75970  0.87840  Biso   1.000  H
  H8       1.0000 0.88220  0.75970  0.62160  Biso   1.000  H
  C9       1.0000 0.44019  0.86308  0.12420  Biso   1.000  C
  C10      1.0000 0.55981  0.86308  0.37580  Biso   1.000  C
  C11      1.0000 0.94019  0.36308  0.12420  Biso   1.000  C
  C12      1.0000 0.05981  0.36308  0.37580  Biso   1.000  C
  C13      1.0000 0.55981  0.13692  0.87580  Biso   1.000  C
  C14      1.0000 0.44019  0.13692  0.62420  Biso   1.000  C
  C15      1.0000 0.05981  0.63692  0.87580  Biso   1.000  C
  C16      1.0000 0.94019  0.63692  0.62420  Biso   1.000  C
  H9       1.0000 0.47130  0.81500  0.12580  Biso   1.000  H
  H10      1.0000 0.52870  0.81500  0.37420  Biso   1.000  H
  H11      1.0000 0.97130  0.31500  0.12580  Biso   1.000  H
  H12      1.0000 0.02870  0.31500  0.37420  Biso   1.000  H
  H13      1.0000 0.52870  0.18500  0.87420  Biso   1.000  H
  H14      1.0000 0.47130  0.18500  0.62580  Biso   1.000  H
  H15      1.0000 0.02870  0.68500  0.87420  Biso   1.000  H
  H16      1.0000 0.97130  0.68500  0.62580  Biso   1.000  H
  C17      1.0000 0.44798  0.97967  0.12492  Biso   1.000  C
  C18      1.0000 0.55202  0.97967  0.37508  Biso   1.000  C
  C19      1.0000 0.94798  0.47967  0.12492  Biso   1.000  C
  C20      1.0000 0.05202  0.47967  0.37508  Biso   1.000  C
  C21      1.0000 0.55202  0.02033  0.87508  Biso   1.000  C
  C22      1.0000 0.44798  0.02033  0.62492  Biso   1.000  C
  C23      1.0000 0.05202  0.52033  0.87508  Biso   1.000  C
  C24      1.0000 0.94798  0.52033  0.62492  Biso   1.000  C
  C25      1.0000 0.50490  0.02620  0.12615  Biso   1.000  C
  C26      1.0000 0.49510  0.02620  0.37385  Biso   1.000  C
  C27      1.0000 0.00490  0.52620  0.12615  Biso   1.000  C
  C28      1.0000 0.99510  0.52620  0.37385  Biso   1.000  C
  C29      1.0000 0.49510  0.97380  0.87385  Biso   1.000  C
  C30      1.0000 0.50490  0.97380  0.62615  Biso   1.000  C
  C31      1.0000 0.99510  0.47380  0.87385  Biso   1.000  C
  C32      1.0000 0.00490  0.47380  0.62615  Biso   1.000  C
  H17      1.0000 0.53430  0.97420  0.12740  Biso   1.000  H
  H18      1.0000 0.46570  0.97420  0.37260  Biso   1.000  H
  H19      1.0000 0.03430  0.47420  0.12740  Biso   1.000  H
  H20      1.0000 0.96570  0.47420  0.37260  Biso   1.000  H
  H21      1.0000 0.46570  0.02580  0.87260  Biso   1.000  H
  H22      1.0000 0.53430  0.02580  0.62740  Biso   1.000  H
  H23      1.0000 0.96570  0.52580  0.87260  Biso   1.000  H
  H24      1.0000 0.03430  0.52580  0.62740  Biso   1.000  H
  C33      1.0000 0.40009  0.04597  0.12432  Biso   1.000  C
  C34      1.0000 0.59991  0.04597  0.37568  Biso   1.000  C
  C35      1.0000 0.90009  0.54597  0.12432  Biso   1.000  C
  C36      1.0000 0.09991  0.54597  0.37568  Biso   1.000  C
  C37      1.0000 0.59991  0.95403  0.87568  Biso   1.000  C
  C38      1.0000 0.40009  0.95403  0.62432  Biso   1.000  C
  C39      1.0000 0.09991  0.45403  0.87568  Biso   1.000  C
  C40      1.0000 0.90009  0.45403  0.62432  Biso   1.000  C
  H25      1.0000 0.40360  0.12450  0.12700  Biso   1.000  H
  H26      1.0000 0.59640  0.12450  0.37300  Biso   1.000  H
  H27      1.0000 0.90360  0.62450  0.12700  Biso   1.000  H
  H28      1.0000 0.09640  0.62450  0.37300  Biso   1.000  H
  H29      1.0000 0.59640  0.87550  0.87300  Biso   1.000  H
  H30      1.0000 0.40360  0.87550  0.62700  Biso   1.000  H
  H31      1.0000 0.09640  0.37550  0.87300  Biso   1.000  H
  H32      1.0000 0.90360  0.37550  0.62700  Biso   1.000  H
  C41      1.0000 0.34731  0.99595  0.11982  Biso   1.000  C
  C42      1.0000 0.65269  0.99595  0.38018  Biso   1.000  C
  C43      1.0000 0.84731  0.49595  0.11982  Biso   1.000  C
  C44      1.0000 0.15269  0.49595  0.38018  Biso   1.000  C
  C45      1.0000 0.65269  0.00405  0.88018  Biso   1.000  C
  C46      1.0000 0.34731  0.00405  0.61982  Biso   1.000  C
  C47      1.0000 0.15269  0.50405  0.88018  Biso   1.000  C
  C48      1.0000 0.84731  0.50405  0.61982  Biso   1.000  C
  H33      1.0000 0.31560  0.04210  0.11840  Biso   1.000  H
  H34      1.0000 0.68440  0.04210  0.38160  Biso   1.000  H
  H35      1.0000 0.81560  0.54210  0.11840  Biso   1.000  H
  H36      1.0000 0.18440  0.54210  0.38160  Biso   1.000  H
  H37      1.0000 0.68440  0.95790  0.88160  Biso   1.000  H
  H38      1.0000 0.31560  0.95790  0.61840  Biso   1.000  H
  H39      1.0000 0.18440  0.45790  0.88160  Biso   1.000  H
  H40      1.0000 0.81560  0.45790  0.61840  Biso   1.000  H
  C49      1.0000 0.67760  0.15145  0.13831  Biso   1.000  C
  C50      1.0000 0.32240  0.15145  0.36169  Biso   1.000  C
  C51      1.0000 0.17760  0.65145  0.13831  Biso   1.000  C
  C52      1.0000 0.82240  0.65145  0.36169  Biso   1.000  C
  C53      1.0000 0.32240  0.84855  0.86169  Biso   1.000  C
  C54      1.0000 0.67760  0.84855  0.63831  Biso   1.000  C
  C55      1.0000 0.82240  0.34855  0.86169  Biso   1.000  C
  C56      1.0000 0.17760  0.34855  0.63831  Biso   1.000  C
  H41      1.0000 0.70990  0.10300  0.14970  Biso   1.000  H
  H42      1.0000 0.29010  0.10300  0.35030  Biso   1.000  H
  H43      1.0000 0.20990  0.60300  0.14970  Biso   1.000  H
  H44      1.0000 0.79010  0.60300  0.35030  Biso   1.000  H
  H45      1.0000 0.29010  0.89700  0.85030  Biso   1.000  H
  H46      1.0000 0.70990  0.89700  0.64970  Biso   1.000  H
  H47      1.0000 0.79010  0.39700  0.85030  Biso   1.000  H
  H48      1.0000 0.20990  0.39700  0.64970  Biso   1.000  H
  C57      1.0000 0.62514  0.10784  0.14115  Biso   1.000  C
  C58      1.0000 0.37486  0.10784  0.35885  Biso   1.000  C
  C59      1.0000 0.12514  0.60784  0.14115  Biso   1.000  C
  C60      1.0000 0.87486  0.60784  0.35885  Biso   1.000  C
  C61      1.0000 0.37486  0.89216  0.85885  Biso   1.000  C
  C62      1.0000 0.62514  0.89216  0.64115  Biso   1.000  C
  C63      1.0000 0.87486  0.39216  0.85885  Biso   1.000  C
  C64      1.0000 0.12514  0.39216  0.64115  Biso   1.000  C
  H49      1.0000 0.62240  0.03110  0.15370  Biso   1.000  H
  H50      1.0000 0.37760  0.03110  0.34630  Biso   1.000  H
  H51      1.0000 0.12240  0.53110  0.15370  Biso   1.000  H
  H52      1.0000 0.87760  0.53110  0.34630  Biso   1.000  H
  H53      1.0000 0.37760  0.96890  0.84630  Biso   1.000  H
  H54      1.0000 0.62240  0.96890  0.65370  Biso   1.000  H
  H55      1.0000 0.87760  0.46890  0.84630  Biso   1.000  H
  H56      1.0000 0.12240  0.46890  0.65370  Biso   1.000  H
  C65      1.0000 0.57627  0.17741  0.12547  Biso   1.000  C
  C66      1.0000 0.42373  0.17741  0.37453  Biso   1.000  C
  C67      1.0000 0.07627  0.67741  0.12547  Biso   1.000  C
  C68      1.0000 0.92373  0.67741  0.37453  Biso   1.000  C
  C69      1.0000 0.42373  0.82259  0.87453  Biso   1.000  C
  C70      1.0000 0.57627  0.82259  0.62547  Biso   1.000  C
  C71      1.0000 0.92373  0.32259  0.87453  Biso   1.000  C
  C72      1.0000 0.07627  0.32259  0.62547  Biso   1.000  C
  C73      1.0000 0.58378  0.29145  0.10878  Biso   1.000  C
  C74      1.0000 0.41622  0.29145  0.39122  Biso   1.000  C
  C75      1.0000 0.08378  0.79145  0.10878  Biso   1.000  C
  C76      1.0000 0.91622  0.79145  0.39122  Biso   1.000  C
  C77      1.0000 0.41622  0.70855  0.89122  Biso   1.000  C
  C78      1.0000 0.58378  0.70855  0.60878  Biso   1.000  C
  C79      1.0000 0.91622  0.20855  0.89122  Biso   1.000  C
  C80      1.0000 0.08378  0.20855  0.60878  Biso   1.000  C
  H57      1.0000 0.55250  0.34200  0.09940  Biso   1.000  H
  H58      1.0000 0.44750  0.34200  0.40060  Biso   1.000  H
  H59      1.0000 0.05250  0.84200  0.09940  Biso   1.000  H
  H60      1.0000 0.94750  0.84200  0.40060  Biso   1.000  H
  H61      1.0000 0.44750  0.65800  0.90060  Biso   1.000  H
  H62      1.0000 0.55250  0.65800  0.59940  Biso   1.000  H
  H63      1.0000 0.94750  0.15800  0.90060  Biso   1.000  H
  H64      1.0000 0.05250  0.15800  0.59940  Biso   1.000  H
  C81      1.0000 0.63758  0.32932  0.10623  Biso   1.000  C
  C82      1.0000 0.36242  0.32932  0.39377  Biso   1.000  C
  C83      1.0000 0.13758  0.82932  0.10623  Biso   1.000  C
  C84      1.0000 0.86242  0.82932  0.39377  Biso   1.000  C
  C85      1.0000 0.36242  0.67068  0.89377  Biso   1.000  C
  C86      1.0000 0.63758  0.67068  0.60623  Biso   1.000  C
  C87      1.0000 0.86242  0.17068  0.89377  Biso   1.000  C
  C88      1.0000 0.13758  0.17068  0.60623  Biso   1.000  C
  H65      1.0000 0.64170  0.40580  0.09450  Biso   1.000  H
  H66      1.0000 0.35830  0.40580  0.40550  Biso   1.000  H
  H67      1.0000 0.14170  0.90580  0.09450  Biso   1.000  H
  H68      1.0000 0.85830  0.90580  0.40550  Biso   1.000  H
  H69      1.0000 0.35830  0.59420  0.90550  Biso   1.000  H
  H70      1.0000 0.64170  0.59420  0.59450  Biso   1.000  H
  H71      1.0000 0.85830  0.09420  0.90550  Biso   1.000  H
  H72      1.0000 0.14170  0.09420  0.59450  Biso   1.000  H
  C89      1.0000 0.51866  0.13490  0.12568  Biso   1.000  C
  C90      1.0000 0.48134  0.13490  0.37432  Biso   1.000  C
  C91      1.0000 0.01866  0.63490  0.12568  Biso   1.000  C
  C92      1.0000 0.98134  0.63490  0.37432  Biso   1.000  C
  C93      1.0000 0.48134  0.86510  0.87432  Biso   1.000  C
  C94      1.0000 0.51866  0.86510  0.62568  Biso   1.000  C
  C95      1.0000 0.98134  0.36510  0.87432  Biso   1.000  C
  C96      1.0000 0.01866  0.36510  0.62568  Biso   1.000  C
  H73      1.0000 0.48990  0.18790  0.12550  Biso   1.000  H
  H74      1.0000 0.51010  0.18790  0.37450  Biso   1.000  H
  H75      1.0000 0.98990  0.68790  0.12550  Biso   1.000  H
  H76      1.0000 0.01010  0.68790  0.37450  Biso   1.000  H
  H77      1.0000 0.51010  0.81210  0.87450  Biso   1.000  H
  H78      1.0000 0.48990  0.81210  0.62550  Biso   1.000  H
  H79      1.0000 0.01010  0.31210  0.87450  Biso   1.000  H
  H80      1.0000 0.98990  0.31210  0.62550  Biso   1.000  H
  C97      1.0000 0.20412  0.96044  0.96512  Biso   1.000  C
  C98      1.0000 0.79588  0.96044  0.53488  Biso   1.000  C
  C99      1.0000 0.70412  0.46044  0.96512  Biso   1.000  C
  C100     1.0000 0.29588  0.46044  0.53488  Biso   1.000  C
  C101     1.0000 0.79588  0.03956  0.03488  Biso   1.000  C
  C102     1.0000 0.20412  0.03956  0.46512  Biso   1.000  C
  C103     1.0000 0.29588  0.53956  0.03488  Biso   1.000  C
  C104     1.0000 0.70412  0.53956  0.46512  Biso   1.000  C
  C105     1.0000 0.17389  0.00180  0.86066  Biso   1.000  C
  C106     1.0000 0.82611  0.00180  0.63934  Biso   1.000  C
  C107     1.0000 0.67389  0.50180  0.86066  Biso   1.000  C
  C108     1.0000 0.32611  0.50180  0.63934  Biso   1.000  C
  C109     1.0000 0.82611  0.99820  0.13934  Biso   1.000  C
  C110     1.0000 0.17389  0.99820  0.36066  Biso   1.000  C
  C111     1.0000 0.32611  0.49820  0.13934  Biso   1.000  C
  C112     1.0000 0.67389  0.49820  0.36066  Biso   1.000  C
  C113     1.0000 0.13350  0.09400  0.85440  Biso   1.000  C
  C114     1.0000 0.86650  0.09400  0.64560  Biso   1.000  C
  C115     1.0000 0.63350  0.59400  0.85440  Biso   1.000  C
  C116     1.0000 0.36650  0.59400  0.64560  Biso   1.000  C
  C117     1.0000 0.86650  0.90600  0.14560  Biso   1.000  C
  C118     1.0000 0.13350  0.90600  0.35440  Biso   1.000  C
  C119     1.0000 0.36650  0.40600  0.14560  Biso   1.000  C
  C120     1.0000 0.63350  0.40600  0.35440  Biso   1.000  C
  C121     1.0000 0.30740  0.79998  0.30820  Biso   1.000  C
  C122     1.0000 0.69260  0.79998  0.19180  Biso   1.000  C
  C123     1.0000 0.80740  0.29998  0.30820  Biso   1.000  C
  C124     1.0000 0.19260  0.29998  0.19180  Biso   1.000  C
  C125     1.0000 0.69260  0.20002  0.69180  Biso   1.000  C
  C126     1.0000 0.30740  0.20002  0.80820  Biso   1.000  C
  C127     1.0000 0.19260  0.70002  0.69180  Biso   1.000  C
  C128     1.0000 0.80740  0.70002  0.80820  Biso   1.000  C
  C129     1.0000 0.34372  0.74980  0.40752  Biso   1.000  C
  C130     1.0000 0.65628  0.74980  0.09248  Biso   1.000  C
  C131     1.0000 0.84372  0.24980  0.40752  Biso   1.000  C
  C132     1.0000 0.15628  0.24980  0.09248  Biso   1.000  C
  C133     1.0000 0.65628  0.25020  0.59248  Biso   1.000  C
  C134     1.0000 0.34372  0.25020  0.90752  Biso   1.000  C
  C135     1.0000 0.15628  0.75020  0.59248  Biso   1.000  C
  C136     1.0000 0.84372  0.75020  0.90752  Biso   1.000  C
  H81      1.0000 0.35580  0.81070  0.45480  Biso   1.000  H
  H82      1.0000 0.64420  0.81070  0.04520  Biso   1.000  H
  H83      1.0000 0.85580  0.31070  0.45480  Biso   1.000  H
  H84      1.0000 0.14420  0.31070  0.04520  Biso   1.000  H
  H85      1.0000 0.64420  0.18930  0.54520  Biso   1.000  H
  H86      1.0000 0.35580  0.18930  0.95480  Biso   1.000  H
  H87      1.0000 0.14420  0.68930  0.54520  Biso   1.000  H
  H88      1.0000 0.85580  0.68930  0.95480  Biso   1.000  H
  H89      1.0000 0.31850  0.69890  0.42820  Biso   1.000  H
  H90      1.0000 0.68150  0.69890  0.07180  Biso   1.000  H
  H91      1.0000 0.81850  0.19890  0.42820  Biso   1.000  H
  H92      1.0000 0.18150  0.19890  0.07180  Biso   1.000  H
  H93      1.0000 0.68150  0.30110  0.57180  Biso   1.000  H
  H94      1.0000 0.31850  0.30110  0.92820  Biso   1.000  H
  H95      1.0000 0.18150  0.80110  0.57180  Biso   1.000  H
  H96      1.0000 0.81850  0.80110  0.92820  Biso   1.000  H
  C137     1.0000 0.39530  0.68940  0.40780  Biso   1.000  C
  C138     1.0000 0.60470  0.68940  0.09220  Biso   1.000  C
  C139     1.0000 0.89530  0.18940  0.40780  Biso   1.000  C
  C140     1.0000 0.10470  0.18940  0.09220  Biso   1.000  C
  C141     1.0000 0.60470  0.31060  0.59220  Biso   1.000  C
  C142     1.0000 0.39530  0.31060  0.90780  Biso   1.000  C
  C143     1.0000 0.10470  0.81060  0.59220  Biso   1.000  C
  C144     1.0000 0.89530  0.81060  0.90780  Biso   1.000  C
  N1       1.0000 0.33988  0.88319  0.11740  Biso   1.000  N
  N2       1.0000 0.66012  0.88319  0.38260  Biso   1.000  N
  N3       1.0000 0.83988  0.38319  0.11740  Biso   1.000  N
  N4       1.0000 0.16012  0.38319  0.38260  Biso   1.000  N
  N5       1.0000 0.66012  0.11681  0.88260  Biso   1.000  N
  N6       1.0000 0.33988  0.11681  0.61740  Biso   1.000  N
  N7       1.0000 0.16012  0.61681  0.88260  Biso   1.000  N
  N8       1.0000 0.83988  0.61681  0.61740  Biso   1.000  N
  N9       1.0000 0.68422  0.26099  0.11982  Biso   1.000  N
  N10      1.0000 0.31578  0.26099  0.38018  Biso   1.000  N
  N11      1.0000 0.18422  0.76099  0.11982  Biso   1.000  N
  N12      1.0000 0.81578  0.76099  0.38018  Biso   1.000  N
  N13      1.0000 0.31578  0.73901  0.88018  Biso   1.000  N
  N14      1.0000 0.68422  0.73901  0.61982  Biso   1.000  N
  N15      1.0000 0.81578  0.23901  0.88018  Biso   1.000  N
  N16      1.0000 0.18422  0.23901  0.61982  Biso   1.000  N
  N17      1.0000 0.10040  0.16480  0.85060  Biso   1.000  N
  N18      1.0000 0.89960  0.16480  0.64940  Biso   1.000  N
  N19      1.0000 0.60040  0.66480  0.85060  Biso   1.000  N
  N20      1.0000 0.39960  0.66480  0.64940  Biso   1.000  N
  N21      1.0000 0.89960  0.83520  0.14940  Biso   1.000  N
  N22      1.0000 0.10040  0.83520  0.35060  Biso   1.000  N
  N23      1.0000 0.39960  0.33520  0.14940  Biso   1.000  N
  N24      1.0000 0.60040  0.33520  0.35060  Biso   1.000  N
  N25      1.0000 0.43590  0.64440  0.40680  Biso   1.000  N
  N26      1.0000 0.56410  0.64440  0.09320  Biso   1.000  N
  N27      1.0000 0.93590  0.14440  0.40680  Biso   1.000  N
  N28      1.0000 0.06410  0.14440  0.09320  Biso   1.000  N
  N29      1.0000 0.56410  0.35560  0.59320  Biso   1.000  N
  N30      1.0000 0.43590  0.35560  0.90680  Biso   1.000  N
  N31      1.0000 0.06410  0.85560  0.59320  Biso   1.000  N
  N32      1.0000 0.93590  0.85560  0.90680  Biso   1.000  N
  O1       1.0000 0.22387  0.85863  0.97387  Biso   1.000  O
  O2       1.0000 0.77613  0.85863  0.52613  Biso   1.000  O
  O3       1.0000 0.72387  0.35863  0.97387  Biso   1.000  O
  O4       1.0000 0.27613  0.35863  0.52613  Biso   1.000  O
  O5       1.0000 0.77613  0.14137  0.02613  Biso   1.000  O
  O6       1.0000 0.22387  0.14137  0.47387  Biso   1.000  O
  O7       1.0000 0.27613  0.64137  0.02613  Biso   1.000  O
  O8       1.0000 0.72387  0.64137  0.47387  Biso   1.000  O
  O9       1.0000 0.20825  0.02291  0.03375  Biso   1.000  O
  O10      1.0000 0.79175  0.02291  0.46625  Biso   1.000  O
  O11      1.0000 0.70825  0.52291  0.03375  Biso   1.000  O
  O12      1.0000 0.29175  0.52291  0.46625  Biso   1.000  O
  O13      1.0000 0.79175  0.97709  0.96625  Biso   1.000  O
  O14      1.0000 0.20825  0.97709  0.53375  Biso   1.000  O
  O15      1.0000 0.29175  0.47709  0.96625  Biso   1.000  O
  O16      1.0000 0.70825  0.47709  0.53375  Biso   1.000  O
  O17      1.0000 0.30485  0.73822  0.23597  Biso   1.000  O
  O18      1.0000 0.69515  0.73822  0.26403  Biso   1.000  O
  O19      1.0000 0.80485  0.23822  0.23597  Biso   1.000  O
  O20      1.0000 0.19515  0.23822  0.26403  Biso   1.000  O
  O21      1.0000 0.69515  0.26178  0.76403  Biso   1.000  O
  O22      1.0000 0.30485  0.26178  0.73597  Biso   1.000  O
  O23      1.0000 0.19515  0.76178  0.76403  Biso   1.000  O
  O24      1.0000 0.80485  0.76178  0.73597  Biso   1.000  O
  O25      1.0000 0.28477  0.89295  0.30332  Biso   1.000  O
  O26      1.0000 0.71523  0.89295  0.19668  Biso   1.000  O
  O27      1.0000 0.78477  0.39295  0.30332  Biso   1.000  O
  O28      1.0000 0.21523  0.39295  0.19668  Biso   1.000  O
  O29      1.0000 0.71523  0.10705  0.69668  Biso   1.000  O
  O30      1.0000 0.28477  0.10705  0.80332  Biso   1.000  O
  O31      1.0000 0.21523  0.60705  0.69668  Biso   1.000  O
  O32      1.0000 0.78477  0.60705  0.80332  Biso   1.000  O
  H97      1.0000 0.14920  0.94500  0.82300  Biso   1.000  H
  H98      1.0000 0.85080  0.94500  0.67700  Biso   1.000  H
  H99      1.0000 0.64920  0.44500  0.82300  Biso   1.000  H
  H100     1.0000 0.35080  0.44500  0.67700  Biso   1.000  H
  H101     1.0000 0.85080  0.05500  0.17700  Biso   1.000  H
  H102     1.0000 0.14920  0.05500  0.32300  Biso   1.000  H
  H103     1.0000 0.35080  0.55500  0.17700  Biso   1.000  H
  H104     1.0000 0.64920  0.55500  0.32300  Biso   1.000  H
  H105     1.0000 0.20000  0.01100  0.83400  Biso   1.000  H
  H106     1.0000 0.80000  0.01100  0.66600  Biso   1.000  H
  H107     1.0000 0.70000  0.51100  0.83400  Biso   1.000  H
  H108     1.0000 0.30000  0.51100  0.66600  Biso   1.000  H
  H109     1.0000 0.80000  0.98900  0.16600  Biso   1.000  H
  H110     1.0000 0.20000  0.98900  0.33400  Biso   1.000  H
  H111     1.0000 0.30000  0.48900  0.16600  Biso   1.000  H
  H112     1.0000 0.70000  0.48900  0.33400  Biso   1.000  H
  O33      1.0000 0.53000  0.56540  0.34940  Biso   1.000  O
  O34      1.0000 0.47000  0.56540  0.15060  Biso   1.000  O
  O35      1.0000 0.03000  0.06540  0.34940  Biso   1.000  O
  O36      1.0000 0.97000  0.06540  0.15060  Biso   1.000  O
  O37      1.0000 0.47000  0.43460  0.65060  Biso   1.000  O
  O38      1.0000 0.53000  0.43460  0.84940  Biso   1.000  O
  O39      1.0000 0.97000  0.93460  0.65060  Biso   1.000  O
  O40      1.0000 0.03000  0.93460  0.84940  Biso   1.000  O
  C145     1.0000 0.17250  0.12680  0.86100  Biso   1.000  C
  C146     1.0000 0.82750  0.12680  0.63900  Biso   1.000  C
  C147     1.0000 0.67250  0.62680  0.86100  Biso   1.000  C
  C148     1.0000 0.32750  0.62680  0.63900  Biso   1.000  C
  C149     1.0000 0.82750  0.87320  0.13900  Biso   1.000  C
  C150     1.0000 0.17250  0.87320  0.36100  Biso   1.000  C
  C151     1.0000 0.32750  0.37320  0.13900  Biso   1.000  C
  C152     1.0000 0.67250  0.37320  0.36100  Biso   1.000  C
  N33      1.0000 0.16490  0.21990  0.85950  Biso   1.000  N
  N34      1.0000 0.83510  0.21990  0.64050  Biso   1.000  N
  N35      1.0000 0.66490  0.71990  0.85950  Biso   1.000  N
  N36      1.0000 0.33510  0.71990  0.64050  Biso   1.000  N
  N37      1.0000 0.83510  0.78010  0.14050  Biso   1.000  N
  N38      1.0000 0.16490  0.78010  0.35950  Biso   1.000  N
  N39      1.0000 0.33510  0.28010  0.14050  Biso   1.000  N
  N40      1.0000 0.66490  0.28010  0.35950  Biso   1.000  N
