data_image0
_cell_length_a       9.8506
_cell_length_b       10.4359
_cell_length_c       6.35439
_cell_angle_alpha    90
_cell_angle_beta     105.948
_cell_angle_gamma    90

_symmetry_space_group_name_H-M    "P 1"
_symmetry_int_tables_number       1

loop_
  _symmetry_equiv_pos_as_xyz
  'x, y, z'

loop_
  _atom_site_label
  _atom_site_occupancy
  _atom_site_fract_x
  _atom_site_fract_y
  _atom_site_fract_z
  _atom_site_thermal_displace_type
  _atom_site_B_iso_or_equiv
  _atom_site_type_symbol
  Cu1      1.0000 0.25815  0.11853  0.96102  Biso   1.000  Cu
  Cu2      1.0000 0.24185  0.61853  0.03898  Biso   1.000  Cu
  Cu3      1.0000 0.74185  0.88147  0.03898  Biso   1.000  Cu
  Cu4      1.0000 0.75815  0.38147  0.96102  Biso   1.000  Cu
  O1       1.0000 0.34450  0.13420  0.69170  Biso   1.000  O
  O2       1.0000 0.15550  0.63420  0.30830  Biso   1.000  O
  O3       1.0000 0.65550  0.86580  0.30830  Biso   1.000  O
  O4       1.0000 0.84450  0.36580  0.69170  Biso   1.000  O
  C1       1.0000 0.17755  0.87976  0.94484  Biso   1.000  C
  C2       1.0000 0.32245  0.37976  0.05516  Biso   1.000  C
  C3       1.0000 0.82245  0.12024  0.05516  Biso   1.000  C
  C4       1.0000 0.67755  0.62024  0.94484  Biso   1.000  C
  C5       1.0000 0.31922  0.88033  0.09167  Biso   1.000  C
  C6       1.0000 0.18078  0.38033  0.90833  Biso   1.000  C
  C7       1.0000 0.68078  0.11967  0.90833  Biso   1.000  C
  C8       1.0000 0.81922  0.61967  0.09167  Biso   1.000  C
  O5       1.0000 0.38065  0.98429  0.15194  Biso   1.000  O
  O6       1.0000 0.11935  0.48429  0.84806  Biso   1.000  O
  O7       1.0000 0.61935  0.01571  0.84806  Biso   1.000  O
  O8       1.0000 0.88065  0.51571  0.15194  Biso   1.000  O
  O9       1.0000 0.37993  0.77687  0.15798  Biso   1.000  O
  O10      1.0000 0.12007  0.27687  0.84202  Biso   1.000  O
  O11      1.0000 0.62007  0.22313  0.84202  Biso   1.000  O
  O12      1.0000 0.87993  0.72313  0.15798  Biso   1.000  O
  N1       1.0000 0.11210  0.99462  0.86453  Biso   1.000  N
  N2       1.0000 0.38790  0.49462  0.13547  Biso   1.000  N
  N3       1.0000 0.88790  0.00538  0.13547  Biso   1.000  N
  N4       1.0000 0.61210  0.50538  0.86453  Biso   1.000  N
  C9       1.0000 0.97629  0.99407  0.72378  Biso   1.000  C
  C10      1.0000 0.52371  0.49407  0.27622  Biso   1.000  C
  C11      1.0000 0.02371  0.00593  0.27622  Biso   1.000  C
  C12      1.0000 0.47629  0.50593  0.72378  Biso   1.000  C
  O13      1.0000 0.91272  0.10562  0.64578  Biso   1.000  O
  O14      1.0000 0.58728  0.60562  0.35422  Biso   1.000  O
  O15      1.0000 0.08728  0.89438  0.35422  Biso   1.000  O
  O16      1.0000 0.41272  0.39438  0.64578  Biso   1.000  O
  N5       1.0000 0.90594  0.87866  0.66334  Biso   1.000  N
  N6       1.0000 0.59406  0.37866  0.33666  Biso   1.000  N
  N7       1.0000 0.09406  0.12134  0.33666  Biso   1.000  N
  N8       1.0000 0.40594  0.62134  0.66334  Biso   1.000  N
  H1       1.0000 0.81312  0.87828  0.56714  Biso   1.000  H
  H2       1.0000 0.68688  0.37828  0.43286  Biso   1.000  H
  H3       1.0000 0.18688  0.12172  0.43286  Biso   1.000  H
  H4       1.0000 0.31312  0.62172  0.56714  Biso   1.000  H
  C13      1.0000 0.97139  0.76380  0.74365  Biso   1.000  C
  C14      1.0000 0.52861  0.26380  0.25635  Biso   1.000  C
  C15      1.0000 0.02861  0.23620  0.25635  Biso   1.000  C
  C16      1.0000 0.47139  0.73620  0.74365  Biso   1.000  C
  O17      1.0000 0.90306  0.65171  0.68495  Biso   1.000  O
  O18      1.0000 0.59694  0.15171  0.31505  Biso   1.000  O
  O19      1.0000 0.09694  0.34829  0.31505  Biso   1.000  O
  O20      1.0000 0.40306  0.84829  0.68495  Biso   1.000  O
  N9       1.0000 0.10720  0.76435  0.88440  Biso   1.000  N
  N10      1.0000 0.39280  0.26435  0.11560  Biso   1.000  N
  N11      1.0000 0.89280  0.23565  0.11560  Biso   1.000  N
  N12      1.0000 0.60720  0.73565  0.88440  Biso   1.000  N
