data_image0
_cell_length_a       21.54
_cell_length_b       11.4662
_cell_length_c       9.3679
_cell_angle_alpha    90
_cell_angle_beta     110.3
_cell_angle_gamma    90

_symmetry_space_group_name_H-M    "P 1"
_symmetry_int_tables_number       1

loop_
  _symmetry_equiv_pos_as_xyz
  'x, y, z'

loop_
  _atom_site_label
  _atom_site_occupancy
  _atom_site_fract_x
  _atom_site_fract_y
  _atom_site_fract_z
  _atom_site_thermal_displace_type
  _atom_site_B_iso_or_equiv
  _atom_site_type_symbol
  Cu1      1.0000 0.84965  0.62394  0.06178  Biso   1.000  Cu
  Cu2      1.0000 0.34965  0.12394  0.06178  Biso   1.000  Cu
  Cu3      1.0000 0.15035  0.62394  0.43822  Biso   1.000  Cu
  Cu4      1.0000 0.65035  0.12394  0.43822  Biso   1.000  Cu
  Cu5      1.0000 0.15035  0.37606  0.93822  Biso   1.000  Cu
  Cu6      1.0000 0.65035  0.87606  0.93822  Biso   1.000  Cu
  Cu7      1.0000 0.84965  0.37606  0.56178  Biso   1.000  Cu
  Cu8      1.0000 0.34965  0.87606  0.56178  Biso   1.000  Cu
  C1       1.0000 0.83023  0.47003  0.26540  Biso   1.000  C
  C2       1.0000 0.33023  0.97003  0.26540  Biso   1.000  C
  C3       1.0000 0.16977  0.47003  0.23460  Biso   1.000  C
  C4       1.0000 0.66977  0.97003  0.23460  Biso   1.000  C
  C5       1.0000 0.16977  0.52997  0.73460  Biso   1.000  C
  C6       1.0000 0.66977  0.02997  0.73460  Biso   1.000  C
  C7       1.0000 0.83023  0.52997  0.76540  Biso   1.000  C
  C8       1.0000 0.33023  0.02997  0.76540  Biso   1.000  C
  C9       1.0000 0.88839  0.53688  0.35097  Biso   1.000  C
  C10      1.0000 0.38839  0.03688  0.35097  Biso   1.000  C
  C11      1.0000 0.11161  0.53688  0.14903  Biso   1.000  C
  C12      1.0000 0.61161  0.03688  0.14903  Biso   1.000  C
  C13      1.0000 0.11161  0.46312  0.64903  Biso   1.000  C
  C14      1.0000 0.61161  0.96312  0.64903  Biso   1.000  C
  C15      1.0000 0.88839  0.46312  0.85097  Biso   1.000  C
  C16      1.0000 0.38839  0.96312  0.85097  Biso   1.000  C
  O1       1.0000 0.91009  0.61362  0.28587  Biso   1.000  O
  O2       1.0000 0.41009  0.11362  0.28587  Biso   1.000  O
  O3       1.0000 0.08991  0.61362  0.21413  Biso   1.000  O
  O4       1.0000 0.58991  0.11362  0.21413  Biso   1.000  O
  O5       1.0000 0.08991  0.38638  0.71413  Biso   1.000  O
  O6       1.0000 0.58991  0.88638  0.71413  Biso   1.000  O
  O7       1.0000 0.91009  0.38638  0.78587  Biso   1.000  O
  O8       1.0000 0.41009  0.88638  0.78587  Biso   1.000  O
  O9       1.0000 0.91681  0.51778  0.48984  Biso   1.000  O
  O10      1.0000 0.41681  0.01778  0.48984  Biso   1.000  O
  O11      1.0000 0.08319  0.51778  0.01016  Biso   1.000  O
  O12      1.0000 0.58319  0.01778  0.01016  Biso   1.000  O
  O13      1.0000 0.08319  0.48222  0.51016  Biso   1.000  O
  O14      1.0000 0.58319  0.98222  0.51016  Biso   1.000  O
  O15      1.0000 0.91681  0.48222  0.98984  Biso   1.000  O
  O16      1.0000 0.41681  0.98222  0.98984  Biso   1.000  O
  N1       1.0000 0.79994  0.48853  0.10995  Biso   1.000  N
  N2       1.0000 0.29994  0.98853  0.10995  Biso   1.000  N
  N3       1.0000 0.20006  0.48853  0.39005  Biso   1.000  N
  N4       1.0000 0.70006  0.98853  0.39005  Biso   1.000  N
  N5       1.0000 0.20006  0.51147  0.89005  Biso   1.000  N
  N6       1.0000 0.70006  0.01147  0.89005  Biso   1.000  N
  N7       1.0000 0.79994  0.51147  0.60995  Biso   1.000  N
  N8       1.0000 0.29994  0.01147  0.60995  Biso   1.000  N
  C17      1.0000 0.74419  0.42444  0.02792  Biso   1.000  C
  C18      1.0000 0.24419  0.92444  0.02792  Biso   1.000  C
  C19      1.0000 0.25581  0.42444  0.47208  Biso   1.000  C
  C20      1.0000 0.75581  0.92444  0.47208  Biso   1.000  C
  C21      1.0000 0.25581  0.57556  0.97208  Biso   1.000  C
  C22      1.0000 0.75581  0.07556  0.97208  Biso   1.000  C
  C23      1.0000 0.74419  0.57556  0.52792  Biso   1.000  C
  C24      1.0000 0.24419  0.07556  0.52792  Biso   1.000  C
  O17      1.0000 0.71477  0.44241  0.87694  Biso   1.000  O
  O18      1.0000 0.21477  0.94241  0.87694  Biso   1.000  O
  O19      1.0000 0.28523  0.44241  0.62306  Biso   1.000  O
  O20      1.0000 0.78523  0.94241  0.62306  Biso   1.000  O
  O21      1.0000 0.28523  0.55759  0.12306  Biso   1.000  O
  O22      1.0000 0.78523  0.05759  0.12306  Biso   1.000  O
  O23      1.0000 0.71477  0.55759  0.37694  Biso   1.000  O
  O24      1.0000 0.21477  0.05759  0.37694  Biso   1.000  O
  N9       1.0000 0.71874  0.34185  0.10134  Biso   1.000  N
  N10      1.0000 0.21874  0.84185  0.10134  Biso   1.000  N
  N11      1.0000 0.28126  0.34185  0.39866  Biso   1.000  N
  N12      1.0000 0.78126  0.84185  0.39866  Biso   1.000  N
  N13      1.0000 0.28126  0.65815  0.89866  Biso   1.000  N
  N14      1.0000 0.78126  0.15815  0.89866  Biso   1.000  N
  N15      1.0000 0.71874  0.65815  0.60134  Biso   1.000  N
  N16      1.0000 0.21874  0.15815  0.60134  Biso   1.000  N
  H1       1.0000 0.68064  0.29805  0.04528  Biso   1.000  H
  H2       1.0000 0.18064  0.79805  0.04528  Biso   1.000  H
  H3       1.0000 0.31936  0.29805  0.45472  Biso   1.000  H
  H4       1.0000 0.81936  0.79805  0.45472  Biso   1.000  H
  H5       1.0000 0.31936  0.70195  0.95472  Biso   1.000  H
  H6       1.0000 0.81936  0.20195  0.95472  Biso   1.000  H
  H7       1.0000 0.68064  0.70195  0.54528  Biso   1.000  H
  H8       1.0000 0.18064  0.20195  0.54528  Biso   1.000  H
  C25      1.0000 0.74903  0.32336  0.25679  Biso   1.000  C
  C26      1.0000 0.24903  0.82336  0.25679  Biso   1.000  C
  C27      1.0000 0.25097  0.32336  0.24321  Biso   1.000  C
  C28      1.0000 0.75097  0.82336  0.24321  Biso   1.000  C
  C29      1.0000 0.25097  0.67664  0.74321  Biso   1.000  C
  C30      1.0000 0.75097  0.17664  0.74321  Biso   1.000  C
  C31      1.0000 0.74903  0.67664  0.75679  Biso   1.000  C
  C32      1.0000 0.24903  0.17664  0.75679  Biso   1.000  C
  O25      1.0000 0.72431  0.24315  0.32810  Biso   1.000  O
  O26      1.0000 0.22431  0.74315  0.32810  Biso   1.000  O
  O27      1.0000 0.27569  0.24315  0.17190  Biso   1.000  O
  O28      1.0000 0.77569  0.74315  0.17190  Biso   1.000  O
  O29      1.0000 0.27569  0.75685  0.67190  Biso   1.000  O
  O30      1.0000 0.77569  0.25685  0.67190  Biso   1.000  O
  O31      1.0000 0.72431  0.75685  0.82810  Biso   1.000  O
  O32      1.0000 0.22431  0.25685  0.82810  Biso   1.000  O
  N17      1.0000 0.80478  0.38744  0.33882  Biso   1.000  N
  N18      1.0000 0.30478  0.88744  0.33882  Biso   1.000  N
  N19      1.0000 0.19522  0.38744  0.16118  Biso   1.000  N
  N20      1.0000 0.69522  0.88744  0.16118  Biso   1.000  N
  N21      1.0000 0.19522  0.61256  0.66118  Biso   1.000  N
  N22      1.0000 0.69522  0.11256  0.66118  Biso   1.000  N
  N23      1.0000 0.80478  0.61256  0.83882  Biso   1.000  N
  N24      1.0000 0.30478  0.11256  0.83882  Biso   1.000  N
  N25      1.0000 0.90336  0.76101  0.03687  Biso   1.000  N
  N26      1.0000 0.40336  0.26101  0.03687  Biso   1.000  N
  N27      1.0000 0.09664  0.76101  0.46313  Biso   1.000  N
  N28      1.0000 0.59664  0.26101  0.46313  Biso   1.000  N
  N29      1.0000 0.09664  0.23899  0.96313  Biso   1.000  N
  N30      1.0000 0.59664  0.73899  0.96313  Biso   1.000  N
  N31      1.0000 0.90336  0.23899  0.53687  Biso   1.000  N
  N32      1.0000 0.40336  0.73899  0.53687  Biso   1.000  N
  C33      1.0000 0.87597  0.87396  0.99716  Biso   1.000  C
  C34      1.0000 0.37597  0.37396  0.99716  Biso   1.000  C
  C35      1.0000 0.12403  0.87396  0.50284  Biso   1.000  C
  C36      1.0000 0.62403  0.37396  0.50284  Biso   1.000  C
  C37      1.0000 0.12403  0.12604  0.00284  Biso   1.000  C
  C38      1.0000 0.62403  0.62604  0.00284  Biso   1.000  C
  C39      1.0000 0.87597  0.12604  0.49716  Biso   1.000  C
  C40      1.0000 0.37597  0.62604  0.49716  Biso   1.000  C
  H9       1.0000 0.82780  0.88484  0.97944  Biso   1.000  H
  H10      1.0000 0.32780  0.38484  0.97944  Biso   1.000  H
  H11      1.0000 0.17220  0.88484  0.52056  Biso   1.000  H
  H12      1.0000 0.67220  0.38484  0.52056  Biso   1.000  H
  H13      1.0000 0.17220  0.11516  0.02056  Biso   1.000  H
  H14      1.0000 0.67220  0.61516  0.02056  Biso   1.000  H
  H15      1.0000 0.82780  0.11516  0.47944  Biso   1.000  H
  H16      1.0000 0.32780  0.61516  0.47944  Biso   1.000  H
  C41      1.0000 0.91402  0.96807  0.98264  Biso   1.000  C
  C42      1.0000 0.41402  0.46807  0.98264  Biso   1.000  C
  C43      1.0000 0.08598  0.96807  0.51736  Biso   1.000  C
  C44      1.0000 0.58598  0.46807  0.51736  Biso   1.000  C
  C45      1.0000 0.08598  0.03193  0.01736  Biso   1.000  C
  C46      1.0000 0.58598  0.53193  0.01736  Biso   1.000  C
  C47      1.0000 0.91402  0.03193  0.48264  Biso   1.000  C
  C48      1.0000 0.41402  0.53193  0.48264  Biso   1.000  C
  H17      1.0000 0.89228  0.04428  0.95484  Biso   1.000  H
  H18      1.0000 0.39228  0.54428  0.95484  Biso   1.000  H
  H19      1.0000 0.10772  0.04428  0.54516  Biso   1.000  H
  H20      1.0000 0.60772  0.54428  0.54516  Biso   1.000  H
  H21      1.0000 0.10772  0.95572  0.04516  Biso   1.000  H
  H22      1.0000 0.60772  0.45572  0.04516  Biso   1.000  H
  H23      1.0000 0.89228  0.95572  0.45484  Biso   1.000  H
  H24      1.0000 0.39228  0.45572  0.45484  Biso   1.000  H
  C49      1.0000 0.97947  0.94922  0.00783  Biso   1.000  C
  C50      1.0000 0.47947  0.44922  0.00783  Biso   1.000  C
  C51      1.0000 0.02053  0.94922  0.49217  Biso   1.000  C
  C52      1.0000 0.52053  0.44922  0.49217  Biso   1.000  C
  C53      1.0000 0.02053  0.05078  0.99217  Biso   1.000  C
  C54      1.0000 0.52053  0.55078  0.99217  Biso   1.000  C
  C55      1.0000 0.97947  0.05078  0.50783  Biso   1.000  C
  C56      1.0000 0.47947  0.55078  0.50783  Biso   1.000  C
  C57      1.0000 0.00987  0.84372  0.04640  Biso   1.000  C
  C58      1.0000 0.50987  0.34372  0.04640  Biso   1.000  C
  C59      1.0000 0.99013  0.84372  0.45360  Biso   1.000  C
  C60      1.0000 0.49013  0.34372  0.45360  Biso   1.000  C
  C61      1.0000 0.99013  0.15628  0.95360  Biso   1.000  C
  C62      1.0000 0.49013  0.65628  0.95360  Biso   1.000  C
  C63      1.0000 0.00987  0.15628  0.54640  Biso   1.000  C
  C64      1.0000 0.50987  0.65628  0.54640  Biso   1.000  C
  H25      1.0000 0.05708  0.83047  0.06448  Biso   1.000  H
  H26      1.0000 0.55708  0.33047  0.06448  Biso   1.000  H
  H27      1.0000 0.94292  0.83047  0.43552  Biso   1.000  H
  H28      1.0000 0.44292  0.33047  0.43552  Biso   1.000  H
  H29      1.0000 0.94292  0.16953  0.93552  Biso   1.000  H
  H30      1.0000 0.44292  0.66953  0.93552  Biso   1.000  H
  H31      1.0000 0.05708  0.16953  0.56448  Biso   1.000  H
  H32      1.0000 0.55708  0.66953  0.56448  Biso   1.000  H
  C65      1.0000 0.97181  0.74961  0.06092  Biso   1.000  C
  C66      1.0000 0.47181  0.24961  0.06092  Biso   1.000  C
  C67      1.0000 0.02819  0.74961  0.43908  Biso   1.000  C
  C68      1.0000 0.52819  0.24961  0.43908  Biso   1.000  C
  C69      1.0000 0.02819  0.25039  0.93908  Biso   1.000  C
  C70      1.0000 0.52819  0.75039  0.93908  Biso   1.000  C
  C71      1.0000 0.97181  0.25039  0.56092  Biso   1.000  C
  C72      1.0000 0.47181  0.75039  0.56092  Biso   1.000  C
  H33      1.0000 0.99260  0.67103  0.08908  Biso   1.000  H
  H34      1.0000 0.49260  0.17103  0.08908  Biso   1.000  H
  H35      1.0000 0.00740  0.67103  0.41092  Biso   1.000  H
  H36      1.0000 0.50740  0.17103  0.41092  Biso   1.000  H
  H37      1.0000 0.00740  0.32897  0.91092  Biso   1.000  H
  H38      1.0000 0.50740  0.82897  0.91092  Biso   1.000  H
  H39      1.0000 0.99260  0.32897  0.58908  Biso   1.000  H
  H40      1.0000 0.49260  0.82897  0.58908  Biso   1.000  H
  O33      1.0000 0.50000  0.85550  0.25000  Biso   1.000  O
  O34      1.0000 0.00000  0.35550  0.25000  Biso   1.000  O
  O35      1.0000 0.50000  0.14450  0.75000  Biso   1.000  O
  O36      1.0000 0.00000  0.64450  0.75000  Biso   1.000  O
  O37      1.0000 0.88692  0.75420  0.65120  Biso   1.000  O
  O38      1.0000 0.38692  0.25420  0.65120  Biso   1.000  O
  O39      1.0000 0.11308  0.75420  0.84880  Biso   1.000  O
  O40      1.0000 0.61308  0.25420  0.84880  Biso   1.000  O
  O41      1.0000 0.11308  0.24580  0.34880  Biso   1.000  O
  O42      1.0000 0.61308  0.74580  0.34880  Biso   1.000  O
  O43      1.0000 0.88692  0.24580  0.15120  Biso   1.000  O
  O44      1.0000 0.38692  0.74580  0.15120  Biso   1.000  O
