data_image0
_cell_length_a       22.8859
_cell_length_b       10.1772
_cell_length_c       10.0984
_cell_angle_alpha    90
_cell_angle_beta     114.426
_cell_angle_gamma    90

_symmetry_space_group_name_H-M    "P 1"
_symmetry_int_tables_number       1

loop_
  _symmetry_equiv_pos_as_xyz
  'x, y, z'

loop_
  _atom_site_label
  _atom_site_occupancy
  _atom_site_fract_x
  _atom_site_fract_y
  _atom_site_fract_z
  _atom_site_thermal_displace_type
  _atom_site_B_iso_or_equiv
  _atom_site_type_symbol
  Cu1      1.0000 0.84568  0.60241  0.03916  Biso   1.000  Cu
  Cu2      1.0000 0.34568  0.10241  0.03916  Biso   1.000  Cu
  Cu3      1.0000 0.15432  0.60241  0.46084  Biso   1.000  Cu
  Cu4      1.0000 0.65432  0.10241  0.46084  Biso   1.000  Cu
  Cu5      1.0000 0.15432  0.39759  0.96084  Biso   1.000  Cu
  Cu6      1.0000 0.65432  0.89759  0.96084  Biso   1.000  Cu
  Cu7      1.0000 0.84568  0.39759  0.53916  Biso   1.000  Cu
  Cu8      1.0000 0.34568  0.89759  0.53916  Biso   1.000  Cu
  C1       1.0000 0.81284  0.46188  0.23711  Biso   1.000  C
  C2       1.0000 0.31284  0.96188  0.23711  Biso   1.000  C
  C3       1.0000 0.18716  0.46188  0.26289  Biso   1.000  C
  C4       1.0000 0.68716  0.96188  0.26289  Biso   1.000  C
  C5       1.0000 0.18716  0.53812  0.76289  Biso   1.000  C
  C6       1.0000 0.68716  0.03812  0.76289  Biso   1.000  C
  C7       1.0000 0.81284  0.53812  0.73711  Biso   1.000  C
  C8       1.0000 0.31284  0.03812  0.73711  Biso   1.000  C
  C9       1.0000 0.87112  0.53705  0.31215  Biso   1.000  C
  C10      1.0000 0.37112  0.03705  0.31215  Biso   1.000  C
  C11      1.0000 0.12888  0.53705  0.18785  Biso   1.000  C
  C12      1.0000 0.62888  0.03705  0.18785  Biso   1.000  C
  C13      1.0000 0.12888  0.46295  0.68785  Biso   1.000  C
  C14      1.0000 0.62888  0.96295  0.68785  Biso   1.000  C
  C15      1.0000 0.87112  0.46295  0.81215  Biso   1.000  C
  C16      1.0000 0.37112  0.96295  0.81215  Biso   1.000  C
  O1       1.0000 0.89987  0.58595  0.24226  Biso   1.000  O
  O2       1.0000 0.39987  0.08595  0.24226  Biso   1.000  O
  O3       1.0000 0.10013  0.58595  0.25774  Biso   1.000  O
  O4       1.0000 0.60013  0.08595  0.25774  Biso   1.000  O
  O5       1.0000 0.10013  0.41405  0.75774  Biso   1.000  O
  O6       1.0000 0.60013  0.91405  0.75774  Biso   1.000  O
  O7       1.0000 0.89987  0.41405  0.74226  Biso   1.000  O
  O8       1.0000 0.39987  0.91405  0.74226  Biso   1.000  O
  O9       1.0000 0.89262  0.55294  0.44675  Biso   1.000  O
  O10      1.0000 0.39262  0.05294  0.44675  Biso   1.000  O
  O11      1.0000 0.10738  0.55294  0.05325  Biso   1.000  O
  O12      1.0000 0.60738  0.05294  0.05325  Biso   1.000  O
  O13      1.0000 0.10738  0.44706  0.55325  Biso   1.000  O
  O14      1.0000 0.60738  0.94706  0.55325  Biso   1.000  O
  O15      1.0000 0.89262  0.44706  0.94675  Biso   1.000  O
  O16      1.0000 0.39262  0.94706  0.94675  Biso   1.000  O
  N1       1.0000 0.78187  0.46573  0.08623  Biso   1.000  N
  N2       1.0000 0.28187  0.96573  0.08623  Biso   1.000  N
  N3       1.0000 0.21813  0.46573  0.41377  Biso   1.000  N
  N4       1.0000 0.71813  0.96573  0.41377  Biso   1.000  N
  N5       1.0000 0.21813  0.53427  0.91377  Biso   1.000  N
  N6       1.0000 0.71813  0.03427  0.91377  Biso   1.000  N
  N7       1.0000 0.78187  0.53427  0.58623  Biso   1.000  N
  N8       1.0000 0.28187  0.03427  0.58623  Biso   1.000  N
  C17      1.0000 0.72600  0.39368  0.01429  Biso   1.000  C
  C18      1.0000 0.22600  0.89368  0.01429  Biso   1.000  C
  C19      1.0000 0.27400  0.39368  0.48571  Biso   1.000  C
  C20      1.0000 0.77400  0.89368  0.48571  Biso   1.000  C
  C21      1.0000 0.27400  0.60632  0.98571  Biso   1.000  C
  C22      1.0000 0.77400  0.10632  0.98571  Biso   1.000  C
  C23      1.0000 0.72600  0.60632  0.51429  Biso   1.000  C
  C24      1.0000 0.22600  0.10632  0.51429  Biso   1.000  C
  O17      1.0000 0.69592  0.39742  0.86776  Biso   1.000  O
  O18      1.0000 0.19592  0.89742  0.86776  Biso   1.000  O
  O19      1.0000 0.30408  0.39742  0.63224  Biso   1.000  O
  O20      1.0000 0.80408  0.89742  0.63224  Biso   1.000  O
  O21      1.0000 0.30408  0.60258  0.13224  Biso   1.000  O
  O22      1.0000 0.80408  0.10258  0.13224  Biso   1.000  O
  O23      1.0000 0.69592  0.60258  0.36776  Biso   1.000  O
  O24      1.0000 0.19592  0.10258  0.36776  Biso   1.000  O
  N9       1.0000 0.70111  0.31777  0.09322  Biso   1.000  N
  N10      1.0000 0.20111  0.81777  0.09322  Biso   1.000  N
  N11      1.0000 0.29889  0.31777  0.40678  Biso   1.000  N
  N12      1.0000 0.79889  0.81777  0.40678  Biso   1.000  N
  N13      1.0000 0.29889  0.68223  0.90678  Biso   1.000  N
  N14      1.0000 0.79889  0.18223  0.90678  Biso   1.000  N
  N15      1.0000 0.70111  0.68223  0.59322  Biso   1.000  N
  N16      1.0000 0.20111  0.18223  0.59322  Biso   1.000  N
  H1       1.0000 0.66293  0.26852  0.04405  Biso   1.000  H
  H2       1.0000 0.16293  0.76852  0.04405  Biso   1.000  H
  H3       1.0000 0.33707  0.26852  0.45595  Biso   1.000  H
  H4       1.0000 0.83707  0.76852  0.45595  Biso   1.000  H
  H5       1.0000 0.33707  0.73148  0.95595  Biso   1.000  H
  H6       1.0000 0.83707  0.23148  0.95595  Biso   1.000  H
  H7       1.0000 0.66293  0.73148  0.54405  Biso   1.000  H
  H8       1.0000 0.16293  0.23148  0.54405  Biso   1.000  H
  C25      1.0000 0.73209  0.31392  0.24409  Biso   1.000  C
  C26      1.0000 0.23209  0.81392  0.24409  Biso   1.000  C
  C27      1.0000 0.26791  0.31392  0.25591  Biso   1.000  C
  C28      1.0000 0.76791  0.81392  0.25591  Biso   1.000  C
  C29      1.0000 0.26791  0.68608  0.75591  Biso   1.000  C
  C30      1.0000 0.76791  0.18608  0.75591  Biso   1.000  C
  C31      1.0000 0.73209  0.68608  0.74409  Biso   1.000  C
  C32      1.0000 0.23209  0.18608  0.74409  Biso   1.000  C
  O25      1.0000 0.70791  0.24019  0.32075  Biso   1.000  O
  O26      1.0000 0.20791  0.74019  0.32075  Biso   1.000  O
  O27      1.0000 0.29209  0.24019  0.17925  Biso   1.000  O
  O28      1.0000 0.79209  0.74019  0.17925  Biso   1.000  O
  O29      1.0000 0.29209  0.75981  0.67925  Biso   1.000  O
  O30      1.0000 0.79209  0.25981  0.67925  Biso   1.000  O
  O31      1.0000 0.70791  0.75981  0.82075  Biso   1.000  O
  O32      1.0000 0.20791  0.25981  0.82075  Biso   1.000  O
  N17      1.0000 0.78795  0.38597  0.31604  Biso   1.000  N
  N18      1.0000 0.28795  0.88597  0.31604  Biso   1.000  N
  N19      1.0000 0.21205  0.38597  0.18396  Biso   1.000  N
  N20      1.0000 0.71205  0.88597  0.18396  Biso   1.000  N
  N21      1.0000 0.21205  0.61403  0.68396  Biso   1.000  N
  N22      1.0000 0.71205  0.11403  0.68396  Biso   1.000  N
  N23      1.0000 0.78795  0.61403  0.81604  Biso   1.000  N
  N24      1.0000 0.28795  0.11403  0.81604  Biso   1.000  N
  N25      1.0000 0.91003  0.72095  0.00863  Biso   1.000  N
  N26      1.0000 0.41003  0.22095  0.00863  Biso   1.000  N
  N27      1.0000 0.08997  0.72095  0.49137  Biso   1.000  N
  N28      1.0000 0.58997  0.22095  0.49137  Biso   1.000  N
  N29      1.0000 0.08997  0.27905  0.99137  Biso   1.000  N
  N30      1.0000 0.58997  0.77905  0.99137  Biso   1.000  N
  N31      1.0000 0.91003  0.27905  0.50863  Biso   1.000  N
  N32      1.0000 0.41003  0.77905  0.50863  Biso   1.000  N
  C33      1.0000 0.88030  0.84219  0.94863  Biso   1.000  C
  C34      1.0000 0.38030  0.34219  0.94863  Biso   1.000  C
  C35      1.0000 0.11970  0.84219  0.55137  Biso   1.000  C
  C36      1.0000 0.61970  0.34219  0.55137  Biso   1.000  C
  C37      1.0000 0.11970  0.15781  0.05137  Biso   1.000  C
  C38      1.0000 0.61970  0.65781  0.05137  Biso   1.000  C
  C39      1.0000 0.88030  0.15781  0.44863  Biso   1.000  C
  C40      1.0000 0.38030  0.65781  0.44863  Biso   1.000  C
  H9       1.0000 0.83242  0.84724  0.90800  Biso   1.000  H
  H10      1.0000 0.33242  0.34724  0.90800  Biso   1.000  H
  H11      1.0000 0.16758  0.84724  0.59200  Biso   1.000  H
  H12      1.0000 0.66758  0.34724  0.59200  Biso   1.000  H
  H13      1.0000 0.16758  0.15276  0.09200  Biso   1.000  H
  H14      1.0000 0.66758  0.65276  0.09200  Biso   1.000  H
  H15      1.0000 0.83242  0.15276  0.40800  Biso   1.000  H
  H16      1.0000 0.33242  0.65276  0.40800  Biso   1.000  H
  C41      1.0000 0.91573  0.95207  0.94523  Biso   1.000  C
  C42      1.0000 0.41573  0.45207  0.94523  Biso   1.000  C
  C43      1.0000 0.08427  0.95207  0.55477  Biso   1.000  C
  C44      1.0000 0.58427  0.45207  0.55477  Biso   1.000  C
  C45      1.0000 0.08427  0.04793  0.05477  Biso   1.000  C
  C46      1.0000 0.58427  0.54793  0.05477  Biso   1.000  C
  C47      1.0000 0.91573  0.04793  0.44523  Biso   1.000  C
  C48      1.0000 0.41573  0.54793  0.44523  Biso   1.000  C
  H17      1.0000 0.89244  0.03340  0.90224  Biso   1.000  H
  H18      1.0000 0.39244  0.53340  0.90224  Biso   1.000  H
  H19      1.0000 0.10756  0.03340  0.59776  Biso   1.000  H
  H20      1.0000 0.60756  0.53340  0.59776  Biso   1.000  H
  H21      1.0000 0.10756  0.96660  0.09776  Biso   1.000  H
  H22      1.0000 0.60756  0.46660  0.09776  Biso   1.000  H
  H23      1.0000 0.89244  0.96660  0.40224  Biso   1.000  H
  H24      1.0000 0.39244  0.46660  0.40224  Biso   1.000  H
  C49      1.0000 0.98088  0.94071  0.00183  Biso   1.000  C
  C50      1.0000 0.48088  0.44071  0.00183  Biso   1.000  C
  C51      1.0000 0.01912  0.94071  0.49817  Biso   1.000  C
  C52      1.0000 0.51912  0.44071  0.49817  Biso   1.000  C
  C53      1.0000 0.01912  0.05929  0.99817  Biso   1.000  C
  C54      1.0000 0.51912  0.55929  0.99817  Biso   1.000  C
  C55      1.0000 0.98088  0.05929  0.50183  Biso   1.000  C
  C56      1.0000 0.48088  0.55929  0.50183  Biso   1.000  C
  C57      1.0000 0.01342  0.82817  0.06157  Biso   1.000  C
  C58      1.0000 0.51342  0.32817  0.06157  Biso   1.000  C
  C59      1.0000 0.98658  0.82817  0.43843  Biso   1.000  C
  C60      1.0000 0.48658  0.32817  0.43843  Biso   1.000  C
  C61      1.0000 0.98658  0.17183  0.93843  Biso   1.000  C
  C62      1.0000 0.48658  0.67183  0.93843  Biso   1.000  C
  C63      1.0000 0.01342  0.17183  0.56157  Biso   1.000  C
  C64      1.0000 0.51342  0.67183  0.56157  Biso   1.000  C
  H25      1.0000 0.06041  0.82035  0.10228  Biso   1.000  H
  H26      1.0000 0.56041  0.32035  0.10228  Biso   1.000  H
  H27      1.0000 0.93959  0.82035  0.39772  Biso   1.000  H
  H28      1.0000 0.43959  0.32035  0.39772  Biso   1.000  H
  H29      1.0000 0.93959  0.17965  0.89772  Biso   1.000  H
  H30      1.0000 0.43959  0.67965  0.89772  Biso   1.000  H
  H31      1.0000 0.06041  0.17965  0.60228  Biso   1.000  H
  H32      1.0000 0.56041  0.67965  0.60228  Biso   1.000  H
  C65      1.0000 0.97799  0.71829  0.06497  Biso   1.000  C
  C66      1.0000 0.47799  0.21829  0.06497  Biso   1.000  C
  C67      1.0000 0.02201  0.71829  0.43503  Biso   1.000  C
  C68      1.0000 0.52201  0.21829  0.43503  Biso   1.000  C
  C69      1.0000 0.02201  0.28171  0.93503  Biso   1.000  C
  C70      1.0000 0.52201  0.78171  0.93503  Biso   1.000  C
  C71      1.0000 0.97799  0.28171  0.56497  Biso   1.000  C
  C72      1.0000 0.47799  0.78171  0.56497  Biso   1.000  C
  H33      1.0000 0.00038  0.63419  0.10804  Biso   1.000  H
  H34      1.0000 0.50038  0.13419  0.10804  Biso   1.000  H
  H35      1.0000 0.99962  0.63419  0.39196  Biso   1.000  H
  H36      1.0000 0.49962  0.13419  0.39196  Biso   1.000  H
  H37      1.0000 0.99962  0.36581  0.89196  Biso   1.000  H
  H38      1.0000 0.49962  0.86581  0.89196  Biso   1.000  H
  H39      1.0000 0.00038  0.36581  0.60804  Biso   1.000  H
  H40      1.0000 0.50038  0.86581  0.60804  Biso   1.000  H
