data_image0
_cell_length_a       19.974
_cell_length_b       9.9577
_cell_length_c       21.0207
_cell_angle_alpha    90
_cell_angle_beta     90
_cell_angle_gamma    90

_symmetry_space_group_name_H-M    "P 1"
_symmetry_int_tables_number       1

loop_
  _symmetry_equiv_pos_as_xyz
  'x, y, z'

loop_
  _atom_site_label
  _atom_site_occupancy
  _atom_site_fract_x
  _atom_site_fract_y
  _atom_site_fract_z
  _atom_site_thermal_displace_type
  _atom_site_B_iso_or_equiv
  _atom_site_type_symbol
  Cu1      1.0000 0.90964  0.61283  0.32976  Biso   1.000  Cu
  Cu2      1.0000 0.59036  0.38717  0.82976  Biso   1.000  Cu
  Cu3      1.0000 0.09036  0.11283  0.17024  Biso   1.000  Cu
  Cu4      1.0000 0.40964  0.88717  0.67024  Biso   1.000  Cu
  Cu5      1.0000 0.09036  0.38717  0.67024  Biso   1.000  Cu
  Cu6      1.0000 0.40964  0.61283  0.17024  Biso   1.000  Cu
  Cu7      1.0000 0.90964  0.88717  0.82976  Biso   1.000  Cu
  Cu8      1.0000 0.59036  0.11283  0.32976  Biso   1.000  Cu
  O1       1.0000 0.83073  0.74860  0.36120  Biso   1.000  O
  O2       1.0000 0.66927  0.25140  0.86120  Biso   1.000  O
  O3       1.0000 0.16927  0.24860  0.13880  Biso   1.000  O
  O4       1.0000 0.33073  0.75140  0.63880  Biso   1.000  O
  O5       1.0000 0.16927  0.25140  0.63880  Biso   1.000  O
  O6       1.0000 0.33073  0.74860  0.13880  Biso   1.000  O
  O7       1.0000 0.83073  0.75140  0.86120  Biso   1.000  O
  O8       1.0000 0.66927  0.24860  0.36120  Biso   1.000  O
  H1       1.0000 0.83853  0.82370  0.37029  Biso   1.000  H
  H2       1.0000 0.66147  0.17630  0.87029  Biso   1.000  H
  H3       1.0000 0.16147  0.32370  0.12971  Biso   1.000  H
  H4       1.0000 0.33853  0.67630  0.62971  Biso   1.000  H
  H5       1.0000 0.16147  0.17630  0.62971  Biso   1.000  H
  H6       1.0000 0.33853  0.82370  0.12971  Biso   1.000  H
  H7       1.0000 0.83853  0.67630  0.87029  Biso   1.000  H
  H8       1.0000 0.66147  0.32370  0.37029  Biso   1.000  H
  H9       1.0000 0.79643  0.72900  0.36989  Biso   1.000  H
  H10      1.0000 0.70357  0.27100  0.86989  Biso   1.000  H
  H11      1.0000 0.20357  0.22900  0.13011  Biso   1.000  H
  H12      1.0000 0.29643  0.77100  0.63011  Biso   1.000  H
  H13      1.0000 0.20357  0.27100  0.63011  Biso   1.000  H
  H14      1.0000 0.29643  0.72900  0.13011  Biso   1.000  H
  H15      1.0000 0.79643  0.77100  0.86989  Biso   1.000  H
  H16      1.0000 0.70357  0.22900  0.36989  Biso   1.000  H
  O9       1.0000 0.86973  0.47320  0.40246  Biso   1.000  O
  O10      1.0000 0.63027  0.52680  0.90246  Biso   1.000  O
  O11      1.0000 0.13027  0.97320  0.09754  Biso   1.000  O
  O12      1.0000 0.36973  0.02680  0.59754  Biso   1.000  O
  O13      1.0000 0.13027  0.52680  0.59754  Biso   1.000  O
  O14      1.0000 0.36973  0.47320  0.09754  Biso   1.000  O
  O15      1.0000 0.86973  0.02680  0.90246  Biso   1.000  O
  O16      1.0000 0.63027  0.97320  0.40246  Biso   1.000  O
  H17      1.0000 0.86560  0.38630  0.38995  Biso   1.000  H
  H18      1.0000 0.63440  0.61370  0.88995  Biso   1.000  H
  H19      1.0000 0.13440  0.88630  0.11005  Biso   1.000  H
  H20      1.0000 0.36560  0.11370  0.61005  Biso   1.000  H
  H21      1.0000 0.13440  0.61370  0.61005  Biso   1.000  H
  H22      1.0000 0.36560  0.38630  0.11005  Biso   1.000  H
  H23      1.0000 0.86560  0.11370  0.88995  Biso   1.000  H
  H24      1.0000 0.63440  0.88630  0.38995  Biso   1.000  H
  H25      1.0000 0.84019  0.48720  0.41855  Biso   1.000  H
  H26      1.0000 0.65981  0.51280  0.91855  Biso   1.000  H
  H27      1.0000 0.15981  0.98720  0.08145  Biso   1.000  H
  H28      1.0000 0.34019  0.01280  0.58145  Biso   1.000  H
  H29      1.0000 0.15981  0.51280  0.58145  Biso   1.000  H
  H30      1.0000 0.34019  0.48720  0.08145  Biso   1.000  H
  H31      1.0000 0.84019  0.01280  0.91855  Biso   1.000  H
  H32      1.0000 0.65981  0.98720  0.41855  Biso   1.000  H
  N1       1.0000 0.85230  0.53080  0.26200  Biso   1.000  N
  N2       1.0000 0.64770  0.46920  0.76200  Biso   1.000  N
  N3       1.0000 0.14770  0.03080  0.23800  Biso   1.000  N
  N4       1.0000 0.35230  0.96920  0.73800  Biso   1.000  N
  N5       1.0000 0.14770  0.46920  0.73800  Biso   1.000  N
  N6       1.0000 0.35230  0.53080  0.23800  Biso   1.000  N
  N7       1.0000 0.85230  0.96920  0.76200  Biso   1.000  N
  N8       1.0000 0.64770  0.03080  0.26200  Biso   1.000  N
  N9       1.0000 0.97310  0.45200  0.29500  Biso   1.000  N
  N10      1.0000 0.52690  0.54800  0.79500  Biso   1.000  N
  N11      1.0000 0.02690  0.95200  0.20500  Biso   1.000  N
  N12      1.0000 0.47310  0.04800  0.70500  Biso   1.000  N
  N13      1.0000 0.02690  0.54800  0.70500  Biso   1.000  N
  N14      1.0000 0.47310  0.45200  0.20500  Biso   1.000  N
  N15      1.0000 0.97310  0.04800  0.79500  Biso   1.000  N
  N16      1.0000 0.52690  0.95200  0.29500  Biso   1.000  N
  N17      1.0000 0.04930  0.27310  0.22690  Biso   1.000  N
  N18      1.0000 0.45070  0.72690  0.72690  Biso   1.000  N
  N19      1.0000 0.95070  0.77310  0.27310  Biso   1.000  N
  N20      1.0000 0.54930  0.22690  0.77310  Biso   1.000  N
  N21      1.0000 0.95070  0.72690  0.77310  Biso   1.000  N
  N22      1.0000 0.54930  0.27310  0.27310  Biso   1.000  N
  N23      1.0000 0.04930  0.22690  0.72690  Biso   1.000  N
  N24      1.0000 0.45070  0.77310  0.22690  Biso   1.000  N
  N25      1.0000 0.02480  0.19460  0.11020  Biso   1.000  N
  N26      1.0000 0.47520  0.80540  0.61020  Biso   1.000  N
  N27      1.0000 0.97520  0.69460  0.38980  Biso   1.000  N
  N28      1.0000 0.52480  0.30540  0.88980  Biso   1.000  N
  N29      1.0000 0.97520  0.80540  0.88980  Biso   1.000  N
  N30      1.0000 0.52480  0.19460  0.38980  Biso   1.000  N
  N31      1.0000 0.02480  0.30540  0.61020  Biso   1.000  N
  N32      1.0000 0.47520  0.69460  0.11020  Biso   1.000  N
  C1       1.0000 0.78630  0.55670  0.25750  Biso   1.000  C
  C2       1.0000 0.71370  0.44330  0.75750  Biso   1.000  C
  C3       1.0000 0.21370  0.05670  0.24250  Biso   1.000  C
  C4       1.0000 0.28630  0.94330  0.74250  Biso   1.000  C
  C5       1.0000 0.21370  0.44330  0.74250  Biso   1.000  C
  C6       1.0000 0.28630  0.55670  0.24250  Biso   1.000  C
  C7       1.0000 0.78630  0.94330  0.75750  Biso   1.000  C
  C8       1.0000 0.71370  0.05670  0.25750  Biso   1.000  C
  H33      1.0000 0.76820  0.62650  0.28140  Biso   1.000  H
  H34      1.0000 0.73180  0.37350  0.78140  Biso   1.000  H
  H35      1.0000 0.23180  0.12650  0.21860  Biso   1.000  H
  H36      1.0000 0.26820  0.87350  0.71860  Biso   1.000  H
  H37      1.0000 0.23180  0.37350  0.71860  Biso   1.000  H
  H38      1.0000 0.26820  0.62650  0.21860  Biso   1.000  H
  H39      1.0000 0.76820  0.87350  0.78140  Biso   1.000  H
  H40      1.0000 0.73180  0.12650  0.28140  Biso   1.000  H
  C9       1.0000 0.74500  0.48410  0.21900  Biso   1.000  C
  C10      1.0000 0.75500  0.51590  0.71900  Biso   1.000  C
  C11      1.0000 0.25500  0.98410  0.28100  Biso   1.000  C
  C12      1.0000 0.24500  0.01590  0.78100  Biso   1.000  C
  C13      1.0000 0.25500  0.51590  0.78100  Biso   1.000  C
  C14      1.0000 0.24500  0.48410  0.28100  Biso   1.000  C
  C15      1.0000 0.74500  0.01590  0.71900  Biso   1.000  C
  C16      1.0000 0.75500  0.98410  0.21900  Biso   1.000  C
  H41      1.0000 0.69990  0.50620  0.21560  Biso   1.000  H
  H42      1.0000 0.80010  0.49380  0.71560  Biso   1.000  H
  H43      1.0000 0.30010  0.00620  0.28440  Biso   1.000  H
  H44      1.0000 0.19990  0.99380  0.78440  Biso   1.000  H
  H45      1.0000 0.30010  0.49380  0.78440  Biso   1.000  H
  H46      1.0000 0.19990  0.50620  0.28440  Biso   1.000  H
  H47      1.0000 0.69990  0.99380  0.71560  Biso   1.000  H
  H48      1.0000 0.80010  0.00620  0.21560  Biso   1.000  H
  C17      1.0000 0.77080  0.37770  0.18530  Biso   1.000  C
  C18      1.0000 0.72920  0.62230  0.68530  Biso   1.000  C
  C19      1.0000 0.22920  0.87770  0.31470  Biso   1.000  C
  C20      1.0000 0.27080  0.12230  0.81470  Biso   1.000  C
  C21      1.0000 0.22920  0.62230  0.81470  Biso   1.000  C
  C22      1.0000 0.27080  0.37770  0.31470  Biso   1.000  C
  C23      1.0000 0.77080  0.12230  0.68530  Biso   1.000  C
  C24      1.0000 0.72920  0.87770  0.18530  Biso   1.000  C
  H49      1.0000 0.74330  0.32530  0.15980  Biso   1.000  H
  H50      1.0000 0.75670  0.67470  0.65980  Biso   1.000  H
  H51      1.0000 0.25670  0.82530  0.34020  Biso   1.000  H
  H52      1.0000 0.24330  0.17470  0.84020  Biso   1.000  H
  H53      1.0000 0.25670  0.67470  0.84020  Biso   1.000  H
  H54      1.0000 0.24330  0.32530  0.34020  Biso   1.000  H
  H55      1.0000 0.74330  0.17470  0.65980  Biso   1.000  H
  H56      1.0000 0.75670  0.82530  0.15980  Biso   1.000  H
  C25      1.0000 0.83770  0.35040  0.19020  Biso   1.000  C
  C26      1.0000 0.66230  0.64960  0.69020  Biso   1.000  C
  C27      1.0000 0.16230  0.85040  0.30980  Biso   1.000  C
  C28      1.0000 0.33770  0.14960  0.80980  Biso   1.000  C
  C29      1.0000 0.16230  0.64960  0.80980  Biso   1.000  C
  C30      1.0000 0.33770  0.35040  0.30980  Biso   1.000  C
  C31      1.0000 0.83770  0.14960  0.69020  Biso   1.000  C
  C32      1.0000 0.66230  0.85040  0.19020  Biso   1.000  C
  H57      1.0000 0.85590  0.27790  0.16830  Biso   1.000  H
  H58      1.0000 0.64410  0.72210  0.66830  Biso   1.000  H
  H59      1.0000 0.14410  0.77790  0.33170  Biso   1.000  H
  H60      1.0000 0.35590  0.22210  0.83170  Biso   1.000  H
  H61      1.0000 0.14410  0.72210  0.83170  Biso   1.000  H
  H62      1.0000 0.35590  0.27790  0.33170  Biso   1.000  H
  H63      1.0000 0.85590  0.22210  0.66830  Biso   1.000  H
  H64      1.0000 0.64410  0.77790  0.16830  Biso   1.000  H
  C33      1.0000 0.87800  0.43030  0.22730  Biso   1.000  C
  C34      1.0000 0.62200  0.56970  0.72730  Biso   1.000  C
  C35      1.0000 0.12200  0.93030  0.27270  Biso   1.000  C
  C36      1.0000 0.37800  0.06970  0.77270  Biso   1.000  C
  C37      1.0000 0.12200  0.56970  0.77270  Biso   1.000  C
  C38      1.0000 0.37800  0.43030  0.27270  Biso   1.000  C
  C39      1.0000 0.87800  0.06970  0.72730  Biso   1.000  C
  C40      1.0000 0.62200  0.93030  0.22730  Biso   1.000  C
  C41      1.0000 0.95040  0.40310  0.23890  Biso   1.000  C
  C42      1.0000 0.54960  0.59690  0.73890  Biso   1.000  C
  C43      1.0000 0.04960  0.90310  0.26110  Biso   1.000  C
  C44      1.0000 0.45040  0.09690  0.76110  Biso   1.000  C
  C45      1.0000 0.04960  0.59690  0.76110  Biso   1.000  C
  C46      1.0000 0.45040  0.40310  0.26110  Biso   1.000  C
  C47      1.0000 0.95040  0.09690  0.73890  Biso   1.000  C
  C48      1.0000 0.54960  0.90310  0.23890  Biso   1.000  C
  C49      1.0000 0.03110  0.41060  0.31690  Biso   1.000  C
  C50      1.0000 0.46890  0.58940  0.81690  Biso   1.000  C
  C51      1.0000 0.96890  0.91060  0.18310  Biso   1.000  C
  C52      1.0000 0.53110  0.08940  0.68310  Biso   1.000  C
  C53      1.0000 0.96890  0.58940  0.68310  Biso   1.000  C
  C54      1.0000 0.53110  0.41060  0.18310  Biso   1.000  C
  C55      1.0000 0.03110  0.08940  0.81690  Biso   1.000  C
  C56      1.0000 0.46890  0.91060  0.31690  Biso   1.000  C
  H65      1.0000 0.04840  0.44820  0.35390  Biso   1.000  H
  H66      1.0000 0.45160  0.55180  0.85390  Biso   1.000  H
  H67      1.0000 0.95160  0.94820  0.14610  Biso   1.000  H
  H68      1.0000 0.54840  0.05180  0.64610  Biso   1.000  H
  H69      1.0000 0.95160  0.55180  0.64610  Biso   1.000  H
  H70      1.0000 0.54840  0.44820  0.14610  Biso   1.000  H
  H71      1.0000 0.04840  0.05180  0.85390  Biso   1.000  H
  H72      1.0000 0.45160  0.94820  0.35390  Biso   1.000  H
  C57      1.0000 0.06670  0.31140  0.28530  Biso   1.000  C
  C58      1.0000 0.43330  0.68860  0.78530  Biso   1.000  C
  C59      1.0000 0.93330  0.81140  0.21470  Biso   1.000  C
  C60      1.0000 0.56670  0.18860  0.71470  Biso   1.000  C
  C61      1.0000 0.93330  0.68860  0.71470  Biso   1.000  C
  C62      1.0000 0.56670  0.31140  0.21470  Biso   1.000  C
  C63      1.0000 0.06670  0.18860  0.78530  Biso   1.000  C
  C64      1.0000 0.43330  0.81140  0.28530  Biso   1.000  C
  H73      1.0000 0.10310  0.27110  0.30520  Biso   1.000  H
  H74      1.0000 0.39690  0.72890  0.80520  Biso   1.000  H
  H75      1.0000 0.89690  0.77110  0.19480  Biso   1.000  H
  H76      1.0000 0.60310  0.22890  0.69480  Biso   1.000  H
  H77      1.0000 0.89690  0.72890  0.69480  Biso   1.000  H
  H78      1.0000 0.60310  0.27110  0.19480  Biso   1.000  H
  H79      1.0000 0.10310  0.22890  0.80520  Biso   1.000  H
  H80      1.0000 0.39690  0.77110  0.30520  Biso   1.000  H
  C65      1.0000 0.99360  0.32560  0.20050  Biso   1.000  C
  C66      1.0000 0.50640  0.67440  0.70050  Biso   1.000  C
  C67      1.0000 0.00640  0.82560  0.29950  Biso   1.000  C
  C68      1.0000 0.49360  0.17440  0.79950  Biso   1.000  C
  C69      1.0000 0.00640  0.67440  0.79950  Biso   1.000  C
  C70      1.0000 0.49360  0.32560  0.29950  Biso   1.000  C
  C71      1.0000 0.99360  0.17440  0.70050  Biso   1.000  C
  C72      1.0000 0.50640  0.82560  0.20050  Biso   1.000  C
  C73      1.0000 0.98740  0.29910  0.13170  Biso   1.000  C
  C74      1.0000 0.51260  0.70090  0.63170  Biso   1.000  C
  C75      1.0000 0.01260  0.79910  0.36830  Biso   1.000  C
  C76      1.0000 0.48740  0.20090  0.86830  Biso   1.000  C
  C77      1.0000 0.01260  0.70090  0.86830  Biso   1.000  C
  C78      1.0000 0.48740  0.29910  0.36830  Biso   1.000  C
  C79      1.0000 0.98740  0.20090  0.63170  Biso   1.000  C
  C80      1.0000 0.51260  0.79910  0.13170  Biso   1.000  C
  C81      1.0000 0.95310  0.38080  0.09040  Biso   1.000  C
  C82      1.0000 0.54690  0.61920  0.59040  Biso   1.000  C
  C83      1.0000 0.04690  0.88080  0.40960  Biso   1.000  C
  C84      1.0000 0.45310  0.11920  0.90960  Biso   1.000  C
  C85      1.0000 0.04690  0.61920  0.90960  Biso   1.000  C
  C86      1.0000 0.45310  0.38080  0.40960  Biso   1.000  C
  C87      1.0000 0.95310  0.11920  0.59040  Biso   1.000  C
  C88      1.0000 0.54690  0.88080  0.09040  Biso   1.000  C
  H81      1.0000 0.92960  0.45470  0.10570  Biso   1.000  H
  H82      1.0000 0.57040  0.54530  0.60570  Biso   1.000  H
  H83      1.0000 0.07040  0.95470  0.39430  Biso   1.000  H
  H84      1.0000 0.42960  0.04530  0.89430  Biso   1.000  H
  H85      1.0000 0.07040  0.54530  0.89430  Biso   1.000  H
  H86      1.0000 0.42960  0.45470  0.39430  Biso   1.000  H
  H87      1.0000 0.92960  0.04530  0.60570  Biso   1.000  H
  H88      1.0000 0.57040  0.95470  0.10570  Biso   1.000  H
  C89      1.0000 0.95340  0.35290  0.02610  Biso   1.000  C
  C90      1.0000 0.54660  0.64710  0.52610  Biso   1.000  C
  C91      1.0000 0.04660  0.85290  0.47390  Biso   1.000  C
  C92      1.0000 0.45340  0.14710  0.97390  Biso   1.000  C
  C93      1.0000 0.04660  0.64710  0.97390  Biso   1.000  C
  C94      1.0000 0.45340  0.35290  0.47390  Biso   1.000  C
  C95      1.0000 0.95340  0.14710  0.52610  Biso   1.000  C
  C96      1.0000 0.54660  0.85290  0.02610  Biso   1.000  C
  H89      1.0000 0.93010  0.40740  0.99790  Biso   1.000  H
  H90      1.0000 0.56990  0.59260  0.49790  Biso   1.000  H
  H91      1.0000 0.06990  0.90740  0.50210  Biso   1.000  H
  H92      1.0000 0.43010  0.09260  0.00210  Biso   1.000  H
  H93      1.0000 0.06990  0.59260  0.00210  Biso   1.000  H
  H94      1.0000 0.43010  0.40740  0.50210  Biso   1.000  H
  H95      1.0000 0.93010  0.09260  0.49790  Biso   1.000  H
  H96      1.0000 0.56990  0.90740  0.99790  Biso   1.000  H
  C97      1.0000 0.98870  0.24340  0.00440  Biso   1.000  C
  C98      1.0000 0.51130  0.75660  0.50440  Biso   1.000  C
  C99      1.0000 0.01130  0.74340  0.49560  Biso   1.000  C
  C100     1.0000 0.48870  0.25660  0.99560  Biso   1.000  C
  C101     1.0000 0.01130  0.75660  0.99560  Biso   1.000  C
  C102     1.0000 0.48870  0.24340  0.49560  Biso   1.000  C
  C103     1.0000 0.98870  0.25660  0.50440  Biso   1.000  C
  C104     1.0000 0.51130  0.74340  0.00440  Biso   1.000  C
  H97      1.0000 0.98830  0.22080  0.96140  Biso   1.000  H
  H98      1.0000 0.51170  0.77920  0.46140  Biso   1.000  H
  H99      1.0000 0.01170  0.72080  0.53860  Biso   1.000  H
  H100     1.0000 0.48830  0.27920  0.03860  Biso   1.000  H
  H101     1.0000 0.01170  0.77920  0.03860  Biso   1.000  H
  H102     1.0000 0.48830  0.22080  0.53860  Biso   1.000  H
  H103     1.0000 0.98830  0.27920  0.46140  Biso   1.000  H
  H104     1.0000 0.51170  0.72080  0.96140  Biso   1.000  H
  C105     1.0000 0.02450  0.16790  0.04760  Biso   1.000  C
  C106     1.0000 0.47550  0.83210  0.54760  Biso   1.000  C
  C107     1.0000 0.97550  0.66790  0.45240  Biso   1.000  C
  C108     1.0000 0.52450  0.33210  0.95240  Biso   1.000  C
  C109     1.0000 0.97550  0.83210  0.95240  Biso   1.000  C
  C110     1.0000 0.52450  0.16790  0.45240  Biso   1.000  C
  C111     1.0000 0.02450  0.33210  0.54760  Biso   1.000  C
  C112     1.0000 0.47550  0.66790  0.04760  Biso   1.000  C
  H105     1.0000 0.04960  0.09570  0.03280  Biso   1.000  H
  H106     1.0000 0.45040  0.90430  0.53280  Biso   1.000  H
  H107     1.0000 0.95040  0.59570  0.46720  Biso   1.000  H
  H108     1.0000 0.54960  0.40430  0.96720  Biso   1.000  H
  H109     1.0000 0.95040  0.90430  0.96720  Biso   1.000  H
  H110     1.0000 0.54960  0.09570  0.46720  Biso   1.000  H
  H111     1.0000 0.04960  0.40430  0.53280  Biso   1.000  H
  H112     1.0000 0.45040  0.59570  0.03280  Biso   1.000  H
  F1       1.0000 0.04030  0.64850  0.14170  Biso   1.000  F
  F2       1.0000 0.45970  0.35150  0.64170  Biso   1.000  F
  F3       1.0000 0.95970  0.14850  0.35830  Biso   1.000  F
  F4       1.0000 0.54030  0.85150  0.85830  Biso   1.000  F
  F5       1.0000 0.95970  0.35150  0.85830  Biso   1.000  F
  F6       1.0000 0.54030  0.64850  0.35830  Biso   1.000  F
  F7       1.0000 0.04030  0.85150  0.64170  Biso   1.000  F
  F8       1.0000 0.45970  0.14850  0.14170  Biso   1.000  F
  F9       1.0000 0.12380  0.50760  0.13250  Biso   1.000  F
  F10      1.0000 0.37620  0.49240  0.63250  Biso   1.000  F
  F11      1.0000 0.87620  0.00760  0.36750  Biso   1.000  F
  F12      1.0000 0.62380  0.99240  0.86750  Biso   1.000  F
  F13      1.0000 0.87620  0.49240  0.86750  Biso   1.000  F
  F14      1.0000 0.62380  0.50760  0.36750  Biso   1.000  F
  F15      1.0000 0.12380  0.99240  0.63250  Biso   1.000  F
  F16      1.0000 0.37620  0.00760  0.13250  Biso   1.000  F
  F17      1.0000 0.14270  0.72260  0.15280  Biso   1.000  F
  F18      1.0000 0.35730  0.27740  0.65280  Biso   1.000  F
  F19      1.0000 0.85730  0.22260  0.34720  Biso   1.000  F
  F20      1.0000 0.64270  0.77740  0.84720  Biso   1.000  F
  F21      1.0000 0.85730  0.27740  0.84720  Biso   1.000  F
  F22      1.0000 0.64270  0.72260  0.34720  Biso   1.000  F
  F23      1.0000 0.14270  0.77740  0.65280  Biso   1.000  F
  F24      1.0000 0.35730  0.22260  0.15280  Biso   1.000  F
  F25      1.0000 0.09600  0.59980  0.22570  Biso   1.000  F
  F26      1.0000 0.40400  0.40020  0.72570  Biso   1.000  F
  F27      1.0000 0.90400  0.09980  0.27430  Biso   1.000  F
  F28      1.0000 0.59600  0.90020  0.77430  Biso   1.000  F
  F29      1.0000 0.90400  0.40020  0.77430  Biso   1.000  F
  F30      1.0000 0.59600  0.59980  0.27430  Biso   1.000  F
  F31      1.0000 0.09600  0.90020  0.72570  Biso   1.000  F
  F32      1.0000 0.40400  0.09980  0.22570  Biso   1.000  F
  B1       1.0000 0.10110  0.61970  0.16270  Biso   1.000  B
  B2       1.0000 0.39890  0.38030  0.66270  Biso   1.000  B
  B3       1.0000 0.89890  0.11970  0.33730  Biso   1.000  B
  B4       1.0000 0.60110  0.88030  0.83730  Biso   1.000  B
  B5       1.0000 0.89890  0.38030  0.83730  Biso   1.000  B
  B6       1.0000 0.60110  0.61970  0.33730  Biso   1.000  B
  B7       1.0000 0.10110  0.88030  0.66270  Biso   1.000  B
  B8       1.0000 0.39890  0.11970  0.16270  Biso   1.000  B
  O17      1.0000 0.24860  0.08980  0.05970  Biso   1.000  O
  O18      1.0000 0.25140  0.91020  0.55970  Biso   1.000  O
  O19      1.0000 0.75140  0.58980  0.44030  Biso   1.000  O
  O20      1.0000 0.74860  0.41020  0.94030  Biso   1.000  O
  O21      1.0000 0.75140  0.91020  0.94030  Biso   1.000  O
  O22      1.0000 0.74860  0.08980  0.44030  Biso   1.000  O
  O23      1.0000 0.24860  0.41020  0.55970  Biso   1.000  O
  O24      1.0000 0.25140  0.58980  0.05970  Biso   1.000  O
  H113     1.0000 0.25280  0.10120  0.02030  Biso   1.000  H
  H114     1.0000 0.24720  0.89880  0.52030  Biso   1.000  H
  H115     1.0000 0.74720  0.60120  0.47970  Biso   1.000  H
  H116     1.0000 0.75280  0.39880  0.97970  Biso   1.000  H
  H117     1.0000 0.74720  0.89880  0.97970  Biso   1.000  H
  H118     1.0000 0.75280  0.10120  0.47970  Biso   1.000  H
  H119     1.0000 0.25280  0.39880  0.52030  Biso   1.000  H
  H120     1.0000 0.24720  0.60120  0.02030  Biso   1.000  H
  H121     1.0000 0.27680  0.02390  0.07280  Biso   1.000  H
  H122     1.0000 0.22320  0.97610  0.57280  Biso   1.000  H
  H123     1.0000 0.72320  0.52390  0.42720  Biso   1.000  H
  H124     1.0000 0.77680  0.47610  0.92720  Biso   1.000  H
  H125     1.0000 0.72320  0.97610  0.92720  Biso   1.000  H
  H126     1.0000 0.77680  0.02390  0.42720  Biso   1.000  H
  H127     1.0000 0.27680  0.47610  0.57280  Biso   1.000  H
  H128     1.0000 0.22320  0.52390  0.07280  Biso   1.000  H
  O25      1.0000 0.86530  0.04790  0.08300  Biso   1.000  O
  O26      1.0000 0.63470  0.95210  0.58300  Biso   1.000  O
  O27      1.0000 0.13470  0.54790  0.41700  Biso   1.000  O
  O28      1.0000 0.36530  0.45210  0.91700  Biso   1.000  O
  O29      1.0000 0.13470  0.95210  0.91700  Biso   1.000  O
  O30      1.0000 0.36530  0.04790  0.41700  Biso   1.000  O
  O31      1.0000 0.86530  0.45210  0.58300  Biso   1.000  O
  O32      1.0000 0.63470  0.54790  0.08300  Biso   1.000  O
  B9       1.0000 0.17560  0.31590  0.94530  Biso   1.000  B
  B10      1.0000 0.32440  0.68410  0.44530  Biso   1.000  B
  B11      1.0000 0.82440  0.81590  0.55470  Biso   1.000  B
  B12      1.0000 0.67560  0.18410  0.05470  Biso   1.000  B
  B13      1.0000 0.82440  0.68410  0.05470  Biso   1.000  B
  B14      1.0000 0.67560  0.31590  0.55470  Biso   1.000  B
  B15      1.0000 0.17560  0.18410  0.44530  Biso   1.000  B
  B16      1.0000 0.32440  0.81590  0.94530  Biso   1.000  B
  F33      1.0000 0.15500  0.18990  0.95270  Biso   1.000  F
  F34      1.0000 0.34500  0.81010  0.45270  Biso   1.000  F
  F35      1.0000 0.84500  0.68990  0.54730  Biso   1.000  F
  F36      1.0000 0.65500  0.31010  0.04730  Biso   1.000  F
  F37      1.0000 0.84500  0.81010  0.04730  Biso   1.000  F
  F38      1.0000 0.65500  0.18990  0.54730  Biso   1.000  F
  F39      1.0000 0.15500  0.31010  0.45270  Biso   1.000  F
  F40      1.0000 0.34500  0.68990  0.95270  Biso   1.000  F
  F41      1.0000 0.24270  0.31950  0.94490  Biso   1.000  F
  F42      1.0000 0.25730  0.68050  0.44490  Biso   1.000  F
  F43      1.0000 0.75730  0.81950  0.55510  Biso   1.000  F
  F44      1.0000 0.74270  0.18050  0.05510  Biso   1.000  F
  F45      1.0000 0.75730  0.68050  0.05510  Biso   1.000  F
  F46      1.0000 0.74270  0.31950  0.55510  Biso   1.000  F
  F47      1.0000 0.24270  0.18050  0.44490  Biso   1.000  F
  F48      1.0000 0.25730  0.81950  0.94490  Biso   1.000  F
  F49      1.0000 0.15230  0.36410  0.89050  Biso   1.000  F
  F50      1.0000 0.34770  0.63590  0.39050  Biso   1.000  F
  F51      1.0000 0.84770  0.86410  0.60950  Biso   1.000  F
  F52      1.0000 0.65230  0.13590  0.10950  Biso   1.000  F
  F53      1.0000 0.84770  0.63590  0.10950  Biso   1.000  F
  F54      1.0000 0.65230  0.36410  0.60950  Biso   1.000  F
  F55      1.0000 0.15230  0.13590  0.39050  Biso   1.000  F
  F56      1.0000 0.34770  0.86410  0.89050  Biso   1.000  F
  F57      1.0000 0.15260  0.39030  0.99320  Biso   1.000  F
  F58      1.0000 0.34740  0.60970  0.49320  Biso   1.000  F
  F59      1.0000 0.84740  0.89030  0.50680  Biso   1.000  F
  F60      1.0000 0.65260  0.10970  0.00680  Biso   1.000  F
  F61      1.0000 0.84740  0.60970  0.00680  Biso   1.000  F
  F62      1.0000 0.65260  0.39030  0.50680  Biso   1.000  F
  F63      1.0000 0.15260  0.10970  0.49320  Biso   1.000  F
  F64      1.0000 0.34740  0.89030  0.99320  Biso   1.000  F
  O33      1.0000 0.85650  0.00930  0.06750  Biso   1.000  O
  O34      1.0000 0.64350  0.99070  0.56750  Biso   1.000  O
  O35      1.0000 0.14350  0.50930  0.43250  Biso   1.000  O
  O36      1.0000 0.35650  0.49070  0.93250  Biso   1.000  O
  O37      1.0000 0.14350  0.99070  0.93250  Biso   1.000  O
  O38      1.0000 0.35650  0.00930  0.43250  Biso   1.000  O
  O39      1.0000 0.85650  0.49070  0.56750  Biso   1.000  O
  O40      1.0000 0.64350  0.50930  0.06750  Biso   1.000  O
  B17      1.0000 0.18620  0.34490  0.94860  Biso   1.000  B
  B18      1.0000 0.31380  0.65510  0.44860  Biso   1.000  B
  B19      1.0000 0.81380  0.84490  0.55140  Biso   1.000  B
  B20      1.0000 0.68620  0.15510  0.05140  Biso   1.000  B
  B21      1.0000 0.81380  0.65510  0.05140  Biso   1.000  B
  B22      1.0000 0.68620  0.34490  0.55140  Biso   1.000  B
  B23      1.0000 0.18620  0.15510  0.44860  Biso   1.000  B
  B24      1.0000 0.31380  0.84490  0.94860  Biso   1.000  B
  F65      1.0000 0.19340  0.47640  0.95040  Biso   1.000  F
  F66      1.0000 0.30660  0.52360  0.45040  Biso   1.000  F
  F67      1.0000 0.80660  0.97640  0.54960  Biso   1.000  F
  F68      1.0000 0.69340  0.02360  0.04960  Biso   1.000  F
  F69      1.0000 0.80660  0.52360  0.04960  Biso   1.000  F
  F70      1.0000 0.69340  0.47640  0.54960  Biso   1.000  F
  F71      1.0000 0.19340  0.02360  0.45040  Biso   1.000  F
  F72      1.0000 0.30660  0.97640  0.95040  Biso   1.000  F
  F73      1.0000 0.24610  0.28770  0.94580  Biso   1.000  F
  F74      1.0000 0.25390  0.71230  0.44580  Biso   1.000  F
  F75      1.0000 0.75390  0.78770  0.55420  Biso   1.000  F
  F76      1.0000 0.74610  0.21230  0.05420  Biso   1.000  F
  F77      1.0000 0.75390  0.71230  0.05420  Biso   1.000  F
  F78      1.0000 0.74610  0.28770  0.55420  Biso   1.000  F
  F79      1.0000 0.24610  0.21230  0.44580  Biso   1.000  F
  F80      1.0000 0.25390  0.78770  0.94580  Biso   1.000  F
  F81      1.0000 0.15080  0.31150  0.89790  Biso   1.000  F
  F82      1.0000 0.34920  0.68850  0.39790  Biso   1.000  F
  F83      1.0000 0.84920  0.81150  0.60210  Biso   1.000  F
  F84      1.0000 0.65080  0.18850  0.10210  Biso   1.000  F
  F85      1.0000 0.84920  0.68850  0.10210  Biso   1.000  F
  F86      1.0000 0.65080  0.31150  0.60210  Biso   1.000  F
  F87      1.0000 0.15080  0.18850  0.39790  Biso   1.000  F
  F88      1.0000 0.34920  0.81150  0.89790  Biso   1.000  F
  F89      1.0000 0.15460  0.30420  0.00030  Biso   1.000  F
  F90      1.0000 0.34540  0.69580  0.50030  Biso   1.000  F
  F91      1.0000 0.84540  0.80420  0.49970  Biso   1.000  F
  F92      1.0000 0.65460  0.19580  0.99970  Biso   1.000  F
  F93      1.0000 0.84540  0.69580  0.99970  Biso   1.000  F
  F94      1.0000 0.65460  0.30420  0.49970  Biso   1.000  F
  F95      1.0000 0.15460  0.19580  0.50030  Biso   1.000  F
  F96      1.0000 0.34540  0.80420  0.00030  Biso   1.000  F
