data_image0
_cell_length_a       19.5839
_cell_length_b       9.87
_cell_length_c       20.9299
_cell_angle_alpha    90
_cell_angle_beta     90
_cell_angle_gamma    90

_symmetry_space_group_name_H-M    "P 1"
_symmetry_int_tables_number       1

loop_
  _symmetry_equiv_pos_as_xyz
  'x, y, z'

loop_
  _atom_site_label
  _atom_site_occupancy
  _atom_site_fract_x
  _atom_site_fract_y
  _atom_site_fract_z
  _atom_site_thermal_displace_type
  _atom_site_B_iso_or_equiv
  _atom_site_type_symbol
  Cu1      1.0000 0.90642  0.60329  0.33048  Biso   1.000  Cu
  Cu2      1.0000 0.59358  0.39671  0.83048  Biso   1.000  Cu
  Cu3      1.0000 0.09358  0.10329  0.16952  Biso   1.000  Cu
  Cu4      1.0000 0.40642  0.89671  0.66952  Biso   1.000  Cu
  Cu5      1.0000 0.09358  0.39671  0.66952  Biso   1.000  Cu
  Cu6      1.0000 0.40642  0.60329  0.16952  Biso   1.000  Cu
  Cu7      1.0000 0.90642  0.89671  0.83048  Biso   1.000  Cu
  Cu8      1.0000 0.59358  0.10329  0.33048  Biso   1.000  Cu
  O1       1.0000 0.82737  0.73680  0.36009  Biso   1.000  O
  O2       1.0000 0.67263  0.26320  0.86009  Biso   1.000  O
  O3       1.0000 0.17263  0.23680  0.13991  Biso   1.000  O
  O4       1.0000 0.32737  0.76320  0.63991  Biso   1.000  O
  O5       1.0000 0.17263  0.26320  0.63991  Biso   1.000  O
  O6       1.0000 0.32737  0.73680  0.13991  Biso   1.000  O
  O7       1.0000 0.82737  0.76320  0.86009  Biso   1.000  O
  O8       1.0000 0.67263  0.23680  0.36009  Biso   1.000  O
  H1       1.0000 0.83908  0.81400  0.36745  Biso   1.000  H
  H2       1.0000 0.66092  0.18600  0.86745  Biso   1.000  H
  H3       1.0000 0.16092  0.31400  0.13255  Biso   1.000  H
  H4       1.0000 0.33908  0.68600  0.63255  Biso   1.000  H
  H5       1.0000 0.16092  0.18600  0.63255  Biso   1.000  H
  H6       1.0000 0.33908  0.81400  0.13255  Biso   1.000  H
  H7       1.0000 0.83908  0.68600  0.86745  Biso   1.000  H
  H8       1.0000 0.66092  0.31400  0.36745  Biso   1.000  H
  H9       1.0000 0.80268  0.71220  0.38675  Biso   1.000  H
  H10      1.0000 0.69732  0.28780  0.88675  Biso   1.000  H
  H11      1.0000 0.19732  0.21220  0.11325  Biso   1.000  H
  H12      1.0000 0.30268  0.78780  0.61325  Biso   1.000  H
  H13      1.0000 0.19732  0.28780  0.61325  Biso   1.000  H
  H14      1.0000 0.30268  0.71220  0.11325  Biso   1.000  H
  H15      1.0000 0.80268  0.78780  0.88675  Biso   1.000  H
  H16      1.0000 0.69732  0.21220  0.38675  Biso   1.000  H
  O9       1.0000 0.86735  0.46110  0.40530  Biso   1.000  O
  O10      1.0000 0.63265  0.53890  0.90530  Biso   1.000  O
  O11      1.0000 0.13265  0.96110  0.09470  Biso   1.000  O
  O12      1.0000 0.36735  0.03890  0.59470  Biso   1.000  O
  O13      1.0000 0.13265  0.53890  0.59470  Biso   1.000  O
  O14      1.0000 0.36735  0.46110  0.09470  Biso   1.000  O
  O15      1.0000 0.86735  0.03890  0.90530  Biso   1.000  O
  O16      1.0000 0.63265  0.96110  0.40530  Biso   1.000  O
  H17      1.0000 0.86053  0.39090  0.38817  Biso   1.000  H
  H18      1.0000 0.63947  0.60910  0.88817  Biso   1.000  H
  H19      1.0000 0.13947  0.89090  0.11183  Biso   1.000  H
  H20      1.0000 0.36053  0.10910  0.61183  Biso   1.000  H
  H21      1.0000 0.13947  0.60910  0.61183  Biso   1.000  H
  H22      1.0000 0.36053  0.39090  0.11183  Biso   1.000  H
  H23      1.0000 0.86053  0.10910  0.88817  Biso   1.000  H
  H24      1.0000 0.63947  0.89090  0.38817  Biso   1.000  H
  H25      1.0000 0.82941  0.49400  0.41801  Biso   1.000  H
  H26      1.0000 0.67059  0.50600  0.91801  Biso   1.000  H
  H27      1.0000 0.17059  0.99400  0.08199  Biso   1.000  H
  H28      1.0000 0.32941  0.00600  0.58199  Biso   1.000  H
  H29      1.0000 0.17059  0.50600  0.58199  Biso   1.000  H
  H30      1.0000 0.32941  0.49400  0.08199  Biso   1.000  H
  H31      1.0000 0.82941  0.00600  0.91801  Biso   1.000  H
  H32      1.0000 0.67059  0.99400  0.41801  Biso   1.000  H
  N1       1.0000 0.84739  0.52060  0.26298  Biso   1.000  N
  N2       1.0000 0.65261  0.47940  0.76298  Biso   1.000  N
  N3       1.0000 0.15261  0.02060  0.23702  Biso   1.000  N
  N4       1.0000 0.34739  0.97940  0.73702  Biso   1.000  N
  N5       1.0000 0.15261  0.47940  0.73702  Biso   1.000  N
  N6       1.0000 0.34739  0.52060  0.23702  Biso   1.000  N
  N7       1.0000 0.84739  0.97940  0.76298  Biso   1.000  N
  N8       1.0000 0.65261  0.02060  0.26298  Biso   1.000  N
  N9       1.0000 0.97104  0.44380  0.29683  Biso   1.000  N
  N10      1.0000 0.52896  0.55620  0.79683  Biso   1.000  N
  N11      1.0000 0.02896  0.94380  0.20317  Biso   1.000  N
  N12      1.0000 0.47104  0.05620  0.70317  Biso   1.000  N
  N13      1.0000 0.02896  0.55620  0.70317  Biso   1.000  N
  N14      1.0000 0.47104  0.44380  0.20317  Biso   1.000  N
  N15      1.0000 0.97104  0.05620  0.79683  Biso   1.000  N
  N16      1.0000 0.52896  0.94380  0.29683  Biso   1.000  N
  N17      1.0000 0.05055  0.26620  0.22966  Biso   1.000  N
  N18      1.0000 0.44945  0.73380  0.72966  Biso   1.000  N
  N19      1.0000 0.94945  0.76620  0.27034  Biso   1.000  N
  N20      1.0000 0.55055  0.23380  0.77034  Biso   1.000  N
  N21      1.0000 0.94945  0.73380  0.77034  Biso   1.000  N
  N22      1.0000 0.55055  0.26620  0.27034  Biso   1.000  N
  N23      1.0000 0.05055  0.23380  0.72966  Biso   1.000  N
  N24      1.0000 0.44945  0.76620  0.22966  Biso   1.000  N
  N25      1.0000 0.02585  0.18830  0.11009  Biso   1.000  N
  N26      1.0000 0.47415  0.81170  0.61009  Biso   1.000  N
  N27      1.0000 0.97415  0.68830  0.38991  Biso   1.000  N
  N28      1.0000 0.52585  0.31170  0.88991  Biso   1.000  N
  N29      1.0000 0.97415  0.81170  0.88991  Biso   1.000  N
  N30      1.0000 0.52585  0.18830  0.38991  Biso   1.000  N
  N31      1.0000 0.02585  0.31170  0.61009  Biso   1.000  N
  N32      1.0000 0.47415  0.68830  0.11009  Biso   1.000  N
  C1       1.0000 0.78019  0.54510  0.25775  Biso   1.000  C
  C2       1.0000 0.71981  0.45490  0.75775  Biso   1.000  C
  C3       1.0000 0.21981  0.04510  0.24225  Biso   1.000  C
  C4       1.0000 0.28019  0.95490  0.74225  Biso   1.000  C
  C5       1.0000 0.21981  0.45490  0.74225  Biso   1.000  C
  C6       1.0000 0.28019  0.54510  0.24225  Biso   1.000  C
  C7       1.0000 0.78019  0.95490  0.75775  Biso   1.000  C
  C8       1.0000 0.71981  0.04510  0.25775  Biso   1.000  C
  H33      1.0000 0.76097  0.61770  0.28155  Biso   1.000  H
  H34      1.0000 0.73903  0.38230  0.78155  Biso   1.000  H
  H35      1.0000 0.23903  0.11770  0.21845  Biso   1.000  H
  H36      1.0000 0.26097  0.88230  0.71845  Biso   1.000  H
  H37      1.0000 0.23903  0.38230  0.71845  Biso   1.000  H
  H38      1.0000 0.26097  0.61770  0.21845  Biso   1.000  H
  H39      1.0000 0.76097  0.88230  0.78155  Biso   1.000  H
  H40      1.0000 0.73903  0.11770  0.28155  Biso   1.000  H
  C9       1.0000 0.73792  0.46820  0.21915  Biso   1.000  C
  C10      1.0000 0.76208  0.53180  0.71915  Biso   1.000  C
  C11      1.0000 0.26208  0.96820  0.28085  Biso   1.000  C
  C12      1.0000 0.23792  0.03180  0.78085  Biso   1.000  C
  C13      1.0000 0.26208  0.53180  0.78085  Biso   1.000  C
  C14      1.0000 0.23792  0.46820  0.28085  Biso   1.000  C
  C15      1.0000 0.73792  0.03180  0.71915  Biso   1.000  C
  C16      1.0000 0.76208  0.96820  0.21915  Biso   1.000  C
  H41      1.0000 0.69066  0.48870  0.21586  Biso   1.000  H
  H42      1.0000 0.80934  0.51130  0.71586  Biso   1.000  H
  H43      1.0000 0.30934  0.98870  0.28414  Biso   1.000  H
  H44      1.0000 0.19066  0.01130  0.78414  Biso   1.000  H
  H45      1.0000 0.30934  0.51130  0.78414  Biso   1.000  H
  H46      1.0000 0.19066  0.48870  0.28414  Biso   1.000  H
  H47      1.0000 0.69066  0.01130  0.71586  Biso   1.000  H
  H48      1.0000 0.80934  0.98870  0.21586  Biso   1.000  H
  C17      1.0000 0.76565  0.36100  0.18556  Biso   1.000  C
  C18      1.0000 0.73435  0.63900  0.68556  Biso   1.000  C
  C19      1.0000 0.23435  0.86100  0.31444  Biso   1.000  C
  C20      1.0000 0.26565  0.13900  0.81444  Biso   1.000  C
  C21      1.0000 0.23435  0.63900  0.81444  Biso   1.000  C
  C22      1.0000 0.26565  0.36100  0.31444  Biso   1.000  C
  C23      1.0000 0.76565  0.13900  0.68556  Biso   1.000  C
  C24      1.0000 0.73435  0.86100  0.18556  Biso   1.000  C
  H49      1.0000 0.73753  0.30580  0.15928  Biso   1.000  H
  H50      1.0000 0.76247  0.69420  0.65928  Biso   1.000  H
  H51      1.0000 0.26247  0.80580  0.34072  Biso   1.000  H
  H52      1.0000 0.23753  0.19420  0.84072  Biso   1.000  H
  H53      1.0000 0.26247  0.69420  0.84072  Biso   1.000  H
  H54      1.0000 0.23753  0.30580  0.34072  Biso   1.000  H
  H55      1.0000 0.73753  0.19420  0.65928  Biso   1.000  H
  H56      1.0000 0.76247  0.80580  0.15928  Biso   1.000  H
  C25      1.0000 0.83528  0.33480  0.19040  Biso   1.000  C
  C26      1.0000 0.66472  0.66520  0.69040  Biso   1.000  C
  C27      1.0000 0.16472  0.83480  0.30960  Biso   1.000  C
  C28      1.0000 0.33528  0.16520  0.80960  Biso   1.000  C
  C29      1.0000 0.16472  0.66520  0.80960  Biso   1.000  C
  C30      1.0000 0.33528  0.33480  0.30960  Biso   1.000  C
  C31      1.0000 0.83528  0.16520  0.69040  Biso   1.000  C
  C32      1.0000 0.66472  0.83480  0.19040  Biso   1.000  C
  H57      1.0000 0.85523  0.26090  0.16809  Biso   1.000  H
  H58      1.0000 0.64477  0.73910  0.66809  Biso   1.000  H
  H59      1.0000 0.14477  0.76090  0.33191  Biso   1.000  H
  H60      1.0000 0.35523  0.23910  0.83191  Biso   1.000  H
  H61      1.0000 0.14477  0.73910  0.83191  Biso   1.000  H
  H62      1.0000 0.35523  0.26090  0.33191  Biso   1.000  H
  H63      1.0000 0.85523  0.23910  0.66809  Biso   1.000  H
  H64      1.0000 0.64477  0.76090  0.16809  Biso   1.000  H
  C33      1.0000 0.87504  0.41860  0.22836  Biso   1.000  C
  C34      1.0000 0.62496  0.58140  0.72836  Biso   1.000  C
  C35      1.0000 0.12496  0.91860  0.27164  Biso   1.000  C
  C36      1.0000 0.37504  0.08140  0.77164  Biso   1.000  C
  C37      1.0000 0.12496  0.58140  0.77164  Biso   1.000  C
  C38      1.0000 0.37504  0.41860  0.27164  Biso   1.000  C
  C39      1.0000 0.87504  0.08140  0.72836  Biso   1.000  C
  C40      1.0000 0.62496  0.91860  0.22836  Biso   1.000  C
  C41      1.0000 0.94876  0.39420  0.24047  Biso   1.000  C
  C42      1.0000 0.55124  0.60580  0.74047  Biso   1.000  C
  C43      1.0000 0.05124  0.89420  0.25953  Biso   1.000  C
  C44      1.0000 0.44876  0.10580  0.75953  Biso   1.000  C
  C45      1.0000 0.05124  0.60580  0.75953  Biso   1.000  C
  C46      1.0000 0.44876  0.39420  0.25953  Biso   1.000  C
  C47      1.0000 0.94876  0.10580  0.74047  Biso   1.000  C
  C48      1.0000 0.55124  0.89420  0.24047  Biso   1.000  C
  C49      1.0000 0.03063  0.40250  0.32006  Biso   1.000  C
  C50      1.0000 0.46937  0.59750  0.82006  Biso   1.000  C
  C51      1.0000 0.96937  0.90250  0.17994  Biso   1.000  C
  C52      1.0000 0.53063  0.09750  0.67994  Biso   1.000  C
  C53      1.0000 0.96937  0.59750  0.67994  Biso   1.000  C
  C54      1.0000 0.53063  0.40250  0.17994  Biso   1.000  C
  C55      1.0000 0.03063  0.09750  0.82006  Biso   1.000  C
  C56      1.0000 0.46937  0.90250  0.32006  Biso   1.000  C
  H65      1.0000 0.04810  0.44120  0.35825  Biso   1.000  H
  H66      1.0000 0.45190  0.55880  0.85825  Biso   1.000  H
  H67      1.0000 0.95190  0.94120  0.14175  Biso   1.000  H
  H68      1.0000 0.54810  0.05880  0.64175  Biso   1.000  H
  H69      1.0000 0.95190  0.55880  0.64175  Biso   1.000  H
  H70      1.0000 0.54810  0.44120  0.14175  Biso   1.000  H
  H71      1.0000 0.04810  0.05880  0.85825  Biso   1.000  H
  H72      1.0000 0.45190  0.94120  0.35825  Biso   1.000  H
  C57      1.0000 0.06750  0.30250  0.28854  Biso   1.000  C
  C58      1.0000 0.43250  0.69750  0.78854  Biso   1.000  C
  C59      1.0000 0.93250  0.80250  0.21146  Biso   1.000  C
  C60      1.0000 0.56750  0.19750  0.71146  Biso   1.000  C
  C61      1.0000 0.93250  0.69750  0.71146  Biso   1.000  C
  C62      1.0000 0.56750  0.30250  0.21146  Biso   1.000  C
  C63      1.0000 0.06750  0.19750  0.78854  Biso   1.000  C
  C64      1.0000 0.43250  0.80250  0.28854  Biso   1.000  C
  H73      1.0000 0.10508  0.26030  0.30919  Biso   1.000  H
  H74      1.0000 0.39492  0.73970  0.80919  Biso   1.000  H
  H75      1.0000 0.89492  0.76030  0.19081  Biso   1.000  H
  H76      1.0000 0.60508  0.23970  0.69081  Biso   1.000  H
  H77      1.0000 0.89492  0.73970  0.69081  Biso   1.000  H
  H78      1.0000 0.60508  0.26030  0.19081  Biso   1.000  H
  H79      1.0000 0.10508  0.23970  0.80919  Biso   1.000  H
  H80      1.0000 0.39492  0.76030  0.30919  Biso   1.000  H
  C65      1.0000 0.99398  0.31820  0.20229  Biso   1.000  C
  C66      1.0000 0.50602  0.68180  0.70229  Biso   1.000  C
  C67      1.0000 0.00602  0.81820  0.29771  Biso   1.000  C
  C68      1.0000 0.49398  0.18180  0.79771  Biso   1.000  C
  C69      1.0000 0.00602  0.68180  0.79771  Biso   1.000  C
  C70      1.0000 0.49398  0.31820  0.29771  Biso   1.000  C
  C71      1.0000 0.99398  0.18180  0.70229  Biso   1.000  C
  C72      1.0000 0.50602  0.81820  0.20229  Biso   1.000  C
  C73      1.0000 0.98831  0.29340  0.13258  Biso   1.000  C
  C74      1.0000 0.51169  0.70660  0.63258  Biso   1.000  C
  C75      1.0000 0.01169  0.79340  0.36742  Biso   1.000  C
  C76      1.0000 0.48831  0.20660  0.86742  Biso   1.000  C
  C77      1.0000 0.01169  0.70660  0.86742  Biso   1.000  C
  C78      1.0000 0.48831  0.29340  0.36742  Biso   1.000  C
  C79      1.0000 0.98831  0.20660  0.63258  Biso   1.000  C
  C80      1.0000 0.51169  0.79340  0.13258  Biso   1.000  C
  C81      1.0000 0.95257  0.37840  0.09162  Biso   1.000  C
  C82      1.0000 0.54743  0.62160  0.59162  Biso   1.000  C
  C83      1.0000 0.04743  0.87840  0.40838  Biso   1.000  C
  C84      1.0000 0.45257  0.12160  0.90838  Biso   1.000  C
  C85      1.0000 0.04743  0.62160  0.90838  Biso   1.000  C
  C86      1.0000 0.45257  0.37840  0.40838  Biso   1.000  C
  C87      1.0000 0.95257  0.12160  0.59162  Biso   1.000  C
  C88      1.0000 0.54743  0.87840  0.09162  Biso   1.000  C
  H81      1.0000 0.92820  0.45400  0.10803  Biso   1.000  H
  H82      1.0000 0.57180  0.54600  0.60803  Biso   1.000  H
  H83      1.0000 0.07180  0.95400  0.39197  Biso   1.000  H
  H84      1.0000 0.42820  0.04600  0.89197  Biso   1.000  H
  H85      1.0000 0.07180  0.54600  0.89197  Biso   1.000  H
  H86      1.0000 0.42820  0.45400  0.39197  Biso   1.000  H
  H87      1.0000 0.92820  0.04600  0.60803  Biso   1.000  H
  H88      1.0000 0.57180  0.95400  0.10803  Biso   1.000  H
  C89      1.0000 0.95285  0.35180  0.02662  Biso   1.000  C
  C90      1.0000 0.54715  0.64820  0.52662  Biso   1.000  C
  C91      1.0000 0.04715  0.85180  0.47338  Biso   1.000  C
  C92      1.0000 0.45285  0.14820  0.97338  Biso   1.000  C
  C93      1.0000 0.04715  0.64820  0.97338  Biso   1.000  C
  C94      1.0000 0.45285  0.35180  0.47338  Biso   1.000  C
  C95      1.0000 0.95285  0.14820  0.52662  Biso   1.000  C
  C96      1.0000 0.54715  0.85180  0.02662  Biso   1.000  C
  H89      1.0000 0.92879  0.40900  0.99788  Biso   1.000  H
  H90      1.0000 0.57121  0.59100  0.49788  Biso   1.000  H
  H91      1.0000 0.07121  0.90900  0.50212  Biso   1.000  H
  H92      1.0000 0.42879  0.09100  0.00212  Biso   1.000  H
  H93      1.0000 0.07121  0.59100  0.00212  Biso   1.000  H
  H94      1.0000 0.42879  0.40900  0.50212  Biso   1.000  H
  H95      1.0000 0.92879  0.09100  0.49788  Biso   1.000  H
  H96      1.0000 0.57121  0.90900  0.99788  Biso   1.000  H
  C97      1.0000 0.98878  0.24090  0.00420  Biso   1.000  C
  C98      1.0000 0.51122  0.75910  0.50420  Biso   1.000  C
  C99      1.0000 0.01122  0.74090  0.49580  Biso   1.000  C
  C100     1.0000 0.48878  0.25910  0.99580  Biso   1.000  C
  C101     1.0000 0.01122  0.75910  0.99580  Biso   1.000  C
  C102     1.0000 0.48878  0.24090  0.49580  Biso   1.000  C
  C103     1.0000 0.98878  0.25910  0.50420  Biso   1.000  C
  C104     1.0000 0.51122  0.74090  0.00420  Biso   1.000  C
  H97      1.0000 0.98826  0.21860  0.96005  Biso   1.000  H
  H98      1.0000 0.51174  0.78140  0.46005  Biso   1.000  H
  H99      1.0000 0.01174  0.71860  0.53995  Biso   1.000  H
  H100     1.0000 0.48826  0.28140  0.03995  Biso   1.000  H
  H101     1.0000 0.01174  0.78140  0.03995  Biso   1.000  H
  H102     1.0000 0.48826  0.21860  0.53995  Biso   1.000  H
  H103     1.0000 0.98826  0.28140  0.46005  Biso   1.000  H
  H104     1.0000 0.51174  0.71860  0.96005  Biso   1.000  H
  C105     1.0000 0.02534  0.16280  0.04714  Biso   1.000  C
  C106     1.0000 0.47466  0.83720  0.54714  Biso   1.000  C
  C107     1.0000 0.97466  0.66280  0.45286  Biso   1.000  C
  C108     1.0000 0.52534  0.33720  0.95286  Biso   1.000  C
  C109     1.0000 0.97466  0.83720  0.95286  Biso   1.000  C
  C110     1.0000 0.52534  0.16280  0.45286  Biso   1.000  C
  C111     1.0000 0.02534  0.33720  0.54714  Biso   1.000  C
  C112     1.0000 0.47466  0.66280  0.04714  Biso   1.000  C
  H105     1.0000 0.05106  0.08820  0.03149  Biso   1.000  H
  H106     1.0000 0.44894  0.91180  0.53149  Biso   1.000  H
  H107     1.0000 0.94894  0.58820  0.46851  Biso   1.000  H
  H108     1.0000 0.55106  0.41180  0.96851  Biso   1.000  H
  H109     1.0000 0.94894  0.91180  0.96851  Biso   1.000  H
  H110     1.0000 0.55106  0.08820  0.46851  Biso   1.000  H
  H111     1.0000 0.05106  0.41180  0.53149  Biso   1.000  H
  H112     1.0000 0.44894  0.58820  0.03149  Biso   1.000  H
  F1       1.0000 0.04086  0.64620  0.13452  Biso   1.000  F
  F2       1.0000 0.45914  0.35380  0.63452  Biso   1.000  F
  F3       1.0000 0.95914  0.14620  0.36548  Biso   1.000  F
  F4       1.0000 0.54086  0.85380  0.86548  Biso   1.000  F
  F5       1.0000 0.95914  0.35380  0.86548  Biso   1.000  F
  F6       1.0000 0.54086  0.64620  0.36548  Biso   1.000  F
  F7       1.0000 0.04086  0.85380  0.63452  Biso   1.000  F
  F8       1.0000 0.45914  0.14620  0.13452  Biso   1.000  F
  F9       1.0000 0.12996  0.50030  0.13023  Biso   1.000  F
  F10      1.0000 0.37004  0.49970  0.63023  Biso   1.000  F
  F11      1.0000 0.87004  0.00030  0.36977  Biso   1.000  F
  F12      1.0000 0.62996  0.99970  0.86977  Biso   1.000  F
  F13      1.0000 0.87004  0.49970  0.86977  Biso   1.000  F
  F14      1.0000 0.62996  0.50030  0.36977  Biso   1.000  F
  F15      1.0000 0.12996  0.99970  0.63023  Biso   1.000  F
  F16      1.0000 0.37004  0.00030  0.13023  Biso   1.000  F
  F17      1.0000 0.14843  0.71956  0.15700  Biso   1.000  F
  F18      1.0000 0.35157  0.28044  0.65700  Biso   1.000  F
  F19      1.0000 0.85157  0.21956  0.34300  Biso   1.000  F
  F20      1.0000 0.64843  0.78044  0.84300  Biso   1.000  F
  F21      1.0000 0.85157  0.28044  0.84300  Biso   1.000  F
  F22      1.0000 0.64843  0.71956  0.34300  Biso   1.000  F
  F23      1.0000 0.14843  0.78044  0.65700  Biso   1.000  F
  F24      1.0000 0.35157  0.21956  0.15700  Biso   1.000  F
  F25      1.0000 0.09258  0.58290  0.22583  Biso   1.000  F
  F26      1.0000 0.40742  0.41710  0.72583  Biso   1.000  F
  F27      1.0000 0.90742  0.08290  0.27417  Biso   1.000  F
  F28      1.0000 0.59258  0.91710  0.77417  Biso   1.000  F
  F29      1.0000 0.90742  0.41710  0.77417  Biso   1.000  F
  F30      1.0000 0.59258  0.58290  0.27417  Biso   1.000  F
  F31      1.0000 0.09258  0.91710  0.72583  Biso   1.000  F
  F32      1.0000 0.40742  0.08290  0.22583  Biso   1.000  F
  B1       1.0000 0.10200  0.61240  0.16194  Biso   1.000  B
  B2       1.0000 0.39800  0.38760  0.66194  Biso   1.000  B
  B3       1.0000 0.89800  0.11240  0.33806  Biso   1.000  B
  B4       1.0000 0.60200  0.88760  0.83806  Biso   1.000  B
  B5       1.0000 0.89800  0.38760  0.83806  Biso   1.000  B
  B6       1.0000 0.60200  0.61240  0.33806  Biso   1.000  B
  B7       1.0000 0.10200  0.88760  0.66194  Biso   1.000  B
  B8       1.0000 0.39800  0.11240  0.16194  Biso   1.000  B
  O17      1.0000 0.24923  0.09130  0.05367  Biso   1.000  O
  O18      1.0000 0.25077  0.90870  0.55367  Biso   1.000  O
  O19      1.0000 0.75077  0.59130  0.44633  Biso   1.000  O
  O20      1.0000 0.74923  0.40870  0.94633  Biso   1.000  O
  O21      1.0000 0.75077  0.90870  0.94633  Biso   1.000  O
  O22      1.0000 0.74923  0.09130  0.44633  Biso   1.000  O
  O23      1.0000 0.24923  0.40870  0.55367  Biso   1.000  O
  O24      1.0000 0.25077  0.59130  0.05367  Biso   1.000  O
  H113     1.0000 0.25149  0.12330  0.01225  Biso   1.000  H
  H114     1.0000 0.24851  0.87670  0.51225  Biso   1.000  H
  H115     1.0000 0.74851  0.62330  0.48775  Biso   1.000  H
  H116     1.0000 0.75149  0.37670  0.98775  Biso   1.000  H
  H117     1.0000 0.74851  0.87670  0.98775  Biso   1.000  H
  H118     1.0000 0.75149  0.12330  0.48775  Biso   1.000  H
  H119     1.0000 0.25149  0.37670  0.51225  Biso   1.000  H
  H120     1.0000 0.24851  0.62330  0.01225  Biso   1.000  H
  H121     1.0000 0.28209  0.04610  0.07215  Biso   1.000  H
  H122     1.0000 0.21791  0.95390  0.57215  Biso   1.000  H
  H123     1.0000 0.71791  0.54610  0.42785  Biso   1.000  H
  H124     1.0000 0.78209  0.45390  0.92785  Biso   1.000  H
  H125     1.0000 0.71791  0.95390  0.92785  Biso   1.000  H
  H126     1.0000 0.78209  0.04610  0.42785  Biso   1.000  H
  H127     1.0000 0.28209  0.45390  0.57215  Biso   1.000  H
  H128     1.0000 0.21791  0.54610  0.07215  Biso   1.000  H
  O25      1.0000 0.85840  0.07280  0.08890  Biso   1.000  O
  O26      1.0000 0.64160  0.92720  0.58890  Biso   1.000  O
  O27      1.0000 0.14160  0.57280  0.41110  Biso   1.000  O
  O28      1.0000 0.35840  0.42720  0.91110  Biso   1.000  O
  O29      1.0000 0.14160  0.92720  0.91110  Biso   1.000  O
  O30      1.0000 0.35840  0.07280  0.41110  Biso   1.000  O
  O31      1.0000 0.85840  0.42720  0.58890  Biso   1.000  O
  O32      1.0000 0.64160  0.57280  0.08890  Biso   1.000  O
  B9       1.0000 0.17360  0.31050  0.94706  Biso   1.000  B
  B10      1.0000 0.32640  0.68950  0.44706  Biso   1.000  B
  B11      1.0000 0.82640  0.81050  0.55294  Biso   1.000  B
  B12      1.0000 0.67360  0.18950  0.05294  Biso   1.000  B
  B13      1.0000 0.82640  0.68950  0.05294  Biso   1.000  B
  B14      1.0000 0.67360  0.31050  0.55294  Biso   1.000  B
  B15      1.0000 0.17360  0.18950  0.44706  Biso   1.000  B
  B16      1.0000 0.32640  0.81050  0.94706  Biso   1.000  B
  F33      1.0000 0.13733  0.18990  0.94345  Biso   1.000  F
  F34      1.0000 0.36267  0.81010  0.44345  Biso   1.000  F
  F35      1.0000 0.86267  0.68990  0.55655  Biso   1.000  F
  F36      1.0000 0.63733  0.31010  0.05655  Biso   1.000  F
  F37      1.0000 0.86267  0.81010  0.05655  Biso   1.000  F
  F38      1.0000 0.63733  0.18990  0.55655  Biso   1.000  F
  F39      1.0000 0.13733  0.31010  0.44345  Biso   1.000  F
  F40      1.0000 0.36267  0.68990  0.94345  Biso   1.000  F
  F41      1.0000 0.24234  0.28240  0.95530  Biso   1.000  F
  F42      1.0000 0.25766  0.71760  0.45530  Biso   1.000  F
  F43      1.0000 0.75766  0.78240  0.54470  Biso   1.000  F
  F44      1.0000 0.74234  0.21760  0.04470  Biso   1.000  F
  F45      1.0000 0.75766  0.71760  0.04470  Biso   1.000  F
  F46      1.0000 0.74234  0.28240  0.54470  Biso   1.000  F
  F47      1.0000 0.24234  0.21760  0.45530  Biso   1.000  F
  F48      1.0000 0.25766  0.78240  0.95530  Biso   1.000  F
  F49      1.0000 0.16475  0.38370  0.89065  Biso   1.000  F
  F50      1.0000 0.33525  0.61630  0.39065  Biso   1.000  F
  F51      1.0000 0.83525  0.88370  0.60935  Biso   1.000  F
  F52      1.0000 0.66475  0.11630  0.10935  Biso   1.000  F
  F53      1.0000 0.83525  0.61630  0.10935  Biso   1.000  F
  F54      1.0000 0.66475  0.38370  0.60935  Biso   1.000  F
  F55      1.0000 0.16475  0.11630  0.39065  Biso   1.000  F
  F56      1.0000 0.33525  0.88370  0.89065  Biso   1.000  F
  F57      1.0000 0.15010  0.38600  0.99876  Biso   1.000  F
  F58      1.0000 0.34990  0.61400  0.49876  Biso   1.000  F
  F59      1.0000 0.84990  0.88600  0.50124  Biso   1.000  F
  F60      1.0000 0.65010  0.11400  0.00124  Biso   1.000  F
  F61      1.0000 0.84990  0.61400  0.00124  Biso   1.000  F
  F62      1.0000 0.65010  0.38600  0.50124  Biso   1.000  F
  F63      1.0000 0.15010  0.11400  0.49876  Biso   1.000  F
  F64      1.0000 0.34990  0.88600  0.99876  Biso   1.000  F
  O33      1.0000 0.86510  0.99220  0.06960  Biso   1.000  O
  O34      1.0000 0.63490  0.00780  0.56960  Biso   1.000  O
  O35      1.0000 0.13490  0.49220  0.43040  Biso   1.000  O
  O36      1.0000 0.36510  0.50780  0.93040  Biso   1.000  O
  O37      1.0000 0.13490  0.00780  0.93040  Biso   1.000  O
  O38      1.0000 0.36510  0.99220  0.43040  Biso   1.000  O
  O39      1.0000 0.86510  0.50780  0.56960  Biso   1.000  O
  O40      1.0000 0.63490  0.49220  0.06960  Biso   1.000  O
  B17      1.0000 0.18620  0.35840  0.95130  Biso   1.000  B
  B18      1.0000 0.31380  0.64160  0.45130  Biso   1.000  B
  B19      1.0000 0.81380  0.85840  0.54870  Biso   1.000  B
  B20      1.0000 0.68620  0.14160  0.04870  Biso   1.000  B
  B21      1.0000 0.81380  0.64160  0.04870  Biso   1.000  B
  B22      1.0000 0.68620  0.35840  0.54870  Biso   1.000  B
  B23      1.0000 0.18620  0.14160  0.45130  Biso   1.000  B
  B24      1.0000 0.31380  0.85840  0.95130  Biso   1.000  B
  F65      1.0000 0.19510  0.49260  0.94040  Biso   1.000  F
  F66      1.0000 0.30490  0.50740  0.44040  Biso   1.000  F
  F67      1.0000 0.80490  0.99260  0.55960  Biso   1.000  F
  F68      1.0000 0.69510  0.00740  0.05960  Biso   1.000  F
  F69      1.0000 0.80490  0.50740  0.05960  Biso   1.000  F
  F70      1.0000 0.69510  0.49260  0.55960  Biso   1.000  F
  F71      1.0000 0.19510  0.00740  0.44040  Biso   1.000  F
  F72      1.0000 0.30490  0.99260  0.94040  Biso   1.000  F
  F73      1.0000 0.24740  0.29500  0.95020  Biso   1.000  F
  F74      1.0000 0.25260  0.70500  0.45020  Biso   1.000  F
  F75      1.0000 0.75260  0.79500  0.54980  Biso   1.000  F
  F76      1.0000 0.74740  0.20500  0.04980  Biso   1.000  F
  F77      1.0000 0.75260  0.70500  0.04980  Biso   1.000  F
  F78      1.0000 0.74740  0.29500  0.54980  Biso   1.000  F
  F79      1.0000 0.24740  0.20500  0.45020  Biso   1.000  F
  F80      1.0000 0.25260  0.79500  0.95020  Biso   1.000  F
  F81      1.0000 0.14540  0.30530  0.90510  Biso   1.000  F
  F82      1.0000 0.35460  0.69470  0.40510  Biso   1.000  F
  F83      1.0000 0.85460  0.80530  0.59490  Biso   1.000  F
  F84      1.0000 0.64540  0.19470  0.09490  Biso   1.000  F
  F85      1.0000 0.85460  0.69470  0.09490  Biso   1.000  F
  F86      1.0000 0.64540  0.30530  0.59490  Biso   1.000  F
  F87      1.0000 0.14540  0.19470  0.40510  Biso   1.000  F
  F88      1.0000 0.35460  0.80530  0.90510  Biso   1.000  F
  F89      1.0000 0.15680  0.34050  0.00960  Biso   1.000  F
  F90      1.0000 0.34320  0.65950  0.50960  Biso   1.000  F
  F91      1.0000 0.84320  0.84050  0.49040  Biso   1.000  F
  F92      1.0000 0.65680  0.15950  0.99040  Biso   1.000  F
  F93      1.0000 0.84320  0.65950  0.99040  Biso   1.000  F
  F94      1.0000 0.65680  0.34050  0.49040  Biso   1.000  F
  F95      1.0000 0.15680  0.15950  0.50960  Biso   1.000  F
  F96      1.0000 0.34320  0.84050  0.00960  Biso   1.000  F
