data_image0
_cell_length_a       19.8123
_cell_length_b       9.9516
_cell_length_c       20.9815
_cell_angle_alpha    90
_cell_angle_beta     90
_cell_angle_gamma    90

_symmetry_space_group_name_H-M    "P 1"
_symmetry_int_tables_number       1

loop_
  _symmetry_equiv_pos_as_xyz
  'x, y, z'

loop_
  _atom_site_label
  _atom_site_occupancy
  _atom_site_fract_x
  _atom_site_fract_y
  _atom_site_fract_z
  _atom_site_thermal_displace_type
  _atom_site_B_iso_or_equiv
  _atom_site_type_symbol
  Cu1      1.0000 0.90745  0.61181  0.32937  Biso   1.000  Cu
  Cu2      1.0000 0.59255  0.38819  0.82937  Biso   1.000  Cu
  Cu3      1.0000 0.09255  0.11181  0.17063  Biso   1.000  Cu
  Cu4      1.0000 0.40745  0.88819  0.67063  Biso   1.000  Cu
  Cu5      1.0000 0.09255  0.38819  0.67063  Biso   1.000  Cu
  Cu6      1.0000 0.40745  0.61181  0.17063  Biso   1.000  Cu
  Cu7      1.0000 0.90745  0.88819  0.82937  Biso   1.000  Cu
  Cu8      1.0000 0.59255  0.11181  0.32937  Biso   1.000  Cu
  O1       1.0000 0.82777  0.74900  0.35976  Biso   1.000  O
  O2       1.0000 0.67223  0.25100  0.85976  Biso   1.000  O
  O3       1.0000 0.17223  0.24900  0.14024  Biso   1.000  O
  O4       1.0000 0.32777  0.75100  0.64024  Biso   1.000  O
  O5       1.0000 0.17223  0.25100  0.64024  Biso   1.000  O
  O6       1.0000 0.32777  0.74900  0.14024  Biso   1.000  O
  O7       1.0000 0.82777  0.75100  0.85976  Biso   1.000  O
  O8       1.0000 0.67223  0.24900  0.35976  Biso   1.000  O
  H1       1.0000 0.83557  0.82400  0.36885  Biso   1.000  H
  H2       1.0000 0.66443  0.17600  0.86885  Biso   1.000  H
  H3       1.0000 0.16443  0.32400  0.13115  Biso   1.000  H
  H4       1.0000 0.33557  0.67600  0.63115  Biso   1.000  H
  H5       1.0000 0.16443  0.17600  0.63115  Biso   1.000  H
  H6       1.0000 0.33557  0.82400  0.13115  Biso   1.000  H
  H7       1.0000 0.83557  0.67600  0.86885  Biso   1.000  H
  H8       1.0000 0.66443  0.32400  0.36885  Biso   1.000  H
  H9       1.0000 0.79347  0.72930  0.36845  Biso   1.000  H
  H10      1.0000 0.70653  0.27070  0.86845  Biso   1.000  H
  H11      1.0000 0.20653  0.22930  0.13155  Biso   1.000  H
  H12      1.0000 0.29347  0.77070  0.63155  Biso   1.000  H
  H13      1.0000 0.20653  0.27070  0.63155  Biso   1.000  H
  H14      1.0000 0.29347  0.72930  0.13155  Biso   1.000  H
  H15      1.0000 0.79347  0.77070  0.86845  Biso   1.000  H
  H16      1.0000 0.70653  0.22930  0.36845  Biso   1.000  H
  O9       1.0000 0.86689  0.47280  0.40096  Biso   1.000  O
  O10      1.0000 0.63311  0.52720  0.90096  Biso   1.000  O
  O11      1.0000 0.13311  0.97280  0.09904  Biso   1.000  O
  O12      1.0000 0.36689  0.02720  0.59904  Biso   1.000  O
  O13      1.0000 0.13311  0.52720  0.59904  Biso   1.000  O
  O14      1.0000 0.36689  0.47280  0.09904  Biso   1.000  O
  O15      1.0000 0.86689  0.02720  0.90096  Biso   1.000  O
  O16      1.0000 0.63311  0.97280  0.40096  Biso   1.000  O
  H17      1.0000 0.86276  0.38590  0.38845  Biso   1.000  H
  H18      1.0000 0.63724  0.61410  0.88845  Biso   1.000  H
  H19      1.0000 0.13724  0.88590  0.11155  Biso   1.000  H
  H20      1.0000 0.36276  0.11410  0.61155  Biso   1.000  H
  H21      1.0000 0.13724  0.61410  0.61155  Biso   1.000  H
  H22      1.0000 0.36276  0.38590  0.11155  Biso   1.000  H
  H23      1.0000 0.86276  0.11410  0.88845  Biso   1.000  H
  H24      1.0000 0.63724  0.88590  0.38845  Biso   1.000  H
  H25      1.0000 0.83735  0.48690  0.41705  Biso   1.000  H
  H26      1.0000 0.66265  0.51310  0.91705  Biso   1.000  H
  H27      1.0000 0.16265  0.98690  0.08295  Biso   1.000  H
  H28      1.0000 0.33735  0.01310  0.58295  Biso   1.000  H
  H29      1.0000 0.16265  0.51310  0.58295  Biso   1.000  H
  H30      1.0000 0.33735  0.48690  0.08295  Biso   1.000  H
  H31      1.0000 0.83735  0.01310  0.91705  Biso   1.000  H
  H32      1.0000 0.66265  0.98690  0.41705  Biso   1.000  H
  N1       1.0000 0.84953  0.53010  0.26082  Biso   1.000  N
  N2       1.0000 0.65047  0.46990  0.76082  Biso   1.000  N
  N3       1.0000 0.15047  0.03010  0.23918  Biso   1.000  N
  N4       1.0000 0.34953  0.96990  0.73918  Biso   1.000  N
  N5       1.0000 0.15047  0.46990  0.73918  Biso   1.000  N
  N6       1.0000 0.34953  0.53010  0.23918  Biso   1.000  N
  N7       1.0000 0.84953  0.96990  0.76082  Biso   1.000  N
  N8       1.0000 0.65047  0.03010  0.26082  Biso   1.000  N
  N9       1.0000 0.97150  0.45080  0.29492  Biso   1.000  N
  N10      1.0000 0.52850  0.54920  0.79492  Biso   1.000  N
  N11      1.0000 0.02850  0.95080  0.20508  Biso   1.000  N
  N12      1.0000 0.47150  0.04920  0.70508  Biso   1.000  N
  N13      1.0000 0.02850  0.54920  0.70508  Biso   1.000  N
  N14      1.0000 0.47150  0.45080  0.20508  Biso   1.000  N
  N15      1.0000 0.97150  0.04920  0.79492  Biso   1.000  N
  N16      1.0000 0.52850  0.95080  0.29492  Biso   1.000  N
  N17      1.0000 0.04987  0.27250  0.22799  Biso   1.000  N
  N18      1.0000 0.45013  0.72750  0.72799  Biso   1.000  N
  N19      1.0000 0.95013  0.77250  0.27201  Biso   1.000  N
  N20      1.0000 0.54987  0.22750  0.77201  Biso   1.000  N
  N21      1.0000 0.95013  0.72750  0.77201  Biso   1.000  N
  N22      1.0000 0.54987  0.27250  0.27201  Biso   1.000  N
  N23      1.0000 0.04987  0.22750  0.72799  Biso   1.000  N
  N24      1.0000 0.45013  0.77250  0.22799  Biso   1.000  N
  N25      1.0000 0.02623  0.19360  0.10965  Biso   1.000  N
  N26      1.0000 0.47377  0.80640  0.60965  Biso   1.000  N
  N27      1.0000 0.97377  0.69360  0.39035  Biso   1.000  N
  N28      1.0000 0.52623  0.30640  0.89035  Biso   1.000  N
  N29      1.0000 0.97377  0.80640  0.89035  Biso   1.000  N
  N30      1.0000 0.52623  0.19360  0.39035  Biso   1.000  N
  N31      1.0000 0.02623  0.30640  0.60965  Biso   1.000  N
  N32      1.0000 0.47377  0.69360  0.10965  Biso   1.000  N
  C1       1.0000 0.78330  0.55600  0.25530  Biso   1.000  C
  C2       1.0000 0.71670  0.44400  0.75530  Biso   1.000  C
  C3       1.0000 0.21670  0.05600  0.24470  Biso   1.000  C
  C4       1.0000 0.28330  0.94400  0.74470  Biso   1.000  C
  C5       1.0000 0.21670  0.44400  0.74470  Biso   1.000  C
  C6       1.0000 0.28330  0.55600  0.24470  Biso   1.000  C
  C7       1.0000 0.78330  0.94400  0.75530  Biso   1.000  C
  C8       1.0000 0.71670  0.05600  0.25530  Biso   1.000  C
  H33      1.0000 0.76460  0.62850  0.27890  Biso   1.000  H
  H34      1.0000 0.73540  0.37150  0.77890  Biso   1.000  H
  H35      1.0000 0.23540  0.12850  0.22110  Biso   1.000  H
  H36      1.0000 0.26460  0.87150  0.72110  Biso   1.000  H
  H37      1.0000 0.23540  0.37150  0.72110  Biso   1.000  H
  H38      1.0000 0.26460  0.62850  0.22110  Biso   1.000  H
  H39      1.0000 0.76460  0.87150  0.77890  Biso   1.000  H
  H40      1.0000 0.73540  0.12850  0.27890  Biso   1.000  H
  C9       1.0000 0.74130  0.48120  0.21660  Biso   1.000  C
  C10      1.0000 0.75870  0.51880  0.71660  Biso   1.000  C
  C11      1.0000 0.25870  0.98120  0.28340  Biso   1.000  C
  C12      1.0000 0.24130  0.01880  0.78340  Biso   1.000  C
  C13      1.0000 0.25870  0.51880  0.78340  Biso   1.000  C
  C14      1.0000 0.24130  0.48120  0.28340  Biso   1.000  C
  C15      1.0000 0.74130  0.01880  0.71660  Biso   1.000  C
  C16      1.0000 0.75870  0.98120  0.21660  Biso   1.000  C
  H41      1.0000 0.69490  0.50330  0.21290  Biso   1.000  H
  H42      1.0000 0.80510  0.49670  0.71290  Biso   1.000  H
  H43      1.0000 0.30510  0.00330  0.28710  Biso   1.000  H
  H44      1.0000 0.19490  0.99670  0.78710  Biso   1.000  H
  H45      1.0000 0.30510  0.49670  0.78710  Biso   1.000  H
  H46      1.0000 0.19490  0.50330  0.28710  Biso   1.000  H
  H47      1.0000 0.69490  0.99670  0.71290  Biso   1.000  H
  H48      1.0000 0.80510  0.00330  0.21290  Biso   1.000  H
  C17      1.0000 0.76800  0.37380  0.18330  Biso   1.000  C
  C18      1.0000 0.73200  0.62620  0.68330  Biso   1.000  C
  C19      1.0000 0.23200  0.87380  0.31670  Biso   1.000  C
  C20      1.0000 0.26800  0.12620  0.81670  Biso   1.000  C
  C21      1.0000 0.23200  0.62620  0.81670  Biso   1.000  C
  C22      1.0000 0.26800  0.37380  0.31670  Biso   1.000  C
  C23      1.0000 0.76800  0.12620  0.68330  Biso   1.000  C
  C24      1.0000 0.73200  0.87380  0.18330  Biso   1.000  C
  H49      1.0000 0.73980  0.31950  0.15730  Biso   1.000  H
  H50      1.0000 0.76020  0.68050  0.65730  Biso   1.000  H
  H51      1.0000 0.26020  0.81950  0.34270  Biso   1.000  H
  H52      1.0000 0.23980  0.18050  0.84270  Biso   1.000  H
  H53      1.0000 0.26020  0.68050  0.84270  Biso   1.000  H
  H54      1.0000 0.23980  0.31950  0.34270  Biso   1.000  H
  H55      1.0000 0.73980  0.18050  0.65730  Biso   1.000  H
  H56      1.0000 0.76020  0.81950  0.15730  Biso   1.000  H
  C25      1.0000 0.83640  0.34640  0.18845  Biso   1.000  C
  C26      1.0000 0.66360  0.65360  0.68845  Biso   1.000  C
  C27      1.0000 0.16360  0.84640  0.31155  Biso   1.000  C
  C28      1.0000 0.33640  0.15360  0.81155  Biso   1.000  C
  C29      1.0000 0.16360  0.65360  0.81155  Biso   1.000  C
  C30      1.0000 0.33640  0.34640  0.31155  Biso   1.000  C
  C31      1.0000 0.83640  0.15360  0.68845  Biso   1.000  C
  C32      1.0000 0.66360  0.84640  0.18845  Biso   1.000  C
  H57      1.0000 0.85560  0.27270  0.16618  Biso   1.000  H
  H58      1.0000 0.64440  0.72730  0.66618  Biso   1.000  H
  H59      1.0000 0.14440  0.77270  0.33382  Biso   1.000  H
  H60      1.0000 0.35560  0.22730  0.83382  Biso   1.000  H
  H61      1.0000 0.14440  0.72730  0.83382  Biso   1.000  H
  H62      1.0000 0.35560  0.27270  0.33382  Biso   1.000  H
  H63      1.0000 0.85560  0.22730  0.66618  Biso   1.000  H
  H64      1.0000 0.64440  0.77270  0.16618  Biso   1.000  H
  C33      1.0000 0.87630  0.42800  0.22647  Biso   1.000  C
  C34      1.0000 0.62370  0.57200  0.72647  Biso   1.000  C
  C35      1.0000 0.12370  0.92800  0.27353  Biso   1.000  C
  C36      1.0000 0.37630  0.07200  0.77353  Biso   1.000  C
  C37      1.0000 0.12370  0.57200  0.77353  Biso   1.000  C
  C38      1.0000 0.37630  0.42800  0.27353  Biso   1.000  C
  C39      1.0000 0.87630  0.07200  0.72647  Biso   1.000  C
  C40      1.0000 0.62370  0.92800  0.22647  Biso   1.000  C
  C41      1.0000 0.94950  0.40150  0.23867  Biso   1.000  C
  C42      1.0000 0.55050  0.59850  0.73867  Biso   1.000  C
  C43      1.0000 0.05050  0.90150  0.26133  Biso   1.000  C
  C44      1.0000 0.44950  0.09850  0.76133  Biso   1.000  C
  C45      1.0000 0.05050  0.59850  0.76133  Biso   1.000  C
  C46      1.0000 0.44950  0.40150  0.26133  Biso   1.000  C
  C47      1.0000 0.94950  0.09850  0.73867  Biso   1.000  C
  C48      1.0000 0.55050  0.90150  0.23867  Biso   1.000  C
  C49      1.0000 0.03050  0.41070  0.31790  Biso   1.000  C
  C50      1.0000 0.46950  0.58930  0.81790  Biso   1.000  C
  C51      1.0000 0.96950  0.91070  0.18210  Biso   1.000  C
  C52      1.0000 0.53050  0.08930  0.68210  Biso   1.000  C
  C53      1.0000 0.96950  0.58930  0.68210  Biso   1.000  C
  C54      1.0000 0.53050  0.41070  0.18210  Biso   1.000  C
  C55      1.0000 0.03050  0.08930  0.81790  Biso   1.000  C
  C56      1.0000 0.46950  0.91070  0.31790  Biso   1.000  C
  H65      1.0000 0.04780  0.45010  0.35580  Biso   1.000  H
  H66      1.0000 0.45220  0.54990  0.85580  Biso   1.000  H
  H67      1.0000 0.95220  0.95010  0.14420  Biso   1.000  H
  H68      1.0000 0.54780  0.04990  0.64420  Biso   1.000  H
  H69      1.0000 0.95220  0.54990  0.64420  Biso   1.000  H
  H70      1.0000 0.54780  0.45010  0.14420  Biso   1.000  H
  H71      1.0000 0.04780  0.04990  0.85580  Biso   1.000  H
  H72      1.0000 0.45220  0.95010  0.35580  Biso   1.000  H
  C57      1.0000 0.06740  0.31060  0.28660  Biso   1.000  C
  C58      1.0000 0.43260  0.68940  0.78660  Biso   1.000  C
  C59      1.0000 0.93260  0.81060  0.21340  Biso   1.000  C
  C60      1.0000 0.56740  0.18940  0.71340  Biso   1.000  C
  C61      1.0000 0.93260  0.68940  0.71340  Biso   1.000  C
  C62      1.0000 0.56740  0.31060  0.21340  Biso   1.000  C
  C63      1.0000 0.06740  0.18940  0.78660  Biso   1.000  C
  C64      1.0000 0.43260  0.81060  0.28660  Biso   1.000  C
  H73      1.0000 0.10490  0.26990  0.30710  Biso   1.000  H
  H74      1.0000 0.39510  0.73010  0.80710  Biso   1.000  H
  H75      1.0000 0.89510  0.76990  0.19290  Biso   1.000  H
  H76      1.0000 0.60490  0.23010  0.69290  Biso   1.000  H
  H77      1.0000 0.89510  0.73010  0.69290  Biso   1.000  H
  H78      1.0000 0.60490  0.26990  0.19290  Biso   1.000  H
  H79      1.0000 0.10490  0.23010  0.80710  Biso   1.000  H
  H80      1.0000 0.39510  0.76990  0.30710  Biso   1.000  H
  C65      1.0000 0.99390  0.32430  0.20067  Biso   1.000  C
  C66      1.0000 0.50610  0.67570  0.70067  Biso   1.000  C
  C67      1.0000 0.00610  0.82430  0.29933  Biso   1.000  C
  C68      1.0000 0.49390  0.17570  0.79933  Biso   1.000  C
  C69      1.0000 0.00610  0.67570  0.79933  Biso   1.000  C
  C70      1.0000 0.49390  0.32430  0.29933  Biso   1.000  C
  C71      1.0000 0.99390  0.17570  0.70067  Biso   1.000  C
  C72      1.0000 0.50610  0.82430  0.20067  Biso   1.000  C
  C73      1.0000 0.98820  0.29820  0.13093  Biso   1.000  C
  C74      1.0000 0.51180  0.70180  0.63093  Biso   1.000  C
  C75      1.0000 0.01180  0.79820  0.36907  Biso   1.000  C
  C76      1.0000 0.48820  0.20180  0.86907  Biso   1.000  C
  C77      1.0000 0.01180  0.70180  0.86907  Biso   1.000  C
  C78      1.0000 0.48820  0.29820  0.36907  Biso   1.000  C
  C79      1.0000 0.98820  0.20180  0.63093  Biso   1.000  C
  C80      1.0000 0.51180  0.79820  0.13093  Biso   1.000  C
  C81      1.0000 0.95290  0.38030  0.08940  Biso   1.000  C
  C82      1.0000 0.54710  0.61970  0.58940  Biso   1.000  C
  C83      1.0000 0.04710  0.88030  0.41060  Biso   1.000  C
  C84      1.0000 0.45290  0.11970  0.91060  Biso   1.000  C
  C85      1.0000 0.04710  0.61970  0.91060  Biso   1.000  C
  C86      1.0000 0.45290  0.38030  0.41060  Biso   1.000  C
  C87      1.0000 0.95290  0.11970  0.58940  Biso   1.000  C
  C88      1.0000 0.54710  0.88030  0.08940  Biso   1.000  C
  H81      1.0000 0.92830  0.45550  0.10490  Biso   1.000  H
  H82      1.0000 0.57170  0.54450  0.60490  Biso   1.000  H
  H83      1.0000 0.07170  0.95550  0.39510  Biso   1.000  H
  H84      1.0000 0.42830  0.04450  0.89510  Biso   1.000  H
  H85      1.0000 0.07170  0.54450  0.89510  Biso   1.000  H
  H86      1.0000 0.42830  0.45550  0.39510  Biso   1.000  H
  H87      1.0000 0.92830  0.04450  0.60490  Biso   1.000  H
  H88      1.0000 0.57170  0.95550  0.10490  Biso   1.000  H
  C89      1.0000 0.95380  0.35110  0.02480  Biso   1.000  C
  C90      1.0000 0.54620  0.64890  0.52480  Biso   1.000  C
  C91      1.0000 0.04620  0.85110  0.47520  Biso   1.000  C
  C92      1.0000 0.45380  0.14890  0.97520  Biso   1.000  C
  C93      1.0000 0.04620  0.64890  0.97520  Biso   1.000  C
  C94      1.0000 0.45380  0.35110  0.47520  Biso   1.000  C
  C95      1.0000 0.95380  0.14890  0.52480  Biso   1.000  C
  C96      1.0000 0.54620  0.85110  0.02480  Biso   1.000  C
  H89      1.0000 0.92970  0.40600  0.99550  Biso   1.000  H
  H90      1.0000 0.57030  0.59400  0.49550  Biso   1.000  H
  H91      1.0000 0.07030  0.90600  0.50450  Biso   1.000  H
  H92      1.0000 0.42970  0.09400  0.00450  Biso   1.000  H
  H93      1.0000 0.07030  0.59400  0.00450  Biso   1.000  H
  H94      1.0000 0.42970  0.40600  0.50450  Biso   1.000  H
  H95      1.0000 0.92970  0.09400  0.49550  Biso   1.000  H
  H96      1.0000 0.57030  0.90600  0.99550  Biso   1.000  H
  C97      1.0000 0.99010  0.24140  0.00340  Biso   1.000  C
  C98      1.0000 0.50990  0.75860  0.50340  Biso   1.000  C
  C99      1.0000 0.00990  0.74140  0.49660  Biso   1.000  C
  C100     1.0000 0.49010  0.25860  0.99660  Biso   1.000  C
  C101     1.0000 0.00990  0.75860  0.99660  Biso   1.000  C
  C102     1.0000 0.49010  0.24140  0.49660  Biso   1.000  C
  C103     1.0000 0.99010  0.25860  0.50340  Biso   1.000  C
  C104     1.0000 0.50990  0.74140  0.00340  Biso   1.000  C
  H97      1.0000 0.99020  0.21820  0.95950  Biso   1.000  H
  H98      1.0000 0.50980  0.78180  0.45950  Biso   1.000  H
  H99      1.0000 0.00980  0.71820  0.54050  Biso   1.000  H
  H100     1.0000 0.49020  0.28180  0.04050  Biso   1.000  H
  H101     1.0000 0.00980  0.78180  0.04050  Biso   1.000  H
  H102     1.0000 0.49020  0.21820  0.54050  Biso   1.000  H
  H103     1.0000 0.99020  0.28180  0.45950  Biso   1.000  H
  H104     1.0000 0.50980  0.71820  0.95950  Biso   1.000  H
  C105     1.0000 0.02640  0.16570  0.04710  Biso   1.000  C
  C106     1.0000 0.47360  0.83430  0.54710  Biso   1.000  C
  C107     1.0000 0.97360  0.66570  0.45290  Biso   1.000  C
  C108     1.0000 0.52640  0.33430  0.95290  Biso   1.000  C
  C109     1.0000 0.97360  0.83430  0.95290  Biso   1.000  C
  C110     1.0000 0.52640  0.16570  0.45290  Biso   1.000  C
  C111     1.0000 0.02640  0.33430  0.54710  Biso   1.000  C
  C112     1.0000 0.47360  0.66570  0.04710  Biso   1.000  C
  H105     1.0000 0.05230  0.09170  0.03220  Biso   1.000  H
  H106     1.0000 0.44770  0.90830  0.53220  Biso   1.000  H
  H107     1.0000 0.94770  0.59170  0.46780  Biso   1.000  H
  H108     1.0000 0.55230  0.40830  0.96780  Biso   1.000  H
  H109     1.0000 0.94770  0.90830  0.96780  Biso   1.000  H
  H110     1.0000 0.55230  0.09170  0.46780  Biso   1.000  H
  H111     1.0000 0.05230  0.40830  0.53220  Biso   1.000  H
  H112     1.0000 0.44770  0.59170  0.03220  Biso   1.000  H
  F1       1.0000 0.03804  0.64930  0.13994  Biso   1.000  F
  F2       1.0000 0.46196  0.35070  0.63994  Biso   1.000  F
  F3       1.0000 0.96196  0.14930  0.36006  Biso   1.000  F
  F4       1.0000 0.53804  0.85070  0.86006  Biso   1.000  F
  F5       1.0000 0.96196  0.35070  0.86006  Biso   1.000  F
  F6       1.0000 0.53804  0.64930  0.36006  Biso   1.000  F
  F7       1.0000 0.03804  0.85070  0.63994  Biso   1.000  F
  F8       1.0000 0.46196  0.14930  0.13994  Biso   1.000  F
  F9       1.0000 0.12609  0.50820  0.13145  Biso   1.000  F
  F10      1.0000 0.37391  0.49180  0.63145  Biso   1.000  F
  F11      1.0000 0.87391  0.00820  0.36855  Biso   1.000  F
  F12      1.0000 0.62609  0.99180  0.86855  Biso   1.000  F
  F13      1.0000 0.87391  0.49180  0.86855  Biso   1.000  F
  F14      1.0000 0.62609  0.50820  0.36855  Biso   1.000  F
  F15      1.0000 0.12609  0.99180  0.63145  Biso   1.000  F
  F16      1.0000 0.37391  0.00820  0.13145  Biso   1.000  F
  F17      1.0000 0.14410  0.72590  0.15527  Biso   1.000  F
  F18      1.0000 0.35590  0.27410  0.65527  Biso   1.000  F
  F19      1.0000 0.85590  0.22590  0.34473  Biso   1.000  F
  F20      1.0000 0.64410  0.77410  0.84473  Biso   1.000  F
  F21      1.0000 0.85590  0.27410  0.84473  Biso   1.000  F
  F22      1.0000 0.64410  0.72590  0.34473  Biso   1.000  F
  F23      1.0000 0.14410  0.77410  0.65527  Biso   1.000  F
  F24      1.0000 0.35590  0.22590  0.15527  Biso   1.000  F
  F25      1.0000 0.09488  0.59430  0.22737  Biso   1.000  F
  F26      1.0000 0.40512  0.40570  0.72737  Biso   1.000  F
  F27      1.0000 0.90512  0.09430  0.27263  Biso   1.000  F
  F28      1.0000 0.59488  0.90570  0.77263  Biso   1.000  F
  F29      1.0000 0.90512  0.40570  0.77263  Biso   1.000  F
  F30      1.0000 0.59488  0.59430  0.27263  Biso   1.000  F
  F31      1.0000 0.09488  0.90570  0.72737  Biso   1.000  F
  F32      1.0000 0.40512  0.09430  0.22737  Biso   1.000  F
  B1       1.0000 0.09990  0.61930  0.16370  Biso   1.000  B
  B2       1.0000 0.40010  0.38070  0.66370  Biso   1.000  B
  B3       1.0000 0.90010  0.11930  0.33630  Biso   1.000  B
  B4       1.0000 0.59990  0.88070  0.83630  Biso   1.000  B
  B5       1.0000 0.90010  0.38070  0.83630  Biso   1.000  B
  B6       1.0000 0.59990  0.61930  0.33630  Biso   1.000  B
  B7       1.0000 0.09990  0.88070  0.66370  Biso   1.000  B
  B8       1.0000 0.40010  0.11930  0.16370  Biso   1.000  B
  O17      1.0000 0.25050  0.09860  0.06034  Biso   1.000  O
  O18      1.0000 0.24950  0.90140  0.56034  Biso   1.000  O
  O19      1.0000 0.74950  0.59860  0.43966  Biso   1.000  O
  O20      1.0000 0.75050  0.40140  0.93966  Biso   1.000  O
  O21      1.0000 0.74950  0.90140  0.93966  Biso   1.000  O
  O22      1.0000 0.75050  0.09860  0.43966  Biso   1.000  O
  O23      1.0000 0.25050  0.40140  0.56034  Biso   1.000  O
  O24      1.0000 0.24950  0.59860  0.06034  Biso   1.000  O
  H113     1.0000 0.25480  0.10990  0.02094  Biso   1.000  H
  H114     1.0000 0.24520  0.89010  0.52094  Biso   1.000  H
  H115     1.0000 0.74520  0.60990  0.47906  Biso   1.000  H
  H116     1.0000 0.75480  0.39010  0.97906  Biso   1.000  H
  H117     1.0000 0.74520  0.89010  0.97906  Biso   1.000  H
  H118     1.0000 0.75480  0.10990  0.47906  Biso   1.000  H
  H119     1.0000 0.25480  0.39010  0.52094  Biso   1.000  H
  H120     1.0000 0.24520  0.60990  0.02094  Biso   1.000  H
  H121     1.0000 0.27880  0.03260  0.07348  Biso   1.000  H
  H122     1.0000 0.22120  0.96740  0.57348  Biso   1.000  H
  H123     1.0000 0.72120  0.53260  0.42652  Biso   1.000  H
  H124     1.0000 0.77880  0.46740  0.92652  Biso   1.000  H
  H125     1.0000 0.72120  0.96740  0.92652  Biso   1.000  H
  H126     1.0000 0.77880  0.03260  0.42652  Biso   1.000  H
  H127     1.0000 0.27880  0.46740  0.57348  Biso   1.000  H
  H128     1.0000 0.22120  0.53260  0.07348  Biso   1.000  H
  O25      1.0000 0.86190  0.05930  0.08440  Biso   1.000  O
  O26      1.0000 0.63810  0.94070  0.58440  Biso   1.000  O
  O27      1.0000 0.13810  0.55930  0.41560  Biso   1.000  O
  O28      1.0000 0.36190  0.44070  0.91560  Biso   1.000  O
  O29      1.0000 0.13810  0.94070  0.91560  Biso   1.000  O
  O30      1.0000 0.36190  0.05930  0.41560  Biso   1.000  O
  O31      1.0000 0.86190  0.44070  0.58440  Biso   1.000  O
  O32      1.0000 0.63810  0.55930  0.08440  Biso   1.000  O
  B9       1.0000 0.17847  0.32040  0.94713  Biso   1.000  B
  B10      1.0000 0.32153  0.67960  0.44713  Biso   1.000  B
  B11      1.0000 0.82153  0.82040  0.55287  Biso   1.000  B
  B12      1.0000 0.67847  0.17960  0.05287  Biso   1.000  B
  B13      1.0000 0.82153  0.67960  0.05287  Biso   1.000  B
  B14      1.0000 0.67847  0.32040  0.55287  Biso   1.000  B
  B15      1.0000 0.17847  0.17960  0.44713  Biso   1.000  B
  B16      1.0000 0.32153  0.82040  0.94713  Biso   1.000  B
  F33      1.0000 0.15570  0.19240  0.95660  Biso   1.000  F
  F34      1.0000 0.34430  0.80760  0.45660  Biso   1.000  F
  F35      1.0000 0.84430  0.69240  0.54340  Biso   1.000  F
  F36      1.0000 0.65570  0.30760  0.04340  Biso   1.000  F
  F37      1.0000 0.84430  0.80760  0.04340  Biso   1.000  F
  F38      1.0000 0.65570  0.19240  0.54340  Biso   1.000  F
  F39      1.0000 0.15570  0.30760  0.45660  Biso   1.000  F
  F40      1.0000 0.34430  0.69240  0.95660  Biso   1.000  F
  F41      1.0000 0.24745  0.32090  0.94699  Biso   1.000  F
  F42      1.0000 0.25255  0.67910  0.44699  Biso   1.000  F
  F43      1.0000 0.75255  0.82090  0.55301  Biso   1.000  F
  F44      1.0000 0.74745  0.17910  0.05301  Biso   1.000  F
  F45      1.0000 0.75255  0.67910  0.05301  Biso   1.000  F
  F46      1.0000 0.74745  0.32090  0.55301  Biso   1.000  F
  F47      1.0000 0.24745  0.17910  0.44699  Biso   1.000  F
  F48      1.0000 0.25255  0.82090  0.94699  Biso   1.000  F
  F49      1.0000 0.15540  0.36710  0.88987  Biso   1.000  F
  F50      1.0000 0.34460  0.63290  0.38987  Biso   1.000  F
  F51      1.0000 0.84460  0.86710  0.61013  Biso   1.000  F
  F52      1.0000 0.65540  0.13290  0.11013  Biso   1.000  F
  F53      1.0000 0.84460  0.63290  0.11013  Biso   1.000  F
  F54      1.0000 0.65540  0.36710  0.61013  Biso   1.000  F
  F55      1.0000 0.15540  0.13290  0.38987  Biso   1.000  F
  F56      1.0000 0.34460  0.86710  0.88987  Biso   1.000  F
  F57      1.0000 0.15540  0.40140  0.99495  Biso   1.000  F
  F58      1.0000 0.34460  0.59860  0.49495  Biso   1.000  F
  F59      1.0000 0.84460  0.90140  0.50505  Biso   1.000  F
  F60      1.0000 0.65540  0.09860  0.00505  Biso   1.000  F
  F61      1.0000 0.84460  0.59860  0.00505  Biso   1.000  F
  F62      1.0000 0.65540  0.40140  0.50505  Biso   1.000  F
  F63      1.0000 0.15540  0.09860  0.49495  Biso   1.000  F
  F64      1.0000 0.34460  0.90140  0.99495  Biso   1.000  F
  O33      1.0000 0.86790  0.98760  0.06880  Biso   1.000  O
  O34      1.0000 0.63210  0.01240  0.56880  Biso   1.000  O
  O35      1.0000 0.13210  0.48760  0.43120  Biso   1.000  O
  O36      1.0000 0.36790  0.51240  0.93120  Biso   1.000  O
  O37      1.0000 0.13210  0.01240  0.93120  Biso   1.000  O
  O38      1.0000 0.36790  0.98760  0.43120  Biso   1.000  O
  O39      1.0000 0.86790  0.51240  0.56880  Biso   1.000  O
  O40      1.0000 0.63210  0.48760  0.06880  Biso   1.000  O
  B17      1.0000 0.18808  0.35970  0.94966  Biso   1.000  B
  B18      1.0000 0.31192  0.64030  0.44966  Biso   1.000  B
  B19      1.0000 0.81192  0.85970  0.55034  Biso   1.000  B
  B20      1.0000 0.68808  0.14030  0.05034  Biso   1.000  B
  B21      1.0000 0.81192  0.64030  0.05034  Biso   1.000  B
  B22      1.0000 0.68808  0.35970  0.55034  Biso   1.000  B
  B23      1.0000 0.18808  0.14030  0.44966  Biso   1.000  B
  B24      1.0000 0.31192  0.85970  0.94966  Biso   1.000  B
  F65      1.0000 0.19620  0.49580  0.94940  Biso   1.000  F
  F66      1.0000 0.30380  0.50420  0.44940  Biso   1.000  F
  F67      1.0000 0.80380  0.99580  0.55060  Biso   1.000  F
  F68      1.0000 0.69620  0.00420  0.05060  Biso   1.000  F
  F69      1.0000 0.80380  0.50420  0.05060  Biso   1.000  F
  F70      1.0000 0.69620  0.49580  0.55060  Biso   1.000  F
  F71      1.0000 0.19620  0.00420  0.44940  Biso   1.000  F
  F72      1.0000 0.30380  0.99580  0.94940  Biso   1.000  F
  F73      1.0000 0.24981  0.29900  0.94891  Biso   1.000  F
  F74      1.0000 0.25019  0.70100  0.44891  Biso   1.000  F
  F75      1.0000 0.75019  0.79900  0.55109  Biso   1.000  F
  F76      1.0000 0.74981  0.20100  0.05109  Biso   1.000  F
  F77      1.0000 0.75019  0.70100  0.05109  Biso   1.000  F
  F78      1.0000 0.74981  0.29900  0.55109  Biso   1.000  F
  F79      1.0000 0.24981  0.20100  0.44891  Biso   1.000  F
  F80      1.0000 0.25019  0.79900  0.94891  Biso   1.000  F
  F81      1.0000 0.15235  0.32180  0.89712  Biso   1.000  F
  F82      1.0000 0.34765  0.67820  0.39712  Biso   1.000  F
  F83      1.0000 0.84765  0.82180  0.60288  Biso   1.000  F
  F84      1.0000 0.65235  0.17820  0.10288  Biso   1.000  F
  F85      1.0000 0.84765  0.67820  0.10288  Biso   1.000  F
  F86      1.0000 0.65235  0.32180  0.60288  Biso   1.000  F
  F87      1.0000 0.15235  0.17820  0.39712  Biso   1.000  F
  F88      1.0000 0.34765  0.82180  0.89712  Biso   1.000  F
  F89      1.0000 0.15400  0.32230  0.00327  Biso   1.000  F
  F90      1.0000 0.34600  0.67770  0.50327  Biso   1.000  F
  F91      1.0000 0.84600  0.82230  0.49673  Biso   1.000  F
  F92      1.0000 0.65400  0.17770  0.99673  Biso   1.000  F
  F93      1.0000 0.84600  0.67770  0.99673  Biso   1.000  F
  F94      1.0000 0.65400  0.32230  0.49673  Biso   1.000  F
  F95      1.0000 0.15400  0.17770  0.50327  Biso   1.000  F
  F96      1.0000 0.34600  0.82230  0.00327  Biso   1.000  F
