data_image0
_cell_length_a       19.6196
_cell_length_b       9.901
_cell_length_c       20.9568
_cell_angle_alpha    90
_cell_angle_beta     90
_cell_angle_gamma    90

_symmetry_space_group_name_H-M    "P 1"
_symmetry_int_tables_number       1

loop_
  _symmetry_equiv_pos_as_xyz
  'x, y, z'

loop_
  _atom_site_label
  _atom_site_occupancy
  _atom_site_fract_x
  _atom_site_fract_y
  _atom_site_fract_z
  _atom_site_thermal_displace_type
  _atom_site_B_iso_or_equiv
  _atom_site_type_symbol
  Cu1      1.0000 0.90672  0.60552  0.33045  Biso   1.000  Cu
  Cu2      1.0000 0.59328  0.39448  0.83045  Biso   1.000  Cu
  Cu3      1.0000 0.09328  0.10552  0.16955  Biso   1.000  Cu
  Cu4      1.0000 0.40672  0.89448  0.66955  Biso   1.000  Cu
  Cu5      1.0000 0.09328  0.39448  0.66955  Biso   1.000  Cu
  Cu6      1.0000 0.40672  0.60552  0.16955  Biso   1.000  Cu
  Cu7      1.0000 0.90672  0.89448  0.83045  Biso   1.000  Cu
  Cu8      1.0000 0.59328  0.10552  0.33045  Biso   1.000  Cu
  O1       1.0000 0.82772  0.74090  0.36137  Biso   1.000  O
  O2       1.0000 0.67228  0.25910  0.86137  Biso   1.000  O
  O3       1.0000 0.17228  0.24090  0.13863  Biso   1.000  O
  O4       1.0000 0.32772  0.75910  0.63863  Biso   1.000  O
  O5       1.0000 0.17228  0.25910  0.63863  Biso   1.000  O
  O6       1.0000 0.32772  0.74090  0.13863  Biso   1.000  O
  O7       1.0000 0.82772  0.75910  0.86137  Biso   1.000  O
  O8       1.0000 0.67228  0.24090  0.36137  Biso   1.000  O
  H1       1.0000 0.83552  0.81590  0.37046  Biso   1.000  H
  H2       1.0000 0.66448  0.18410  0.87046  Biso   1.000  H
  H3       1.0000 0.16448  0.31590  0.12954  Biso   1.000  H
  H4       1.0000 0.33552  0.68410  0.62954  Biso   1.000  H
  H5       1.0000 0.16448  0.18410  0.62954  Biso   1.000  H
  H6       1.0000 0.33552  0.81590  0.12954  Biso   1.000  H
  H7       1.0000 0.83552  0.68410  0.87046  Biso   1.000  H
  H8       1.0000 0.66448  0.31590  0.37046  Biso   1.000  H
  H9       1.0000 0.79342  0.72120  0.37006  Biso   1.000  H
  H10      1.0000 0.70658  0.27880  0.87006  Biso   1.000  H
  H11      1.0000 0.20658  0.22120  0.12994  Biso   1.000  H
  H12      1.0000 0.29342  0.77880  0.62994  Biso   1.000  H
  H13      1.0000 0.20658  0.27880  0.62994  Biso   1.000  H
  H14      1.0000 0.29342  0.72120  0.12994  Biso   1.000  H
  H15      1.0000 0.79342  0.77880  0.87006  Biso   1.000  H
  H16      1.0000 0.70658  0.22120  0.37006  Biso   1.000  H
  O9       1.0000 0.86672  0.46540  0.40263  Biso   1.000  O
  O10      1.0000 0.63328  0.53460  0.90263  Biso   1.000  O
  O11      1.0000 0.13328  0.96540  0.09737  Biso   1.000  O
  O12      1.0000 0.36672  0.03460  0.59737  Biso   1.000  O
  O13      1.0000 0.13328  0.53460  0.59737  Biso   1.000  O
  O14      1.0000 0.36672  0.46540  0.09737  Biso   1.000  O
  O15      1.0000 0.86672  0.03460  0.90263  Biso   1.000  O
  O16      1.0000 0.63328  0.96540  0.40263  Biso   1.000  O
  H17      1.0000 0.86259  0.37850  0.39012  Biso   1.000  H
  H18      1.0000 0.63741  0.62150  0.89012  Biso   1.000  H
  H19      1.0000 0.13741  0.87850  0.10988  Biso   1.000  H
  H20      1.0000 0.36259  0.12150  0.60988  Biso   1.000  H
  H21      1.0000 0.13741  0.62150  0.60988  Biso   1.000  H
  H22      1.0000 0.36259  0.37850  0.10988  Biso   1.000  H
  H23      1.0000 0.86259  0.12150  0.89012  Biso   1.000  H
  H24      1.0000 0.63741  0.87850  0.39012  Biso   1.000  H
  H25      1.0000 0.83718  0.47950  0.41872  Biso   1.000  H
  H26      1.0000 0.66282  0.52050  0.91872  Biso   1.000  H
  H27      1.0000 0.16282  0.97950  0.08128  Biso   1.000  H
  H28      1.0000 0.33718  0.02050  0.58128  Biso   1.000  H
  H29      1.0000 0.16282  0.52050  0.58128  Biso   1.000  H
  H30      1.0000 0.33718  0.47950  0.08128  Biso   1.000  H
  H31      1.0000 0.83718  0.02050  0.91872  Biso   1.000  H
  H32      1.0000 0.66282  0.97950  0.41872  Biso   1.000  H
  N1       1.0000 0.84821  0.52260  0.26246  Biso   1.000  N
  N2       1.0000 0.65179  0.47740  0.76246  Biso   1.000  N
  N3       1.0000 0.15179  0.02260  0.23754  Biso   1.000  N
  N4       1.0000 0.34821  0.97740  0.73754  Biso   1.000  N
  N5       1.0000 0.15179  0.47740  0.73754  Biso   1.000  N
  N6       1.0000 0.34821  0.52260  0.23754  Biso   1.000  N
  N7       1.0000 0.84821  0.97740  0.76246  Biso   1.000  N
  N8       1.0000 0.65179  0.02260  0.26246  Biso   1.000  N
  N9       1.0000 0.97171  0.44400  0.29652  Biso   1.000  N
  N10      1.0000 0.52829  0.55600  0.79652  Biso   1.000  N
  N11      1.0000 0.02829  0.94400  0.20348  Biso   1.000  N
  N12      1.0000 0.47171  0.05600  0.70348  Biso   1.000  N
  N13      1.0000 0.02829  0.55600  0.70348  Biso   1.000  N
  N14      1.0000 0.47171  0.44400  0.20348  Biso   1.000  N
  N15      1.0000 0.97171  0.05600  0.79652  Biso   1.000  N
  N16      1.0000 0.52829  0.94400  0.29652  Biso   1.000  N
  N17      1.0000 0.05066  0.26660  0.22857  Biso   1.000  N
  N18      1.0000 0.44934  0.73340  0.72857  Biso   1.000  N
  N19      1.0000 0.94934  0.76660  0.27143  Biso   1.000  N
  N20      1.0000 0.55066  0.23340  0.77143  Biso   1.000  N
  N21      1.0000 0.94934  0.73340  0.77143  Biso   1.000  N
  N22      1.0000 0.55066  0.26660  0.27143  Biso   1.000  N
  N23      1.0000 0.05066  0.23340  0.72857  Biso   1.000  N
  N24      1.0000 0.44934  0.76660  0.22857  Biso   1.000  N
  N25      1.0000 0.02591  0.18960  0.10952  Biso   1.000  N
  N26      1.0000 0.47409  0.81040  0.60952  Biso   1.000  N
  N27      1.0000 0.97409  0.68960  0.39048  Biso   1.000  N
  N28      1.0000 0.52591  0.31040  0.89048  Biso   1.000  N
  N29      1.0000 0.97409  0.81040  0.89048  Biso   1.000  N
  N30      1.0000 0.52591  0.18960  0.39048  Biso   1.000  N
  N31      1.0000 0.02591  0.31040  0.60952  Biso   1.000  N
  N32      1.0000 0.47409  0.68960  0.10952  Biso   1.000  N
  C1       1.0000 0.78120  0.54760  0.25710  Biso   1.000  C
  C2       1.0000 0.71880  0.45240  0.75710  Biso   1.000  C
  C3       1.0000 0.21880  0.04760  0.24290  Biso   1.000  C
  C4       1.0000 0.28120  0.95240  0.74290  Biso   1.000  C
  C5       1.0000 0.21880  0.45240  0.74290  Biso   1.000  C
  C6       1.0000 0.28120  0.54760  0.24290  Biso   1.000  C
  C7       1.0000 0.78120  0.95240  0.75710  Biso   1.000  C
  C8       1.0000 0.71880  0.04760  0.25710  Biso   1.000  C
  H33      1.0000 0.76210  0.62050  0.28050  Biso   1.000  H
  H34      1.0000 0.73790  0.37950  0.78050  Biso   1.000  H
  H35      1.0000 0.23790  0.12050  0.21950  Biso   1.000  H
  H36      1.0000 0.26210  0.87950  0.71950  Biso   1.000  H
  H37      1.0000 0.23790  0.37950  0.71950  Biso   1.000  H
  H38      1.0000 0.26210  0.62050  0.21950  Biso   1.000  H
  H39      1.0000 0.76210  0.87950  0.78050  Biso   1.000  H
  H40      1.0000 0.73790  0.12050  0.28050  Biso   1.000  H
  C9       1.0000 0.73890  0.47100  0.21860  Biso   1.000  C
  C10      1.0000 0.76110  0.52900  0.71860  Biso   1.000  C
  C11      1.0000 0.26110  0.97100  0.28140  Biso   1.000  C
  C12      1.0000 0.23890  0.02900  0.78140  Biso   1.000  C
  C13      1.0000 0.26110  0.52900  0.78140  Biso   1.000  C
  C14      1.0000 0.23890  0.47100  0.28140  Biso   1.000  C
  C15      1.0000 0.73890  0.02900  0.71860  Biso   1.000  C
  C16      1.0000 0.76110  0.97100  0.21860  Biso   1.000  C
  H41      1.0000 0.69180  0.49150  0.21520  Biso   1.000  H
  H42      1.0000 0.80820  0.50850  0.71520  Biso   1.000  H
  H43      1.0000 0.30820  0.99150  0.28480  Biso   1.000  H
  H44      1.0000 0.19180  0.00850  0.78480  Biso   1.000  H
  H45      1.0000 0.30820  0.50850  0.78480  Biso   1.000  H
  H46      1.0000 0.19180  0.49150  0.28480  Biso   1.000  H
  H47      1.0000 0.69180  0.00850  0.71520  Biso   1.000  H
  H48      1.0000 0.80820  0.99150  0.21520  Biso   1.000  H
  C17      1.0000 0.76650  0.36440  0.18520  Biso   1.000  C
  C18      1.0000 0.73350  0.63560  0.68520  Biso   1.000  C
  C19      1.0000 0.23350  0.86440  0.31480  Biso   1.000  C
  C20      1.0000 0.26650  0.13560  0.81480  Biso   1.000  C
  C21      1.0000 0.23350  0.63560  0.81480  Biso   1.000  C
  C22      1.0000 0.26650  0.36440  0.31480  Biso   1.000  C
  C23      1.0000 0.76650  0.13560  0.68520  Biso   1.000  C
  C24      1.0000 0.73350  0.86440  0.18520  Biso   1.000  C
  H49      1.0000 0.73830  0.30960  0.15900  Biso   1.000  H
  H50      1.0000 0.76170  0.69040  0.65900  Biso   1.000  H
  H51      1.0000 0.26170  0.80960  0.34100  Biso   1.000  H
  H52      1.0000 0.23830  0.19040  0.84100  Biso   1.000  H
  H53      1.0000 0.26170  0.69040  0.84100  Biso   1.000  H
  H54      1.0000 0.23830  0.30960  0.34100  Biso   1.000  H
  H55      1.0000 0.73830  0.19040  0.65900  Biso   1.000  H
  H56      1.0000 0.76170  0.80960  0.15900  Biso   1.000  H
  C25      1.0000 0.83570  0.33770  0.18997  Biso   1.000  C
  C26      1.0000 0.66430  0.66230  0.68997  Biso   1.000  C
  C27      1.0000 0.16430  0.83770  0.31003  Biso   1.000  C
  C28      1.0000 0.33570  0.16230  0.81003  Biso   1.000  C
  C29      1.0000 0.16430  0.66230  0.81003  Biso   1.000  C
  C30      1.0000 0.33570  0.33770  0.31003  Biso   1.000  C
  C31      1.0000 0.83570  0.16230  0.68997  Biso   1.000  C
  C32      1.0000 0.66430  0.83770  0.18997  Biso   1.000  C
  H57      1.0000 0.85550  0.26400  0.16758  Biso   1.000  H
  H58      1.0000 0.64450  0.73600  0.66758  Biso   1.000  H
  H59      1.0000 0.14450  0.76400  0.33242  Biso   1.000  H
  H60      1.0000 0.35550  0.23600  0.83242  Biso   1.000  H
  H61      1.0000 0.14450  0.73600  0.83242  Biso   1.000  H
  H62      1.0000 0.35550  0.26400  0.33242  Biso   1.000  H
  H63      1.0000 0.85550  0.23600  0.66758  Biso   1.000  H
  H64      1.0000 0.64450  0.76400  0.16758  Biso   1.000  H
  C33      1.0000 0.87550  0.42060  0.22809  Biso   1.000  C
  C34      1.0000 0.62450  0.57940  0.72809  Biso   1.000  C
  C35      1.0000 0.12450  0.92060  0.27191  Biso   1.000  C
  C36      1.0000 0.37550  0.07940  0.77191  Biso   1.000  C
  C37      1.0000 0.12450  0.57940  0.77191  Biso   1.000  C
  C38      1.0000 0.37550  0.42060  0.27191  Biso   1.000  C
  C39      1.0000 0.87550  0.07940  0.72809  Biso   1.000  C
  C40      1.0000 0.62450  0.92060  0.22809  Biso   1.000  C
  C41      1.0000 0.94925  0.39530  0.23984  Biso   1.000  C
  C42      1.0000 0.55075  0.60470  0.73984  Biso   1.000  C
  C43      1.0000 0.05075  0.89530  0.26016  Biso   1.000  C
  C44      1.0000 0.44925  0.10470  0.76016  Biso   1.000  C
  C45      1.0000 0.05075  0.60470  0.76016  Biso   1.000  C
  C46      1.0000 0.44925  0.39530  0.26016  Biso   1.000  C
  C47      1.0000 0.94925  0.10470  0.73984  Biso   1.000  C
  C48      1.0000 0.55075  0.89530  0.23984  Biso   1.000  C
  C49      1.0000 0.03150  0.40260  0.31921  Biso   1.000  C
  C50      1.0000 0.46850  0.59740  0.81921  Biso   1.000  C
  C51      1.0000 0.96850  0.90260  0.18079  Biso   1.000  C
  C52      1.0000 0.53150  0.09740  0.68079  Biso   1.000  C
  C53      1.0000 0.96850  0.59740  0.68079  Biso   1.000  C
  C54      1.0000 0.53150  0.40260  0.18079  Biso   1.000  C
  C55      1.0000 0.03150  0.09740  0.81921  Biso   1.000  C
  C56      1.0000 0.46850  0.90260  0.31921  Biso   1.000  C
  H65      1.0000 0.04920  0.44110  0.35727  Biso   1.000  H
  H66      1.0000 0.45080  0.55890  0.85727  Biso   1.000  H
  H67      1.0000 0.95080  0.94110  0.14273  Biso   1.000  H
  H68      1.0000 0.54920  0.05890  0.64273  Biso   1.000  H
  H69      1.0000 0.95080  0.55890  0.64273  Biso   1.000  H
  H70      1.0000 0.54920  0.44110  0.14273  Biso   1.000  H
  H71      1.0000 0.04920  0.05890  0.85727  Biso   1.000  H
  H72      1.0000 0.45080  0.94110  0.35727  Biso   1.000  H
  C57      1.0000 0.06790  0.30320  0.28730  Biso   1.000  C
  C58      1.0000 0.43210  0.69680  0.78730  Biso   1.000  C
  C59      1.0000 0.93210  0.80320  0.21270  Biso   1.000  C
  C60      1.0000 0.56790  0.19680  0.71270  Biso   1.000  C
  C61      1.0000 0.93210  0.69680  0.71270  Biso   1.000  C
  C62      1.0000 0.56790  0.30320  0.21270  Biso   1.000  C
  C63      1.0000 0.06790  0.19680  0.78730  Biso   1.000  C
  C64      1.0000 0.43210  0.80320  0.28730  Biso   1.000  C
  H73      1.0000 0.10550  0.26100  0.30770  Biso   1.000  H
  H74      1.0000 0.39450  0.73900  0.80770  Biso   1.000  H
  H75      1.0000 0.89450  0.76100  0.19230  Biso   1.000  H
  H76      1.0000 0.60550  0.23900  0.69230  Biso   1.000  H
  H77      1.0000 0.89450  0.73900  0.69230  Biso   1.000  H
  H78      1.0000 0.60550  0.26100  0.19230  Biso   1.000  H
  H79      1.0000 0.10550  0.23900  0.80770  Biso   1.000  H
  H80      1.0000 0.39450  0.76100  0.30770  Biso   1.000  H
  C65      1.0000 0.99385  0.31910  0.20149  Biso   1.000  C
  C66      1.0000 0.50615  0.68090  0.70149  Biso   1.000  C
  C67      1.0000 0.00615  0.81910  0.29851  Biso   1.000  C
  C68      1.0000 0.49385  0.18090  0.79851  Biso   1.000  C
  C69      1.0000 0.00615  0.68090  0.79851  Biso   1.000  C
  C70      1.0000 0.49385  0.31910  0.29851  Biso   1.000  C
  C71      1.0000 0.99385  0.18090  0.70149  Biso   1.000  C
  C72      1.0000 0.50615  0.81910  0.20149  Biso   1.000  C
  C73      1.0000 0.98822  0.29400  0.13166  Biso   1.000  C
  C74      1.0000 0.51178  0.70600  0.63166  Biso   1.000  C
  C75      1.0000 0.01178  0.79400  0.36834  Biso   1.000  C
  C76      1.0000 0.48822  0.20600  0.86834  Biso   1.000  C
  C77      1.0000 0.01178  0.70600  0.86834  Biso   1.000  C
  C78      1.0000 0.48822  0.29400  0.36834  Biso   1.000  C
  C79      1.0000 0.98822  0.20600  0.63166  Biso   1.000  C
  C80      1.0000 0.51178  0.79400  0.13166  Biso   1.000  C
  C81      1.0000 0.95260  0.37820  0.09050  Biso   1.000  C
  C82      1.0000 0.54740  0.62180  0.59050  Biso   1.000  C
  C83      1.0000 0.04740  0.87820  0.40950  Biso   1.000  C
  C84      1.0000 0.45260  0.12180  0.90950  Biso   1.000  C
  C85      1.0000 0.04740  0.62180  0.90950  Biso   1.000  C
  C86      1.0000 0.45260  0.37820  0.40950  Biso   1.000  C
  C87      1.0000 0.95260  0.12180  0.59050  Biso   1.000  C
  C88      1.0000 0.54740  0.87820  0.09050  Biso   1.000  C
  H81      1.0000 0.92810  0.45330  0.10680  Biso   1.000  H
  H82      1.0000 0.57190  0.54670  0.60680  Biso   1.000  H
  H83      1.0000 0.07190  0.95330  0.39320  Biso   1.000  H
  H84      1.0000 0.42810  0.04670  0.89320  Biso   1.000  H
  H85      1.0000 0.07190  0.54670  0.89320  Biso   1.000  H
  H86      1.0000 0.42810  0.45330  0.39320  Biso   1.000  H
  H87      1.0000 0.92810  0.04670  0.60680  Biso   1.000  H
  H88      1.0000 0.57190  0.95330  0.10680  Biso   1.000  H
  C89      1.0000 0.95310  0.35200  0.02580  Biso   1.000  C
  C90      1.0000 0.54690  0.64800  0.52580  Biso   1.000  C
  C91      1.0000 0.04690  0.85200  0.47420  Biso   1.000  C
  C92      1.0000 0.45310  0.14800  0.97420  Biso   1.000  C
  C93      1.0000 0.04690  0.64800  0.97420  Biso   1.000  C
  C94      1.0000 0.45310  0.35200  0.47420  Biso   1.000  C
  C95      1.0000 0.95310  0.14800  0.52580  Biso   1.000  C
  C96      1.0000 0.54690  0.85200  0.02580  Biso   1.000  C
  H89      1.0000 0.92920  0.40900  0.99700  Biso   1.000  H
  H90      1.0000 0.57080  0.59100  0.49700  Biso   1.000  H
  H91      1.0000 0.07080  0.90900  0.50300  Biso   1.000  H
  H92      1.0000 0.42920  0.09100  0.00300  Biso   1.000  H
  H93      1.0000 0.07080  0.59100  0.00300  Biso   1.000  H
  H94      1.0000 0.42920  0.40900  0.50300  Biso   1.000  H
  H95      1.0000 0.92920  0.09100  0.49700  Biso   1.000  H
  H96      1.0000 0.57080  0.90900  0.99700  Biso   1.000  H
  C97      1.0000 0.98910  0.24090  0.00370  Biso   1.000  C
  C98      1.0000 0.51090  0.75910  0.50370  Biso   1.000  C
  C99      1.0000 0.01090  0.74090  0.49630  Biso   1.000  C
  C100     1.0000 0.48910  0.25910  0.99630  Biso   1.000  C
  C101     1.0000 0.01090  0.75910  0.99630  Biso   1.000  C
  C102     1.0000 0.48910  0.24090  0.49630  Biso   1.000  C
  C103     1.0000 0.98910  0.25910  0.50370  Biso   1.000  C
  C104     1.0000 0.51090  0.74090  0.00370  Biso   1.000  C
  H97      1.0000 0.98880  0.21830  0.95970  Biso   1.000  H
  H98      1.0000 0.51120  0.78170  0.45970  Biso   1.000  H
  H99      1.0000 0.01120  0.71830  0.54030  Biso   1.000  H
  H100     1.0000 0.48880  0.28170  0.04030  Biso   1.000  H
  H101     1.0000 0.01120  0.78170  0.04030  Biso   1.000  H
  H102     1.0000 0.48880  0.21830  0.54030  Biso   1.000  H
  H103     1.0000 0.98880  0.28170  0.45970  Biso   1.000  H
  H104     1.0000 0.51120  0.71830  0.95970  Biso   1.000  H
  C105     1.0000 0.02550  0.16370  0.04640  Biso   1.000  C
  C106     1.0000 0.47450  0.83630  0.54640  Biso   1.000  C
  C107     1.0000 0.97450  0.66370  0.45360  Biso   1.000  C
  C108     1.0000 0.52550  0.33630  0.95360  Biso   1.000  C
  C109     1.0000 0.97450  0.83630  0.95360  Biso   1.000  C
  C110     1.0000 0.52550  0.16370  0.45360  Biso   1.000  C
  C111     1.0000 0.02550  0.33630  0.54640  Biso   1.000  C
  C112     1.0000 0.47450  0.66370  0.04640  Biso   1.000  C
  H105     1.0000 0.05120  0.08940  0.03090  Biso   1.000  H
  H106     1.0000 0.44880  0.91060  0.53090  Biso   1.000  H
  H107     1.0000 0.94880  0.58940  0.46910  Biso   1.000  H
  H108     1.0000 0.55120  0.41060  0.96910  Biso   1.000  H
  H109     1.0000 0.94880  0.91060  0.96910  Biso   1.000  H
  H110     1.0000 0.55120  0.08940  0.46910  Biso   1.000  H
  H111     1.0000 0.05120  0.41060  0.53090  Biso   1.000  H
  H112     1.0000 0.44880  0.58940  0.03090  Biso   1.000  H
  F1       1.0000 0.03968  0.64590  0.13631  Biso   1.000  F
  F2       1.0000 0.46032  0.35410  0.63631  Biso   1.000  F
  F3       1.0000 0.96032  0.14590  0.36369  Biso   1.000  F
  F4       1.0000 0.53968  0.85410  0.86369  Biso   1.000  F
  F5       1.0000 0.96032  0.35410  0.86369  Biso   1.000  F
  F6       1.0000 0.53968  0.64590  0.36369  Biso   1.000  F
  F7       1.0000 0.03968  0.85410  0.63631  Biso   1.000  F
  F8       1.0000 0.46032  0.14590  0.13631  Biso   1.000  F
  F9       1.0000 0.12870  0.50240  0.13041  Biso   1.000  F
  F10      1.0000 0.37130  0.49760  0.63041  Biso   1.000  F
  F11      1.0000 0.87130  0.00240  0.36959  Biso   1.000  F
  F12      1.0000 0.62870  0.99760  0.86959  Biso   1.000  F
  F13      1.0000 0.87130  0.49760  0.86959  Biso   1.000  F
  F14      1.0000 0.62870  0.50240  0.36959  Biso   1.000  F
  F15      1.0000 0.12870  0.99760  0.63041  Biso   1.000  F
  F16      1.0000 0.37130  0.00240  0.13041  Biso   1.000  F
  F17      1.0000 0.14684  0.72160  0.15620  Biso   1.000  F
  F18      1.0000 0.35316  0.27840  0.65620  Biso   1.000  F
  F19      1.0000 0.85316  0.22160  0.34380  Biso   1.000  F
  F20      1.0000 0.64684  0.77840  0.84380  Biso   1.000  F
  F21      1.0000 0.85316  0.27840  0.84380  Biso   1.000  F
  F22      1.0000 0.64684  0.72160  0.34380  Biso   1.000  F
  F23      1.0000 0.14684  0.77840  0.65620  Biso   1.000  F
  F24      1.0000 0.35316  0.22160  0.15620  Biso   1.000  F
  F25      1.0000 0.09334  0.58550  0.22617  Biso   1.000  F
  F26      1.0000 0.40666  0.41450  0.72617  Biso   1.000  F
  F27      1.0000 0.90666  0.08550  0.27383  Biso   1.000  F
  F28      1.0000 0.59334  0.91450  0.77383  Biso   1.000  F
  F29      1.0000 0.90666  0.41450  0.77383  Biso   1.000  F
  F30      1.0000 0.59334  0.58550  0.27383  Biso   1.000  F
  F31      1.0000 0.09334  0.91450  0.72617  Biso   1.000  F
  F32      1.0000 0.40666  0.08550  0.22617  Biso   1.000  F
  B1       1.0000 0.10110  0.61330  0.16230  Biso   1.000  B
  B2       1.0000 0.39890  0.38670  0.66230  Biso   1.000  B
  B3       1.0000 0.89890  0.11330  0.33770  Biso   1.000  B
  B4       1.0000 0.60110  0.88670  0.83770  Biso   1.000  B
  B5       1.0000 0.89890  0.38670  0.83770  Biso   1.000  B
  B6       1.0000 0.60110  0.61330  0.33770  Biso   1.000  B
  B7       1.0000 0.10110  0.88670  0.66230  Biso   1.000  B
  B8       1.0000 0.39890  0.11330  0.16230  Biso   1.000  B
  O17      1.0000 0.24929  0.09270  0.05468  Biso   1.000  O
  O18      1.0000 0.25071  0.90730  0.55468  Biso   1.000  O
  O19      1.0000 0.75071  0.59270  0.44532  Biso   1.000  O
  O20      1.0000 0.74929  0.40730  0.94532  Biso   1.000  O
  O21      1.0000 0.75071  0.90730  0.94532  Biso   1.000  O
  O22      1.0000 0.74929  0.09270  0.44532  Biso   1.000  O
  O23      1.0000 0.24929  0.40730  0.55468  Biso   1.000  O
  O24      1.0000 0.25071  0.59270  0.05468  Biso   1.000  O
  H113     1.0000 0.25354  0.10400  0.01528  Biso   1.000  H
  H114     1.0000 0.24646  0.89600  0.51528  Biso   1.000  H
  H115     1.0000 0.74646  0.60400  0.48472  Biso   1.000  H
  H116     1.0000 0.75354  0.39600  0.98472  Biso   1.000  H
  H117     1.0000 0.74646  0.89600  0.98472  Biso   1.000  H
  H118     1.0000 0.75354  0.10400  0.48472  Biso   1.000  H
  H119     1.0000 0.25354  0.39600  0.51528  Biso   1.000  H
  H120     1.0000 0.24646  0.60400  0.01528  Biso   1.000  H
  H121     1.0000 0.27754  0.02670  0.06782  Biso   1.000  H
  H122     1.0000 0.22246  0.97330  0.56782  Biso   1.000  H
  H123     1.0000 0.72246  0.52670  0.43218  Biso   1.000  H
  H124     1.0000 0.77754  0.47330  0.93218  Biso   1.000  H
  H125     1.0000 0.72246  0.97330  0.93218  Biso   1.000  H
  H126     1.0000 0.77754  0.02670  0.43218  Biso   1.000  H
  H127     1.0000 0.27754  0.47330  0.56782  Biso   1.000  H
  H128     1.0000 0.22246  0.52670  0.06782  Biso   1.000  H
  O25      1.0000 0.85920  0.07010  0.08770  Biso   1.000  O
  O26      1.0000 0.64080  0.92990  0.58770  Biso   1.000  O
  O27      1.0000 0.14080  0.57010  0.41230  Biso   1.000  O
  O28      1.0000 0.35920  0.42990  0.91230  Biso   1.000  O
  O29      1.0000 0.14080  0.92990  0.91230  Biso   1.000  O
  O30      1.0000 0.35920  0.07010  0.41230  Biso   1.000  O
  O31      1.0000 0.85920  0.42990  0.58770  Biso   1.000  O
  O32      1.0000 0.64080  0.57010  0.08770  Biso   1.000  O
  B9       1.0000 0.17468  0.31070  0.94702  Biso   1.000  B
  B10      1.0000 0.32532  0.68930  0.44702  Biso   1.000  B
  B11      1.0000 0.82532  0.81070  0.55298  Biso   1.000  B
  B12      1.0000 0.67468  0.18930  0.05298  Biso   1.000  B
  B13      1.0000 0.82532  0.68930  0.05298  Biso   1.000  B
  B14      1.0000 0.67468  0.31070  0.55298  Biso   1.000  B
  B15      1.0000 0.17468  0.18930  0.44702  Biso   1.000  B
  B16      1.0000 0.32532  0.81070  0.94702  Biso   1.000  B
  F33      1.0000 0.14040  0.18820  0.94520  Biso   1.000  F
  F34      1.0000 0.35960  0.81180  0.44520  Biso   1.000  F
  F35      1.0000 0.85960  0.68820  0.55480  Biso   1.000  F
  F36      1.0000 0.64040  0.31180  0.05480  Biso   1.000  F
  F37      1.0000 0.85960  0.81180  0.05480  Biso   1.000  F
  F38      1.0000 0.64040  0.18820  0.55480  Biso   1.000  F
  F39      1.0000 0.14040  0.31180  0.44520  Biso   1.000  F
  F40      1.0000 0.35960  0.68820  0.94520  Biso   1.000  F
  F41      1.0000 0.24370  0.28750  0.95430  Biso   1.000  F
  F42      1.0000 0.25630  0.71250  0.45430  Biso   1.000  F
  F43      1.0000 0.75630  0.78750  0.54570  Biso   1.000  F
  F44      1.0000 0.74370  0.21250  0.04570  Biso   1.000  F
  F45      1.0000 0.75630  0.71250  0.04570  Biso   1.000  F
  F46      1.0000 0.74370  0.28750  0.54570  Biso   1.000  F
  F47      1.0000 0.24370  0.21250  0.45430  Biso   1.000  F
  F48      1.0000 0.25630  0.78750  0.95430  Biso   1.000  F
  F49      1.0000 0.16360  0.38040  0.89020  Biso   1.000  F
  F50      1.0000 0.33640  0.61960  0.39020  Biso   1.000  F
  F51      1.0000 0.83640  0.88040  0.60980  Biso   1.000  F
  F52      1.0000 0.66360  0.11960  0.10980  Biso   1.000  F
  F53      1.0000 0.83640  0.61960  0.10980  Biso   1.000  F
  F54      1.0000 0.66360  0.38040  0.60980  Biso   1.000  F
  F55      1.0000 0.16360  0.11960  0.39020  Biso   1.000  F
  F56      1.0000 0.33640  0.88040  0.89020  Biso   1.000  F
  F57      1.0000 0.15110  0.38680  0.99820  Biso   1.000  F
  F58      1.0000 0.34890  0.61320  0.49820  Biso   1.000  F
  F59      1.0000 0.84890  0.88680  0.50180  Biso   1.000  F
  F60      1.0000 0.65110  0.11320  0.00180  Biso   1.000  F
  F61      1.0000 0.84890  0.61320  0.00180  Biso   1.000  F
  F62      1.0000 0.65110  0.38680  0.50180  Biso   1.000  F
  F63      1.0000 0.15110  0.11320  0.49820  Biso   1.000  F
  F64      1.0000 0.34890  0.88680  0.99820  Biso   1.000  F
  O33      1.0000 0.86490  0.98810  0.06760  Biso   1.000  O
  O34      1.0000 0.63510  0.01190  0.56760  Biso   1.000  O
  O35      1.0000 0.13510  0.48810  0.43240  Biso   1.000  O
  O36      1.0000 0.36490  0.51190  0.93240  Biso   1.000  O
  O37      1.0000 0.13510  0.01190  0.93240  Biso   1.000  O
  O38      1.0000 0.36490  0.98810  0.43240  Biso   1.000  O
  O39      1.0000 0.86490  0.51190  0.56760  Biso   1.000  O
  O40      1.0000 0.63510  0.48810  0.06760  Biso   1.000  O
  B17      1.0000 0.18660  0.36080  0.95020  Biso   1.000  B
  B18      1.0000 0.31340  0.63920  0.45020  Biso   1.000  B
  B19      1.0000 0.81340  0.86080  0.54980  Biso   1.000  B
  B20      1.0000 0.68660  0.13920  0.04980  Biso   1.000  B
  B21      1.0000 0.81340  0.63920  0.04980  Biso   1.000  B
  B22      1.0000 0.68660  0.36080  0.54980  Biso   1.000  B
  B23      1.0000 0.18660  0.13920  0.45020  Biso   1.000  B
  B24      1.0000 0.31340  0.86080  0.95020  Biso   1.000  B
  F65      1.0000 0.19520  0.49520  0.94410  Biso   1.000  F
  F66      1.0000 0.30480  0.50480  0.44410  Biso   1.000  F
  F67      1.0000 0.80480  0.99520  0.55590  Biso   1.000  F
  F68      1.0000 0.69520  0.00480  0.05590  Biso   1.000  F
  F69      1.0000 0.80480  0.50480  0.05590  Biso   1.000  F
  F70      1.0000 0.69520  0.49520  0.55590  Biso   1.000  F
  F71      1.0000 0.19520  0.00480  0.44410  Biso   1.000  F
  F72      1.0000 0.30480  0.99520  0.94410  Biso   1.000  F
  F73      1.0000 0.24740  0.29890  0.94780  Biso   1.000  F
  F74      1.0000 0.25260  0.70110  0.44780  Biso   1.000  F
  F75      1.0000 0.75260  0.79890  0.55220  Biso   1.000  F
  F76      1.0000 0.74740  0.20110  0.05220  Biso   1.000  F
  F77      1.0000 0.75260  0.70110  0.05220  Biso   1.000  F
  F78      1.0000 0.74740  0.29890  0.55220  Biso   1.000  F
  F79      1.0000 0.24740  0.20110  0.44780  Biso   1.000  F
  F80      1.0000 0.25260  0.79890  0.94780  Biso   1.000  F
  F81      1.0000 0.14700  0.31520  0.90220  Biso   1.000  F
  F82      1.0000 0.35300  0.68480  0.40220  Biso   1.000  F
  F83      1.0000 0.85300  0.81520  0.59780  Biso   1.000  F
  F84      1.0000 0.64700  0.18480  0.09780  Biso   1.000  F
  F85      1.0000 0.85300  0.68480  0.09780  Biso   1.000  F
  F86      1.0000 0.64700  0.31520  0.59780  Biso   1.000  F
  F87      1.0000 0.14700  0.18480  0.40220  Biso   1.000  F
  F88      1.0000 0.35300  0.81520  0.90220  Biso   1.000  F
  F89      1.0000 0.15670  0.33400  0.00690  Biso   1.000  F
  F90      1.0000 0.34330  0.66600  0.50690  Biso   1.000  F
  F91      1.0000 0.84330  0.83400  0.49310  Biso   1.000  F
  F92      1.0000 0.65670  0.16600  0.99310  Biso   1.000  F
  F93      1.0000 0.84330  0.66600  0.99310  Biso   1.000  F
  F94      1.0000 0.65670  0.33400  0.49310  Biso   1.000  F
  F95      1.0000 0.15670  0.16600  0.50690  Biso   1.000  F
  F96      1.0000 0.34330  0.83400  0.00690  Biso   1.000  F
