data_image0
_cell_length_a       22.212
_cell_length_b       11.1351
_cell_length_c       16.837
_cell_angle_alpha    90
_cell_angle_beta     90
_cell_angle_gamma    90

_symmetry_space_group_name_H-M    "P 1"
_symmetry_int_tables_number       1

loop_
  _symmetry_equiv_pos_as_xyz
  'x, y, z'

loop_
  _atom_site_label
  _atom_site_occupancy
  _atom_site_fract_x
  _atom_site_fract_y
  _atom_site_fract_z
  _atom_site_thermal_displace_type
  _atom_site_B_iso_or_equiv
  _atom_site_type_symbol
  Cu1      1.0000 0.24306  0.47669  0.12567  Biso   1.000  Cu
  Cu2      1.0000 0.25694  0.47669  0.62567  Biso   1.000  Cu
  Cu3      1.0000 0.74306  0.52331  0.12567  Biso   1.000  Cu
  Cu4      1.0000 0.75694  0.52331  0.62567  Biso   1.000  Cu
  O1       1.0000 0.24767  0.47583  0.26925  Biso   1.000  O
  O2       1.0000 0.25233  0.47583  0.76925  Biso   1.000  O
  O3       1.0000 0.74767  0.52417  0.26925  Biso   1.000  O
  O4       1.0000 0.75233  0.52417  0.76925  Biso   1.000  O
  H1       1.0000 0.21960  0.46700  0.30200  Biso   1.000  H
  H2       1.0000 0.28040  0.46700  0.80200  Biso   1.000  H
  H3       1.0000 0.71960  0.53300  0.30200  Biso   1.000  H
  H4       1.0000 0.78040  0.53300  0.80200  Biso   1.000  H
  H5       1.0000 0.27720  0.49100  0.29700  Biso   1.000  H
  H6       1.0000 0.22280  0.49100  0.79700  Biso   1.000  H
  H7       1.0000 0.77720  0.50900  0.29700  Biso   1.000  H
  H8       1.0000 0.72280  0.50900  0.79700  Biso   1.000  H
  O5       1.0000 0.24543  0.48134  0.98428  Biso   1.000  O
  O6       1.0000 0.25457  0.48134  0.48428  Biso   1.000  O
  O7       1.0000 0.74543  0.51866  0.98428  Biso   1.000  O
  O8       1.0000 0.75457  0.51866  0.48428  Biso   1.000  O
  H9       1.0000 0.27640  0.47600  0.95950  Biso   1.000  H
  H10      1.0000 0.22360  0.47600  0.45950  Biso   1.000  H
  H11      1.0000 0.77640  0.52400  0.95950  Biso   1.000  H
  H12      1.0000 0.72360  0.52400  0.45950  Biso   1.000  H
  H13      1.0000 0.21990  0.49600  0.94930  Biso   1.000  H
  H14      1.0000 0.28010  0.49600  0.44930  Biso   1.000  H
  H15      1.0000 0.71990  0.50400  0.94930  Biso   1.000  H
  H16      1.0000 0.78010  0.50400  0.44930  Biso   1.000  H
  N1       1.0000 0.33411  0.48407  0.12284  Biso   1.000  N
  N2       1.0000 0.16589  0.48407  0.62284  Biso   1.000  N
  N3       1.0000 0.83411  0.51593  0.12284  Biso   1.000  N
  N4       1.0000 0.66589  0.51593  0.62284  Biso   1.000  N
  N5       1.0000 0.24352  0.29359  0.12525  Biso   1.000  N
  N6       1.0000 0.25648  0.29359  0.62525  Biso   1.000  N
  N7       1.0000 0.74352  0.70641  0.12525  Biso   1.000  N
  N8       1.0000 0.75648  0.70641  0.62525  Biso   1.000  N
  N9       1.0000 0.65194  0.52600  0.12722  Biso   1.000  N
  N10      1.0000 0.84806  0.52600  0.62722  Biso   1.000  N
  N11      1.0000 0.15194  0.47400  0.12722  Biso   1.000  N
  N12      1.0000 0.34806  0.47400  0.62722  Biso   1.000  N
  N13      1.0000 0.23918  0.66010  0.12860  Biso   1.000  N
  N14      1.0000 0.26082  0.66010  0.62860  Biso   1.000  N
  N15      1.0000 0.73918  0.33990  0.12860  Biso   1.000  N
  N16      1.0000 0.76082  0.33990  0.62860  Biso   1.000  N
  C1       1.0000 0.36799  0.40760  0.16510  Biso   1.000  C
  C2       1.0000 0.13201  0.40760  0.66510  Biso   1.000  C
  C3       1.0000 0.86799  0.59240  0.16510  Biso   1.000  C
  C4       1.0000 0.63201  0.59240  0.66510  Biso   1.000  C
  H17      1.0000 0.34840  0.34690  0.19520  Biso   1.000  H
  H18      1.0000 0.15160  0.34690  0.69520  Biso   1.000  H
  H19      1.0000 0.84840  0.65310  0.19520  Biso   1.000  H
  H20      1.0000 0.65160  0.65310  0.69520  Biso   1.000  H
  C5       1.0000 0.43001  0.41336  0.16672  Biso   1.000  C
  C6       1.0000 0.06999  0.41336  0.66672  Biso   1.000  C
  C7       1.0000 0.93001  0.58664  0.16672  Biso   1.000  C
  C8       1.0000 0.56999  0.58664  0.66672  Biso   1.000  C
  H21      1.0000 0.45240  0.35620  0.19630  Biso   1.000  H
  H22      1.0000 0.04760  0.35620  0.69630  Biso   1.000  H
  H23      1.0000 0.95240  0.64380  0.19630  Biso   1.000  H
  H24      1.0000 0.54760  0.64380  0.69630  Biso   1.000  H
  C9       1.0000 0.45960  0.50371  0.12457  Biso   1.000  C
  C10      1.0000 0.04040  0.50371  0.62457  Biso   1.000  C
  C11      1.0000 0.95960  0.49629  0.12457  Biso   1.000  C
  C12      1.0000 0.54040  0.49629  0.62457  Biso   1.000  C
  C13      1.0000 0.42439  0.58278  0.07997  Biso   1.000  C
  C14      1.0000 0.07561  0.58278  0.57997  Biso   1.000  C
  C15      1.0000 0.92439  0.41722  0.07997  Biso   1.000  C
  C16      1.0000 0.57561  0.41722  0.57997  Biso   1.000  C
  H25      1.0000 0.44280  0.64500  0.04990  Biso   1.000  H
  H26      1.0000 0.05720  0.64500  0.54990  Biso   1.000  H
  H27      1.0000 0.94280  0.35500  0.04990  Biso   1.000  H
  H28      1.0000 0.55720  0.35500  0.54990  Biso   1.000  H
  C17      1.0000 0.36247  0.56971  0.07998  Biso   1.000  C
  C18      1.0000 0.13753  0.56971  0.57998  Biso   1.000  C
  C19      1.0000 0.86247  0.43029  0.07998  Biso   1.000  C
  C20      1.0000 0.63753  0.43029  0.57998  Biso   1.000  C
  H29      1.0000 0.33900  0.62300  0.04870  Biso   1.000  H
  H30      1.0000 0.16100  0.62300  0.54870  Biso   1.000  H
  H31      1.0000 0.83900  0.37700  0.04870  Biso   1.000  H
  H32      1.0000 0.66100  0.37700  0.54870  Biso   1.000  H
  C21      1.0000 0.25730  0.23070  0.06011  Biso   1.000  C
  C22      1.0000 0.24270  0.23070  0.56011  Biso   1.000  C
  C23      1.0000 0.75730  0.76930  0.06011  Biso   1.000  C
  C24      1.0000 0.74270  0.76930  0.56011  Biso   1.000  C
  H33      1.0000 0.26850  0.27290  0.01340  Biso   1.000  H
  H34      1.0000 0.23150  0.27290  0.51340  Biso   1.000  H
  H35      1.0000 0.76850  0.72710  0.01340  Biso   1.000  H
  H36      1.0000 0.73150  0.72710  0.51340  Biso   1.000  H
  C25      1.0000 0.25589  0.10594  0.05808  Biso   1.000  C
  C26      1.0000 0.24411  0.10594  0.55808  Biso   1.000  C
  C27      1.0000 0.75589  0.89406  0.05808  Biso   1.000  C
  C28      1.0000 0.74411  0.89406  0.55808  Biso   1.000  C
  H37      1.0000 0.26530  0.06420  0.01040  Biso   1.000  H
  H38      1.0000 0.23470  0.06420  0.51040  Biso   1.000  H
  H39      1.0000 0.76530  0.93580  0.01040  Biso   1.000  H
  H40      1.0000 0.73470  0.93580  0.51040  Biso   1.000  H
  C29      1.0000 0.24074  0.04329  0.12595  Biso   1.000  C
  C30      1.0000 0.25926  0.04329  0.62595  Biso   1.000  C
  C31      1.0000 0.74074  0.95671  0.12595  Biso   1.000  C
  C32      1.0000 0.75926  0.95671  0.62595  Biso   1.000  C
  C33      1.0000 0.22732  0.10778  0.19398  Biso   1.000  C
  C34      1.0000 0.27268  0.10778  0.69398  Biso   1.000  C
  C35      1.0000 0.72732  0.89222  0.19398  Biso   1.000  C
  C36      1.0000 0.77268  0.89222  0.69398  Biso   1.000  C
  H41      1.0000 0.21740  0.06730  0.24190  Biso   1.000  H
  H42      1.0000 0.28260  0.06730  0.74190  Biso   1.000  H
  H43      1.0000 0.71740  0.93270  0.24190  Biso   1.000  H
  H44      1.0000 0.78260  0.93270  0.74190  Biso   1.000  H
  C37      1.0000 0.22852  0.23251  0.19131  Biso   1.000  C
  C38      1.0000 0.27148  0.23251  0.69131  Biso   1.000  C
  C39      1.0000 0.72852  0.76749  0.19131  Biso   1.000  C
  C40      1.0000 0.77148  0.76749  0.69131  Biso   1.000  C
  H45      1.0000 0.21840  0.27630  0.23790  Biso   1.000  H
  H46      1.0000 0.28160  0.27630  0.73790  Biso   1.000  H
  H47      1.0000 0.71840  0.72370  0.23790  Biso   1.000  H
  H48      1.0000 0.78160  0.72370  0.73790  Biso   1.000  H
  C41      1.0000 0.62006  0.57669  0.06815  Biso   1.000  C
  C42      1.0000 0.87994  0.57669  0.56815  Biso   1.000  C
  C43      1.0000 0.12006  0.42331  0.06815  Biso   1.000  C
  C44      1.0000 0.37994  0.42331  0.56815  Biso   1.000  C
  H49      1.0000 0.64090  0.61750  0.02700  Biso   1.000  H
  H50      1.0000 0.85910  0.61750  0.52700  Biso   1.000  H
  H51      1.0000 0.14090  0.38250  0.02700  Biso   1.000  H
  H52      1.0000 0.35910  0.38250  0.52700  Biso   1.000  H
  C45      1.0000 0.55755  0.57128  0.06535  Biso   1.000  C
  C46      1.0000 0.94245  0.57128  0.56535  Biso   1.000  C
  C47      1.0000 0.05755  0.42872  0.06535  Biso   1.000  C
  C48      1.0000 0.44245  0.42872  0.56535  Biso   1.000  C
  H53      1.0000 0.53640  0.60630  0.02210  Biso   1.000  H
  H54      1.0000 0.96360  0.60630  0.52210  Biso   1.000  H
  H55      1.0000 0.03640  0.39370  0.02210  Biso   1.000  H
  H56      1.0000 0.46360  0.39370  0.52210  Biso   1.000  H
  C49      1.0000 0.52617  0.51442  0.12611  Biso   1.000  C
  C50      1.0000 0.97383  0.51442  0.62611  Biso   1.000  C
  C51      1.0000 0.02617  0.48558  0.12611  Biso   1.000  C
  C52      1.0000 0.47383  0.48558  0.62611  Biso   1.000  C
  C53      1.0000 0.55969  0.46501  0.18789  Biso   1.000  C
  C54      1.0000 0.94031  0.46501  0.68789  Biso   1.000  C
  C55      1.0000 0.05969  0.53499  0.18789  Biso   1.000  C
  C56      1.0000 0.44031  0.53499  0.68789  Biso   1.000  C
  H57      1.0000 0.53990  0.42700  0.23110  Biso   1.000  H
  H58      1.0000 0.96010  0.42700  0.73110  Biso   1.000  H
  H59      1.0000 0.03990  0.57300  0.23110  Biso   1.000  H
  H60      1.0000 0.46010  0.57300  0.73110  Biso   1.000  H
  C57      1.0000 0.62178  0.47134  0.18619  Biso   1.000  C
  C58      1.0000 0.87822  0.47134  0.68619  Biso   1.000  C
  C59      1.0000 0.12178  0.52866  0.18619  Biso   1.000  C
  C60      1.0000 0.37822  0.52866  0.68619  Biso   1.000  C
  H61      1.0000 0.64400  0.43570  0.22830  Biso   1.000  H
  H62      1.0000 0.85600  0.43570  0.72830  Biso   1.000  H
  H63      1.0000 0.14400  0.56430  0.22830  Biso   1.000  H
  H64      1.0000 0.35600  0.56430  0.72830  Biso   1.000  H
  C61      1.0000 0.26361  0.72259  0.18941  Biso   1.000  C
  C62      1.0000 0.23639  0.72259  0.68941  Biso   1.000  C
  C63      1.0000 0.76361  0.27741  0.18941  Biso   1.000  C
  C64      1.0000 0.73639  0.27741  0.68941  Biso   1.000  C
  H65      1.0000 0.28090  0.68000  0.23260  Biso   1.000  H
  H66      1.0000 0.21910  0.68000  0.73260  Biso   1.000  H
  H67      1.0000 0.78090  0.32000  0.23260  Biso   1.000  H
  H68      1.0000 0.71910  0.32000  0.73260  Biso   1.000  H
  C65      1.0000 0.26419  0.84781  0.19057  Biso   1.000  C
  C66      1.0000 0.23581  0.84781  0.69057  Biso   1.000  C
  C67      1.0000 0.76419  0.15219  0.19057  Biso   1.000  C
  C68      1.0000 0.73581  0.15219  0.69057  Biso   1.000  C
  H69      1.0000 0.28100  0.88980  0.23440  Biso   1.000  H
  H70      1.0000 0.21900  0.88980  0.73440  Biso   1.000  H
  H71      1.0000 0.78100  0.11020  0.23440  Biso   1.000  H
  H72      1.0000 0.71900  0.11020  0.73440  Biso   1.000  H
  C69      1.0000 0.23996  0.90999  0.12713  Biso   1.000  C
  C70      1.0000 0.26004  0.90999  0.62713  Biso   1.000  C
  C71      1.0000 0.73996  0.09001  0.12713  Biso   1.000  C
  C72      1.0000 0.76004  0.09001  0.62713  Biso   1.000  C
  C73      1.0000 0.21446  0.84553  0.06499  Biso   1.000  C
  C74      1.0000 0.28554  0.84553  0.56499  Biso   1.000  C
  C75      1.0000 0.71446  0.15447  0.06499  Biso   1.000  C
  C76      1.0000 0.78554  0.15447  0.56499  Biso   1.000  C
  H73      1.0000 0.19720  0.88600  0.02080  Biso   1.000  H
  H74      1.0000 0.30280  0.88600  0.52080  Biso   1.000  H
  H75      1.0000 0.69720  0.11400  0.02080  Biso   1.000  H
  H76      1.0000 0.80280  0.11400  0.52080  Biso   1.000  H
  C77      1.0000 0.21460  0.72066  0.06858  Biso   1.000  C
  C78      1.0000 0.28540  0.72066  0.56858  Biso   1.000  C
  C79      1.0000 0.71460  0.27934  0.06858  Biso   1.000  C
  C80      1.0000 0.78540  0.27934  0.56858  Biso   1.000  C
  H77      1.0000 0.19640  0.67680  0.02650  Biso   1.000  H
  H78      1.0000 0.30360  0.67680  0.52650  Biso   1.000  H
  H79      1.0000 0.69640  0.32320  0.02650  Biso   1.000  H
  H80      1.0000 0.80360  0.32320  0.52650  Biso   1.000  H
  S1       1.0000 0.16377  0.83430  0.41249  Biso   1.000  S
  S2       1.0000 0.33623  0.83430  0.91249  Biso   1.000  S
  S3       1.0000 0.66377  0.16570  0.41249  Biso   1.000  S
  S4       1.0000 0.83623  0.16570  0.91249  Biso   1.000  S
  F1       1.0000 0.07222  0.71660  0.35459  Biso   1.000  F
  F2       1.0000 0.42778  0.71660  0.85459  Biso   1.000  F
  F3       1.0000 0.57222  0.28340  0.35459  Biso   1.000  F
  F4       1.0000 0.92778  0.28340  0.85459  Biso   1.000  F
  F5       1.0000 0.12260  0.81440  0.26785  Biso   1.000  F
  F6       1.0000 0.37740  0.81440  0.76785  Biso   1.000  F
  F7       1.0000 0.62260  0.18560  0.26785  Biso   1.000  F
  F8       1.0000 0.87740  0.18560  0.76785  Biso   1.000  F
  F9       1.0000 0.06392  0.90840  0.34753  Biso   1.000  F
  F10      1.0000 0.43608  0.90840  0.84753  Biso   1.000  F
  F11      1.0000 0.56392  0.09160  0.34753  Biso   1.000  F
  F12      1.0000 0.93608  0.09160  0.84753  Biso   1.000  F
  O9       1.0000 0.18993  0.94786  0.39072  Biso   1.000  O
  O10      1.0000 0.31007  0.94786  0.89072  Biso   1.000  O
  O11      1.0000 0.68993  0.05214  0.39072  Biso   1.000  O
  O12      1.0000 0.81007  0.05214  0.89072  Biso   1.000  O
  O13      1.0000 0.20193  0.73353  0.39446  Biso   1.000  O
  O14      1.0000 0.29807  0.73353  0.89446  Biso   1.000  O
  O15      1.0000 0.70193  0.26647  0.39446  Biso   1.000  O
  O16      1.0000 0.79807  0.26647  0.89446  Biso   1.000  O
  O17      1.0000 0.13476  0.83081  0.48838  Biso   1.000  O
  O18      1.0000 0.36524  0.83081  0.98838  Biso   1.000  O
  O19      1.0000 0.63476  0.16919  0.48838  Biso   1.000  O
  O20      1.0000 0.86524  0.16919  0.98838  Biso   1.000  O
  C81      1.0000 0.10237  0.81840  0.34253  Biso   1.000  C
  C82      1.0000 0.39763  0.81840  0.84253  Biso   1.000  C
  C83      1.0000 0.60237  0.18160  0.34253  Biso   1.000  C
  C84      1.0000 0.89763  0.18160  0.84253  Biso   1.000  C
  S5       1.0000 0.37076  0.13819  0.34582  Biso   1.000  S
  S6       1.0000 0.12924  0.13819  0.84582  Biso   1.000  S
  S7       1.0000 0.87076  0.86181  0.34582  Biso   1.000  S
  S8       1.0000 0.62924  0.86181  0.84582  Biso   1.000  S
  F13      1.0000 0.45147  0.99565  0.40880  Biso   1.000  F
  F14      1.0000 0.04853  0.99565  0.90880  Biso   1.000  F
  F15      1.0000 0.95147  0.00435  0.40880  Biso   1.000  F
  F16      1.0000 0.54853  0.00435  0.90880  Biso   1.000  F
  F17      1.0000 0.37846  0.04093  0.48676  Biso   1.000  F
  F18      1.0000 0.12154  0.04093  0.98676  Biso   1.000  F
  F19      1.0000 0.87846  0.95907  0.48676  Biso   1.000  F
  F20      1.0000 0.62154  0.95907  0.98676  Biso   1.000  F
  F21      1.0000 0.44789  0.17060  0.46260  Biso   1.000  F
  F22      1.0000 0.05211  0.17060  0.96260  Biso   1.000  F
  F23      1.0000 0.94789  0.82940  0.46260  Biso   1.000  F
  F24      1.0000 0.55211  0.82940  0.96260  Biso   1.000  F
  O21      1.0000 0.32812  0.21956  0.38168  Biso   1.000  O
  O22      1.0000 0.17188  0.21956  0.88168  Biso   1.000  O
  O23      1.0000 0.82812  0.78044  0.38168  Biso   1.000  O
  O24      1.0000 0.67188  0.78044  0.88168  Biso   1.000  O
  O25      1.0000 0.34472  0.02956  0.31461  Biso   1.000  O
  O26      1.0000 0.15528  0.02956  0.81461  Biso   1.000  O
  O27      1.0000 0.84472  0.97044  0.31461  Biso   1.000  O
  O28      1.0000 0.65528  0.97044  0.81461  Biso   1.000  O
  O29      1.0000 0.41511  0.19436  0.29557  Biso   1.000  O
  O30      1.0000 0.08489  0.19436  0.79557  Biso   1.000  O
  O31      1.0000 0.91511  0.80564  0.29557  Biso   1.000  O
  O32      1.0000 0.58489  0.80564  0.79557  Biso   1.000  O
  C85      1.0000 0.41472  0.08354  0.42990  Biso   1.000  C
  C86      1.0000 0.08528  0.08354  0.92990  Biso   1.000  C
  C87      1.0000 0.91472  0.91646  0.42990  Biso   1.000  C
  C88      1.0000 0.58528  0.91646  0.92990  Biso   1.000  C
  O33      1.0000 0.15952  0.42260  0.38173  Biso   1.000  O
  O34      1.0000 0.34048  0.42260  0.88173  Biso   1.000  O
  O35      1.0000 0.65952  0.57740  0.38173  Biso   1.000  O
  O36      1.0000 0.84048  0.57740  0.88173  Biso   1.000  O
  H81      1.0000 0.16500  0.34700  0.37700  Biso   1.000  H
  H82      1.0000 0.33500  0.34700  0.87700  Biso   1.000  H
  H83      1.0000 0.66500  0.65300  0.37700  Biso   1.000  H
  H84      1.0000 0.83500  0.65300  0.87700  Biso   1.000  H
  H85      1.0000 0.12320  0.44200  0.38270  Biso   1.000  H
  H86      1.0000 0.37680  0.44200  0.88270  Biso   1.000  H
  H87      1.0000 0.62320  0.55800  0.38270  Biso   1.000  H
  H88      1.0000 0.87680  0.55800  0.88270  Biso   1.000  H
  O37      1.0000 0.32671  0.78949  0.37547  Biso   1.000  O
  O38      1.0000 0.17329  0.78949  0.87547  Biso   1.000  O
  O39      1.0000 0.82671  0.21051  0.37547  Biso   1.000  O
  O40      1.0000 0.67329  0.21051  0.87547  Biso   1.000  O
  H89      1.0000 0.29010  0.78500  0.37700  Biso   1.000  H
  H90      1.0000 0.20990  0.78500  0.87700  Biso   1.000  H
  H91      1.0000 0.79010  0.21500  0.37700  Biso   1.000  H
  H92      1.0000 0.70990  0.21500  0.87700  Biso   1.000  H
  H93      1.0000 0.33520  0.85420  0.35690  Biso   1.000  H
  H94      1.0000 0.16480  0.85420  0.85690  Biso   1.000  H
  H95      1.0000 0.83520  0.14580  0.35690  Biso   1.000  H
  H96      1.0000 0.66480  0.14580  0.85690  Biso   1.000  H
  O41      1.0000 0.16091  0.54460  0.87096  Biso   1.000  O
  O42      1.0000 0.33909  0.54460  0.37096  Biso   1.000  O
  O43      1.0000 0.66091  0.45540  0.87096  Biso   1.000  O
  O44      1.0000 0.83909  0.45540  0.37096  Biso   1.000  O
  H97      1.0000 0.15380  0.61740  0.87200  Biso   1.000  H
  H98      1.0000 0.34620  0.61740  0.37200  Biso   1.000  H
  H99      1.0000 0.65380  0.38260  0.87200  Biso   1.000  H
  H100     1.0000 0.84620  0.38260  0.37200  Biso   1.000  H
  H101     1.0000 0.12730  0.50900  0.87200  Biso   1.000  H
  H102     1.0000 0.37270  0.50900  0.37200  Biso   1.000  H
  H103     1.0000 0.62730  0.49100  0.87200  Biso   1.000  H
  H104     1.0000 0.87270  0.49100  0.37200  Biso   1.000  H
  O45      1.0000 0.05755  0.42236  0.87428  Biso   1.000  O
  O46      1.0000 0.44245  0.42236  0.37428  Biso   1.000  O
  O47      1.0000 0.55755  0.57764  0.87428  Biso   1.000  O
  O48      1.0000 0.94245  0.57764  0.37428  Biso   1.000  O
  H105     1.0000 0.02330  0.45800  0.87500  Biso   1.000  H
  H106     1.0000 0.47670  0.45800  0.37500  Biso   1.000  H
  H107     1.0000 0.52330  0.54200  0.87500  Biso   1.000  H
  H108     1.0000 0.97670  0.54200  0.37500  Biso   1.000  H
  H109     1.0000 0.05690  0.35700  0.85400  Biso   1.000  H
  H110     1.0000 0.44310  0.35700  0.35400  Biso   1.000  H
  H111     1.0000 0.55690  0.64300  0.85400  Biso   1.000  H
  H112     1.0000 0.94310  0.64300  0.35400  Biso   1.000  H
  O49      1.0000 0.96452  0.58289  0.87530  Biso   1.000  O
  O50      1.0000 0.53548  0.58289  0.37530  Biso   1.000  O
  O51      1.0000 0.46452  0.41711  0.87530  Biso   1.000  O
  O52      1.0000 0.03548  0.41711  0.37530  Biso   1.000  O
  H113     1.0000 0.98020  0.62900  0.84030  Biso   1.000  H
  H114     1.0000 0.51980  0.62900  0.34030  Biso   1.000  H
  H115     1.0000 0.48020  0.37100  0.84030  Biso   1.000  H
  H116     1.0000 0.01980  0.37100  0.34030  Biso   1.000  H
  H117     1.0000 0.97030  0.62500  0.91460  Biso   1.000  H
  H118     1.0000 0.52970  0.62500  0.41460  Biso   1.000  H
  H119     1.0000 0.47030  0.37500  0.91460  Biso   1.000  H
  H120     1.0000 0.02970  0.37500  0.41460  Biso   1.000  H
  O53      1.0000 0.20143  0.19356  0.37706  Biso   1.000  O
  O54      1.0000 0.29857  0.19356  0.87706  Biso   1.000  O
  O55      1.0000 0.70143  0.80644  0.37706  Biso   1.000  O
  O56      1.0000 0.79857  0.80644  0.87706  Biso   1.000  O
  H121     1.0000 0.24020  0.20000  0.37800  Biso   1.000  H
  H122     1.0000 0.25980  0.20000  0.87800  Biso   1.000  H
  H123     1.0000 0.74020  0.80000  0.37800  Biso   1.000  H
  H124     1.0000 0.75980  0.80000  0.87800  Biso   1.000  H
  H125     1.0000 0.19230  0.12180  0.37600  Biso   1.000  H
  H126     1.0000 0.30770  0.12180  0.87600  Biso   1.000  H
  H127     1.0000 0.69230  0.87820  0.37600  Biso   1.000  H
  H128     1.0000 0.80770  0.87820  0.87600  Biso   1.000  H
  N17      1.0000 0.98346  0.74740  0.99854  Biso   1.000  N
  N18      1.0000 0.51654  0.74740  0.49854  Biso   1.000  N
  N19      1.0000 0.48346  0.25260  0.99854  Biso   1.000  N
  N20      1.0000 0.01654  0.25260  0.49854  Biso   1.000  N
  N21      1.0000 0.01198  0.24590  0.25842  Biso   1.000  N
  N22      1.0000 0.48802  0.24590  0.75842  Biso   1.000  N
  N23      1.0000 0.51198  0.75410  0.25842  Biso   1.000  N
  N24      1.0000 0.98802  0.75410  0.75842  Biso   1.000  N
  C89      1.0000 0.03266  0.76400  0.04170  Biso   1.000  C
  C90      1.0000 0.46734  0.76400  0.54170  Biso   1.000  C
  C91      1.0000 0.53266  0.23600  0.04170  Biso   1.000  C
  C92      1.0000 0.96734  0.23600  0.54170  Biso   1.000  C
  H129     1.0000 0.06460  0.70790  0.03620  Biso   1.000  H
  H130     1.0000 0.43540  0.70790  0.53620  Biso   1.000  H
  H131     1.0000 0.56460  0.29210  0.03620  Biso   1.000  H
  H132     1.0000 0.93540  0.29210  0.53620  Biso   1.000  H
  C93      1.0000 0.04021  0.85860  0.09456  Biso   1.000  C
  C94      1.0000 0.45979  0.85860  0.59456  Biso   1.000  C
  C95      1.0000 0.54021  0.14140  0.09456  Biso   1.000  C
  C96      1.0000 0.95979  0.14140  0.59456  Biso   1.000  C
  H133     1.0000 0.07630  0.86580  0.12450  Biso   1.000  H
  H134     1.0000 0.42370  0.86580  0.62450  Biso   1.000  H
  H135     1.0000 0.57630  0.13420  0.12450  Biso   1.000  H
  H136     1.0000 0.92370  0.13420  0.62450  Biso   1.000  H
  C97      1.0000 0.99414  0.94307  0.10332  Biso   1.000  C
  C98      1.0000 0.50586  0.94307  0.60332  Biso   1.000  C
  C99      1.0000 0.49414  0.05693  0.10332  Biso   1.000  C
  C100     1.0000 0.00586  0.05693  0.60332  Biso   1.000  C
  C101     1.0000 0.94240  0.92570  0.05773  Biso   1.000  C
  C102     1.0000 0.55760  0.92570  0.55773  Biso   1.000  C
  C103     1.0000 0.44240  0.07430  0.05773  Biso   1.000  C
  C104     1.0000 0.05760  0.07430  0.55773  Biso   1.000  C
  H137     1.0000 0.90970  0.98030  0.06120  Biso   1.000  H
  H138     1.0000 0.59030  0.98030  0.56120  Biso   1.000  H
  H139     1.0000 0.40970  0.01970  0.06120  Biso   1.000  H
  H140     1.0000 0.09030  0.01970  0.56120  Biso   1.000  H
  C105     1.0000 0.93951  0.82750  0.00730  Biso   1.000  C
  C106     1.0000 0.56049  0.82750  0.50730  Biso   1.000  C
  C107     1.0000 0.43951  0.17250  0.00730  Biso   1.000  C
  C108     1.0000 0.06049  0.17250  0.50730  Biso   1.000  C
  H141     1.0000 0.90380  0.81670  0.97700  Biso   1.000  H
  H142     1.0000 0.59620  0.81670  0.47700  Biso   1.000  H
  H143     1.0000 0.40380  0.18330  0.97700  Biso   1.000  H
  H144     1.0000 0.09620  0.18330  0.47700  Biso   1.000  H
  C109     1.0000 0.05951  0.19800  0.22152  Biso   1.000  C
  C110     1.0000 0.44049  0.19800  0.72152  Biso   1.000  C
  C111     1.0000 0.55951  0.80200  0.22152  Biso   1.000  C
  C112     1.0000 0.94049  0.80200  0.72152  Biso   1.000  C
  H145     1.0000 0.09790  0.23300  0.23040  Biso   1.000  H
  H146     1.0000 0.40210  0.23300  0.73040  Biso   1.000  H
  H147     1.0000 0.59790  0.76700  0.23040  Biso   1.000  H
  H148     1.0000 0.90210  0.76700  0.73040  Biso   1.000  H
  C113     1.0000 0.05582  0.10030  0.17117  Biso   1.000  C
  C114     1.0000 0.44418  0.10030  0.67117  Biso   1.000  C
  C115     1.0000 0.55582  0.89970  0.17117  Biso   1.000  C
  C116     1.0000 0.94418  0.89970  0.67117  Biso   1.000  C
  H149     1.0000 0.09100  0.06980  0.14630  Biso   1.000  H
  H150     1.0000 0.40900  0.06980  0.64630  Biso   1.000  H
  H151     1.0000 0.59100  0.93020  0.14630  Biso   1.000  H
  H152     1.0000 0.90900  0.93020  0.64630  Biso   1.000  H
  C117     1.0000 0.00040  0.04690  0.15714  Biso   1.000  C
  C118     1.0000 0.49960  0.04690  0.65714  Biso   1.000  C
  C119     1.0000 0.50040  0.95310  0.15714  Biso   1.000  C
  C120     1.0000 0.99960  0.95310  0.65714  Biso   1.000  C
  C121     1.0000 0.95073  0.09620  0.19588  Biso   1.000  C
  C122     1.0000 0.54927  0.09620  0.69588  Biso   1.000  C
  C123     1.0000 0.45073  0.90380  0.19588  Biso   1.000  C
  C124     1.0000 0.04927  0.90380  0.69588  Biso   1.000  C
  H153     1.0000 0.91170  0.06330  0.18840  Biso   1.000  H
  H154     1.0000 0.58830  0.06330  0.68840  Biso   1.000  H
  H155     1.0000 0.41170  0.93670  0.18840  Biso   1.000  H
  H156     1.0000 0.08830  0.93670  0.68840  Biso   1.000  H
  C125     1.0000 0.95920  0.19390  0.24535  Biso   1.000  C
  C126     1.0000 0.54080  0.19390  0.74535  Biso   1.000  C
  C127     1.0000 0.45920  0.80610  0.24535  Biso   1.000  C
  C128     1.0000 0.04080  0.80610  0.74535  Biso   1.000  C
  H157     1.0000 0.92490  0.22590  0.27170  Biso   1.000  H
  H158     1.0000 0.57510  0.22590  0.77170  Biso   1.000  H
  H159     1.0000 0.42490  0.77410  0.27170  Biso   1.000  H
  H160     1.0000 0.07510  0.77410  0.77170  Biso   1.000  H
