data_image0
_cell_length_a       11.627
_cell_length_b       12.076
_cell_length_c       21.809
_cell_angle_alpha    105.123
_cell_angle_beta     90.52
_cell_angle_gamma    116.085

_symmetry_space_group_name_H-M    "P 1"
_symmetry_int_tables_number       1

loop_
  _symmetry_equiv_pos_as_xyz
  'x, y, z'

loop_
  _atom_site_label
  _atom_site_occupancy
  _atom_site_fract_x
  _atom_site_fract_y
  _atom_site_fract_z
  _atom_site_thermal_displace_type
  _atom_site_B_iso_or_equiv
  _atom_site_type_symbol
  Cu1      1.0000 0.33099  0.57295  0.47298  Biso   1.000  Cu
  Cu2      1.0000 0.66901  0.42705  0.52702  Biso   1.000  Cu
  Cl1      1.0000 0.40005  0.46566  0.39481  Biso   1.000  Cl
  Cl2      1.0000 0.59995  0.53434  0.60519  Biso   1.000  Cl
  Cl3      1.0000 0.21316  0.67636  0.50369  Biso   1.000  Cl
  Cl4      1.0000 0.78684  0.32364  0.49631  Biso   1.000  Cl
  O1       1.0000 0.52710  0.85120  0.35720  Biso   1.000  O
  O2       1.0000 0.47290  0.14880  0.64280  Biso   1.000  O
  O3       1.0000 0.79870  0.94300  0.34780  Biso   1.000  O
  O4       1.0000 0.20130  0.05700  0.65220  Biso   1.000  O
  H1       1.0000 0.72800  0.91400  0.35300  Biso   1.000  H
  H2       1.0000 0.27200  0.08600  0.64700  Biso   1.000  H
  O5       1.0000 0.93040  0.24400  0.36950  Biso   1.000  O
  O6       1.0000 0.06960  0.75600  0.63050  Biso   1.000  O
  O7       1.0000 0.63580  0.12000  0.35040  Biso   1.000  O
  O8       1.0000 0.36420  0.88000  0.64960  Biso   1.000  O
  H3       1.0000 0.70000  0.17700  0.36500  Biso   1.000  H
  H4       1.0000 0.30000  0.82300  0.63500  Biso   1.000  H
  C1       1.0000 0.44890  0.07070  0.28390  Biso   1.000  C
  C2       1.0000 0.55110  0.92930  0.71610  Biso   1.000  C
  C3       1.0000 0.38080  0.94650  0.29940  Biso   1.000  C
  C4       1.0000 0.61920  0.05350  0.70060  Biso   1.000  C
  H5       1.0000 0.28620  0.91400  0.29010  Biso   1.000  H
  H6       1.0000 0.71380  0.08600  0.70990  Biso   1.000  H
  H7       1.0000 0.40290  0.96140  0.34570  Biso   1.000  H
  H8       1.0000 0.59710  0.03860  0.65430  Biso   1.000  H
  C5       1.0000 0.41810  0.84520  0.26060  Biso   1.000  C
  C6       1.0000 0.58190  0.15480  0.73940  Biso   1.000  C
  C7       1.0000 0.39340  0.80290  0.19460  Biso   1.000  C
  C8       1.0000 0.60660  0.19710  0.80540  Biso   1.000  C
  H9       1.0000 0.35040  0.83670  0.17350  Biso   1.000  H
  H10      1.0000 0.64960  0.16330  0.82650  Biso   1.000  H
  C9       1.0000 0.42880  0.71200  0.15690  Biso   1.000  C
  C10      1.0000 0.57120  0.28800  0.84310  Biso   1.000  C
  C11      1.0000 0.49390  0.66590  0.18990  Biso   1.000  C
  C12      1.0000 0.50610  0.33410  0.81010  Biso   1.000  C
  H11      1.0000 0.51780  0.60330  0.16600  Biso   1.000  H
  H12      1.0000 0.48220  0.39670  0.83400  Biso   1.000  H
  C13      1.0000 0.52490  0.70930  0.25720  Biso   1.000  C
  C14      1.0000 0.47510  0.29070  0.74280  Biso   1.000  C
  C15      1.0000 0.61010  0.66960  0.28960  Biso   1.000  C
  C16      1.0000 0.38990  0.33040  0.71040  Biso   1.000  C
  H13      1.0000 0.57540  0.57470  0.27450  Biso   1.000  H
  H14      1.0000 0.42460  0.42530  0.72550  Biso   1.000  H
  H15      1.0000 0.61090  0.69590  0.33660  Biso   1.000  H
  H16      1.0000 0.38910  0.30410  0.66340  Biso   1.000  H
  C17      1.0000 0.74700  0.73370  0.27390  Biso   1.000  C
  C18      1.0000 0.25300  0.26630  0.72610  Biso   1.000  C
  C19      1.0000 0.78840  0.66250  0.22750  Biso   1.000  C
  C20      1.0000 0.21160  0.33750  0.77250  Biso   1.000  C
  H17      1.0000 0.73260  0.57290  0.20950  Biso   1.000  H
  H18      1.0000 0.26740  0.42710  0.79050  Biso   1.000  H
  C21      1.0000 0.90630  0.71470  0.20580  Biso   1.000  C
  C22      1.0000 0.09370  0.28530  0.79420  Biso   1.000  C
  C23      1.0000 0.98590  0.84680  0.23380  Biso   1.000  C
  C24      1.0000 0.01410  0.15320  0.76620  Biso   1.000  C
  H19      1.0000 0.06850  0.88580  0.22080  Biso   1.000  H
  H20      1.0000 0.93150  0.11420  0.77920  Biso   1.000  H
  C25      1.0000 0.94800  0.92310  0.28010  Biso   1.000  C
  C26      1.0000 0.05200  0.07690  0.71990  Biso   1.000  C
  C27      1.0000 0.02760  0.06900  0.30220  Biso   1.000  C
  C28      1.0000 0.97240  0.93100  0.69780  Biso   1.000  C
  H21      1.0000 0.11680  0.09300  0.29220  Biso   1.000  H
  H22      1.0000 0.88320  0.90700  0.70780  Biso   1.000  H
  H23      1.0000 0.03210  0.10150  0.34930  Biso   1.000  H
  H24      1.0000 0.96790  0.89850  0.65070  Biso   1.000  H
  C29      1.0000 0.96610  0.13080  0.26850  Biso   1.000  C
  C30      1.0000 0.03390  0.86920  0.73150  Biso   1.000  C
  C31      1.0000 0.94840  0.09820  0.20250  Biso   1.000  C
  C32      1.0000 0.05160  0.90180  0.79750  Biso   1.000  C
  H25      1.0000 0.97940  0.04140  0.17890  Biso   1.000  H
  H26      1.0000 0.02060  0.95860  0.82110  Biso   1.000  H
  C33      1.0000 0.88630  0.14570  0.16890  Biso   1.000  C
  C34      1.0000 0.11370  0.85430  0.83110  Biso   1.000  C
  C35      1.0000 0.84300  0.22840  0.20490  Biso   1.000  C
  C36      1.0000 0.15700  0.77160  0.79510  Biso   1.000  C
  H27      1.0000 0.80150  0.26280  0.18320  Biso   1.000  H
  H28      1.0000 0.19850  0.73720  0.81680  Biso   1.000  H
  C37      1.0000 0.85800  0.26330  0.27160  Biso   1.000  C
  C38      1.0000 0.14200  0.73670  0.72840  Biso   1.000  C
  C39      1.0000 0.79170  0.34220  0.30720  Biso   1.000  C
  C40      1.0000 0.20830  0.65780  0.69280  Biso   1.000  C
  H29      1.0000 0.81360  0.36330  0.35410  Biso   1.000  H
  H30      1.0000 0.18640  0.63670  0.64590  Biso   1.000  H
  H31      1.0000 0.82260  0.42410  0.29610  Biso   1.000  H
  H32      1.0000 0.17740  0.57590  0.70390  Biso   1.000  H
  C41      1.0000 0.64840  0.26520  0.28820  Biso   1.000  C
  C42      1.0000 0.35160  0.73480  0.71180  Biso   1.000  C
  C43      1.0000 0.58020  0.28930  0.24480  Biso   1.000  C
  C44      1.0000 0.41980  0.71070  0.75520  Biso   1.000  C
  H33      1.0000 0.62480  0.36480  0.23180  Biso   1.000  H
  H34      1.0000 0.37520  0.63520  0.76820  Biso   1.000  H
  C45      1.0000 0.45030  0.20900  0.21920  Biso   1.000  C
  C46      1.0000 0.54970  0.79100  0.78080  Biso   1.000  C
  C47      1.0000 0.38770  0.10040  0.24050  Biso   1.000  C
  C48      1.0000 0.61230  0.89960  0.75950  Biso   1.000  C
  H35      1.0000 0.29890  0.04420  0.22450  Biso   1.000  H
  H36      1.0000 0.70110  0.95580  0.77550  Biso   1.000  H
  C49      1.0000 0.48550  0.79930  0.29110  Biso   1.000  C
  C50      1.0000 0.51450  0.20070  0.70890  Biso   1.000  C
  C51      1.0000 0.82850  0.86590  0.30070  Biso   1.000  C
  C52      1.0000 0.17150  0.13410  0.69930  Biso   1.000  C
  C53      1.0000 0.92070  0.21520  0.30250  Biso   1.000  C
  C54      1.0000 0.07930  0.78480  0.69750  Biso   1.000  C
  C55      1.0000 0.57960  0.15660  0.30900  Biso   1.000  C
  C56      1.0000 0.42040  0.84340  0.69100  Biso   1.000  C
  C57      1.0000 0.40210  0.66290  0.08380  Biso   1.000  C
  C58      1.0000 0.59790  0.33710  0.91620  Biso   1.000  C
  C59      1.0000 0.52500  0.67140  0.05650  Biso   1.000  C
  C60      1.0000 0.47500  0.32860  0.94350  Biso   1.000  C
  H37      1.0000 0.55310  0.61590  0.07120  Biso   1.000  H
  H38      1.0000 0.44690  0.38410  0.92880  Biso   1.000  H
  H39      1.0000 0.59330  0.76090  0.07120  Biso   1.000  H
  H40      1.0000 0.40670  0.23910  0.92880  Biso   1.000  H
  H41      1.0000 0.50760  0.64290  0.00950  Biso   1.000  H
  H42      1.0000 0.49240  0.35710  0.99050  Biso   1.000  H
  C61      1.0000 0.29720  0.52290  0.06320  Biso   1.000  C
  C62      1.0000 0.70280  0.47710  0.93680  Biso   1.000  C
  H43      1.0000 0.32640  0.47030  0.07990  Biso   1.000  H
  H44      1.0000 0.67360  0.52970  0.92010  Biso   1.000  H
  H45      1.0000 0.27980  0.49050  0.01620  Biso   1.000  H
  H46      1.0000 0.72020  0.50950  0.98380  Biso   1.000  H
  H47      1.0000 0.21790  0.51800  0.08020  Biso   1.000  H
  H48      1.0000 0.78210  0.48200  0.91980  Biso   1.000  H
  C63      1.0000 0.35680  0.74380  0.05570  Biso   1.000  C
  C64      1.0000 0.64320  0.25620  0.94430  Biso   1.000  C
  H49      1.0000 0.27020  0.72810  0.06600  Biso   1.000  H
  H50      1.0000 0.72980  0.27190  0.93400  Biso   1.000  H
  H51      1.0000 0.35420  0.71920  0.00890  Biso   1.000  H
  H52      1.0000 0.64580  0.28080  0.99110  Biso   1.000  H
  H53      1.0000 0.41720  0.83550  0.07400  Biso   1.000  H
  H54      1.0000 0.58280  0.16450  0.92600  Biso   1.000  H
  C65      1.0000 0.95090  0.63380  0.15490  Biso   1.000  C
  C66      1.0000 0.04910  0.36620  0.84510  Biso   1.000  C
  C67      1.0000 0.83830  0.50360  0.11810  Biso   1.000  C
  C68      1.0000 0.16170  0.49640  0.88190  Biso   1.000  C
  H55      1.0000 0.77160  0.51790  0.09860  Biso   1.000  H
  H56      1.0000 0.22840  0.48210  0.90140  Biso   1.000  H
  H57      1.0000 0.80140  0.45260  0.14760  Biso   1.000  H
  H58      1.0000 0.19860  0.54740  0.85240  Biso   1.000  H
  H59      1.0000 0.86970  0.45710  0.08430  Biso   1.000  H
  H60      1.0000 0.13030  0.54290  0.91570  Biso   1.000  H
  C69      1.0000 0.01210  0.70530  0.10590  Biso   1.000  C
  C70      1.0000 0.98790  0.29470  0.89410  Biso   1.000  C
  H61      1.0000 0.94890  0.72280  0.08550  Biso   1.000  H
  H62      1.0000 0.05110  0.27720  0.91450  Biso   1.000  H
  H63      1.0000 0.03850  0.65190  0.07300  Biso   1.000  H
  H64      1.0000 0.96150  0.34810  0.92700  Biso   1.000  H
  H65      1.0000 0.08800  0.78700  0.12770  Biso   1.000  H
  H66      1.0000 0.91200  0.21300  0.87230  Biso   1.000  H
  C71      1.0000 0.05120  0.60930  0.18940  Biso   1.000  C
  C72      1.0000 0.94880  0.39070  0.81060  Biso   1.000  C
  H67      1.0000 0.11910  0.69160  0.21670  Biso   1.000  H
  H68      1.0000 0.88090  0.30840  0.78330  Biso   1.000  H
  H69      1.0000 0.08980  0.56800  0.15730  Biso   1.000  H
  H70      1.0000 0.91020  0.43200  0.84270  Biso   1.000  H
  H71      1.0000 0.00780  0.55270  0.21580  Biso   1.000  H
  H72      1.0000 0.99220  0.44730  0.78420  Biso   1.000  H
  C73      1.0000 0.86820  0.10840  0.09470  Biso   1.000  C
  C74      1.0000 0.13180  0.89160  0.90530  Biso   1.000  C
  C75      1.0000 0.88380  0.98740  0.06500  Biso   1.000  C
  C76      1.0000 0.11620  0.01260  0.93500  Biso   1.000  C
  H73      1.0000 0.97170  0.00360  0.07870  Biso   1.000  H
  H74      1.0000 0.02830  0.99640  0.92130  Biso   1.000  H
  H75      1.0000 0.86860  0.96500  0.01810  Biso   1.000  H
  H76      1.0000 0.13140  0.03500  0.98190  Biso   1.000  H
  H77      1.0000 0.82110  0.91590  0.07900  Biso   1.000  H
  H78      1.0000 0.17890  0.08410  0.92100  Biso   1.000  H
  C77      1.0000 0.73150  0.08010  0.07010  Biso   1.000  C
  C78      1.0000 0.26850  0.91990  0.92990  Biso   1.000  C
  H79      1.0000 0.72080  0.15840  0.08570  Biso   1.000  H
  H80      1.0000 0.27920  0.84160  0.91430  Biso   1.000  H
  H81      1.0000 0.66800  0.01170  0.08580  Biso   1.000  H
  H82      1.0000 0.33200  0.98830  0.91420  Biso   1.000  H
  H83      1.0000 0.71790  0.05210  0.02310  Biso   1.000  H
  H84      1.0000 0.28210  0.94790  0.97690  Biso   1.000  H
  C79      1.0000 0.96800  0.21930  0.07410  Biso   1.000  C
  C80      1.0000 0.03200  0.78070  0.92590  Biso   1.000  C
  H85      1.0000 0.96010  0.29790  0.09400  Biso   1.000  H
  H86      1.0000 0.03990  0.70210  0.90600  Biso   1.000  H
  H87      1.0000 0.95350  0.19890  0.02730  Biso   1.000  H
  H88      1.0000 0.04650  0.80110  0.97270  Biso   1.000  H
  H89      1.0000 0.05490  0.23280  0.08780  Biso   1.000  H
  H90      1.0000 0.94510  0.76720  0.91220  Biso   1.000  H
  C81      1.0000 0.37740  0.23630  0.17060  Biso   1.000  C
  C82      1.0000 0.62260  0.76370  0.82940  Biso   1.000  C
  C83      1.0000 0.27320  0.11010  0.12430  Biso   1.000  C
  C84      1.0000 0.72680  0.88990  0.87570  Biso   1.000  C
  H91      1.0000 0.31370  0.05820  0.10170  Biso   1.000  H
  H92      1.0000 0.68630  0.94180  0.89830  Biso   1.000  H
  H93      1.0000 0.22990  0.13000  0.09310  Biso   1.000  H
  H94      1.0000 0.77010  0.87000  0.90690  Biso   1.000  H
  H95      1.0000 0.20950  0.06170  0.14870  Biso   1.000  H
  H96      1.0000 0.79050  0.93830  0.85130  Biso   1.000  H
  C85      1.0000 0.31240  0.31670  0.20760  Biso   1.000  C
  C86      1.0000 0.68760  0.68330  0.79240  Biso   1.000  C
  H97      1.0000 0.37930  0.40090  0.23390  Biso   1.000  H
  H98      1.0000 0.62070  0.59910  0.76610  Biso   1.000  H
  H99      1.0000 0.25650  0.27080  0.23530  Biso   1.000  H
  H100     1.0000 0.74350  0.72920  0.76470  Biso   1.000  H
  H101     1.0000 0.26040  0.32900  0.17680  Biso   1.000  H
  H102     1.0000 0.73960  0.67100  0.82320  Biso   1.000  H
  C87      1.0000 0.46940  0.31320  0.13050  Biso   1.000  C
  C88      1.0000 0.53060  0.68680  0.86950  Biso   1.000  C
  H103     1.0000 0.51440  0.26570  0.10840  Biso   1.000  H
  H104     1.0000 0.48560  0.73430  0.89160  Biso   1.000  H
  H105     1.0000 0.53280  0.39730  0.15860  Biso   1.000  H
  H106     1.0000 0.46720  0.60270  0.84140  Biso   1.000  H
  H107     1.0000 0.41980  0.32590  0.09880  Biso   1.000  H
  H108     1.0000 0.58020  0.67410  0.90120  Biso   1.000  H
  N1       1.0000 0.49540  0.73890  0.49380  Biso   1.000  N
  N2       1.0000 0.50460  0.26110  0.50620  Biso   1.000  N
  C89      1.0000 0.52900  0.82480  0.46070  Biso   1.000  C
  C90      1.0000 0.47100  0.17520  0.53930  Biso   1.000  C
  C91      1.0000 0.63520  0.94430  0.48170  Biso   1.000  C
  C92      1.0000 0.36480  0.05570  0.51830  Biso   1.000  C
  H109     1.0000 0.65520  0.00360  0.45740  Biso   1.000  H
  H110     1.0000 0.34480  0.99640  0.54260  Biso   1.000  H
  C93      1.0000 0.71280  0.97730  0.53890  Biso   1.000  C
  C94      1.0000 0.28720  0.02270  0.46110  Biso   1.000  C
  H111     1.0000 0.78500  0.06020  0.55490  Biso   1.000  H
  H112     1.0000 0.21500  0.93980  0.44510  Biso   1.000  H
  C95      1.0000 0.68310  0.88850  0.57130  Biso   1.000  C
  C96      1.0000 0.31690  0.11150  0.42870  Biso   1.000  C
  H113     1.0000 0.73800  0.90670  0.60890  Biso   1.000  H
  H114     1.0000 0.26200  0.09330  0.39110  Biso   1.000  H
  C97      1.0000 0.57280  0.77170  0.54930  Biso   1.000  C
  C98      1.0000 0.42720  0.22830  0.45070  Biso   1.000  C
  H115     1.0000 0.55030  0.71250  0.57380  Biso   1.000  H
  H116     1.0000 0.44970  0.28750  0.42620  Biso   1.000  H
  C99      1.0000 0.44540  0.78190  0.39660  Biso   1.000  C
  C100     1.0000 0.55460  0.21810  0.60340  Biso   1.000  C
  H117     1.0000 0.41110  0.68780  0.37660  Biso   1.000  H
  H118     1.0000 0.58890  0.31220  0.62340  Biso   1.000  H
  H119     1.0000 0.37170  0.80190  0.40270  Biso   1.000  H
  H120     1.0000 0.62830  0.19810  0.59730  Biso   1.000  H
  N3       1.0000 0.20870  0.41420  0.49420  Biso   1.000  N
  N4       1.0000 0.79130  0.58580  0.50580  Biso   1.000  N
  C101     1.0000 0.09350  0.32350  0.46080  Biso   1.000  C
  C102     1.0000 0.90650  0.67650  0.53920  Biso   1.000  C
  C103     1.0000 0.02170  0.21220  0.47780  Biso   1.000  C
  C104     1.0000 0.97830  0.78780  0.52220  Biso   1.000  C
  H121     1.0000 0.94180  0.14840  0.45230  Biso   1.000  H
  H122     1.0000 0.05820  0.85160  0.54770  Biso   1.000  H
  C105     1.0000 0.06510  0.19320  0.53130  Biso   1.000  C
  C106     1.0000 0.93490  0.80680  0.46870  Biso   1.000  C
  H123     1.0000 0.01640  0.11740  0.54350  Biso   1.000  H
  H124     1.0000 0.98360  0.88260  0.45650  Biso   1.000  H
  C107     1.0000 0.18100  0.28760  0.56630  Biso   1.000  C
  C108     1.0000 0.81900  0.71240  0.43370  Biso   1.000  C
  H125     1.0000 0.21310  0.27830  0.60380  Biso   1.000  H
  H126     1.0000 0.78690  0.72170  0.39620  Biso   1.000  H
  C109     1.0000 0.25050  0.39460  0.54780  Biso   1.000  C
  C110     1.0000 0.74950  0.60540  0.45220  Biso   1.000  C
  H127     1.0000 0.33100  0.45820  0.57280  Biso   1.000  H
  H128     1.0000 0.66900  0.54180  0.42720  Biso   1.000  H
  C111     1.0000 0.05070  0.34940  0.40330  Biso   1.000  C
  C112     1.0000 0.94930  0.65060  0.59670  Biso   1.000  C
  H129     1.0000 0.04090  0.42920  0.41730  Biso   1.000  H
  H130     1.0000 0.95910  0.57080  0.58270  Biso   1.000  H
  H131     1.0000 0.11750  0.36260  0.37430  Biso   1.000  H
  H132     1.0000 0.88250  0.63740  0.62570  Biso   1.000  H
