data_image0
_cell_length_a       10.286
_cell_length_b       4.9537
_cell_length_c       16.494
_cell_angle_alpha    90
_cell_angle_beta     91.21
_cell_angle_gamma    90

_symmetry_space_group_name_H-M    "P 1"
_symmetry_int_tables_number       1

loop_
  _symmetry_equiv_pos_as_xyz
  'x, y, z'

loop_
  _atom_site_label
  _atom_site_occupancy
  _atom_site_fract_x
  _atom_site_fract_y
  _atom_site_fract_z
  _atom_site_thermal_displace_type
  _atom_site_B_iso_or_equiv
  _atom_site_type_symbol
  C1       1.0000 0.06260  0.99380  0.72890  Biso   1.000  C
  C2       1.0000 0.93740  0.49380  0.27110  Biso   1.000  C
  C3       1.0000 0.16100  0.16610  0.75910  Biso   1.000  C
  C4       1.0000 0.83900  0.66610  0.24090  Biso   1.000  C
  C5       1.0000 0.20430  0.14860  0.84420  Biso   1.000  C
  C6       1.0000 0.79570  0.64860  0.15580  Biso   1.000  C
  C7       1.0000 0.30010  0.31130  0.87920  Biso   1.000  C
  C8       1.0000 0.69990  0.81130  0.12080  Biso   1.000  C
  H1       1.0000 0.34160  0.43950  0.84770  Biso   1.000  H
  H2       1.0000 0.65840  0.93950  0.15230  Biso   1.000  H
  C9       1.0000 0.33450  0.28510  0.96020  Biso   1.000  C
  C10      1.0000 0.66550  0.78510  0.03980  Biso   1.000  C
  H3       1.0000 0.39890  0.39680  0.98210  Biso   1.000  H
  H4       1.0000 0.60110  0.89680  0.01790  Biso   1.000  H
  C11      1.0000 0.27710  0.10100  0.00880  Biso   1.000  C
  C12      1.0000 0.72290  0.60100  0.99120  Biso   1.000  C
  H5       1.0000 0.30290  0.08610  0.06300  Biso   1.000  H
  H6       1.0000 0.69710  0.58610  0.93700  Biso   1.000  H
  C13      1.0000 0.18210  0.93930  0.97810  Biso   1.000  C
  C14      1.0000 0.81790  0.43930  0.02190  Biso   1.000  C
  H7       1.0000 0.14110  0.81700  0.01180  Biso   1.000  H
  H8       1.0000 0.85890  0.31700  0.98820  Biso   1.000  H
  C15      1.0000 0.14410  0.95430  0.89390  Biso   1.000  C
  C16      1.0000 0.85590  0.45430  0.10610  Biso   1.000  C
  C17      1.0000 0.04850  0.78640  0.86120  Biso   1.000  C
  C18      1.0000 0.95150  0.28640  0.13880  Biso   1.000  C
  H9       1.0000 0.00990  0.65980  0.89470  Biso   1.000  H
  H10      1.0000 0.99010  0.15980  0.10530  Biso   1.000  H
  C19      1.0000 0.00910  0.80010  0.78160  Biso   1.000  C
  C20      1.0000 0.99090  0.30010  0.21840  Biso   1.000  C
  H11      1.0000 0.94630  0.68060  0.76190  Biso   1.000  H
  H12      1.0000 0.05370  0.18060  0.23810  Biso   1.000  H
  C21      1.0000 0.22070  0.36040  0.70950  Biso   1.000  C
  C22      1.0000 0.77930  0.86040  0.29050  Biso   1.000  C
  H13      1.0000 0.28870  0.45990  0.73260  Biso   1.000  H
  H14      1.0000 0.71130  0.95990  0.26740  Biso   1.000  H
  C23      1.0000 0.26310  0.61710  0.59050  Biso   1.000  C
  C24      1.0000 0.73690  0.11710  0.40950  Biso   1.000  C
  H15      1.0000 0.28680  0.76490  0.62740  Biso   1.000  H
  H16      1.0000 0.71320  0.26490  0.37260  Biso   1.000  H
  C25      1.0000 0.38510  0.49540  0.55650  Biso   1.000  C
  C26      1.0000 0.61490  0.99540  0.44350  Biso   1.000  C
  H17      1.0000 0.44380  0.44800  0.60030  Biso   1.000  H
  H18      1.0000 0.55620  0.94800  0.39970  Biso   1.000  H
  H19      1.0000 0.42600  0.62420  0.52190  Biso   1.000  H
  H20      1.0000 0.57400  0.12420  0.47810  Biso   1.000  H
  H21      1.0000 0.36300  0.33650  0.52590  Biso   1.000  H
  H22      1.0000 0.63700  0.83650  0.47410  Biso   1.000  H
  C27      1.0000 0.17590  0.72560  0.52190  Biso   1.000  C
  C28      1.0000 0.82410  0.22560  0.47810  Biso   1.000  C
  Cu1      1.0000 0.05001  0.25522  0.57302  Biso   1.000  Cu
  Cu2      1.0000 0.94999  0.75522  0.42698  Biso   1.000  Cu
  N1       1.0000 0.18920  0.41220  0.63461  Biso   1.000  N
  N2       1.0000 0.81080  0.91220  0.36539  Biso   1.000  N
  O1       1.0000 0.01540  0.99830  0.65415  Biso   1.000  O
  O2       1.0000 0.98460  0.49830  0.34585  Biso   1.000  O
  O3       1.0000 0.07580  0.57640  0.50205  Biso   1.000  O
  O4       1.0000 0.92420  0.07640  0.49795  Biso   1.000  O
  O5       1.0000 0.20080  0.93770  0.48807  Biso   1.000  O
  O6       1.0000 0.79920  0.43770  0.51193  Biso   1.000  O
  C29      1.0000 0.54330  0.88900  0.78130  Biso   1.000  C
  C30      1.0000 0.45670  0.38900  0.21870  Biso   1.000  C
  H23      1.0000 0.52650  0.92030  0.83570  Biso   1.000  H
  H24      1.0000 0.47350  0.42030  0.16430  Biso   1.000  H
  C31      1.0000 0.67120  0.97800  0.66710  Biso   1.000  C
  C32      1.0000 0.32880  0.47800  0.33290  Biso   1.000  C
  H25      1.0000 0.71670  0.80940  0.66320  Biso   1.000  H
  H26      1.0000 0.28330  0.30940  0.33680  Biso   1.000  H
  H27      1.0000 0.72530  0.12100  0.64770  Biso   1.000  H
  H28      1.0000 0.27470  0.62100  0.35230  Biso   1.000  H
  H29      1.0000 0.59260  0.97000  0.63480  Biso   1.000  H
  H30      1.0000 0.40740  0.47000  0.36520  Biso   1.000  H
  C33      1.0000 0.71250  0.21600  0.79460  Biso   1.000  C
  C34      1.0000 0.28750  0.71600  0.20540  Biso   1.000  C
  H31      1.0000 0.70780  0.38990  0.76920  Biso   1.000  H
  H32      1.0000 0.29220  0.88990  0.23080  Biso   1.000  H
  H33      1.0000 0.80170  0.15930  0.79890  Biso   1.000  H
  H34      1.0000 0.19830  0.65930  0.20110  Biso   1.000  H
  H35      1.0000 0.67660  0.22630  0.84770  Biso   1.000  H
  H36      1.0000 0.32340  0.72630  0.15230  Biso   1.000  H
  N3       1.0000 0.64090  0.02670  0.74740  Biso   1.000  N
  N4       1.0000 0.35910  0.52670  0.25260  Biso   1.000  N
  O7       1.0000 0.47770  0.72910  0.74590  Biso   1.000  O
  O8       1.0000 0.52230  0.22910  0.25410  Biso   1.000  O
