data_image0
_cell_length_a       7.366
_cell_length_b       9.445
_cell_length_c       16.515
_cell_angle_alpha    91.937
_cell_angle_beta     90.571
_cell_angle_gamma    92.767

_symmetry_space_group_name_H-M    "P 1"
_symmetry_int_tables_number       1

loop_
  _symmetry_equiv_pos_as_xyz
  'x, y, z'

loop_
  _atom_site_label
  _atom_site_occupancy
  _atom_site_fract_x
  _atom_site_fract_y
  _atom_site_fract_z
  _atom_site_thermal_displace_type
  _atom_site_B_iso_or_equiv
  _atom_site_type_symbol
  Cu1      1.0000 0.18040  0.36925  0.39775  Biso   1.000  Cu
  Cu2      1.0000 0.81960  0.63075  0.60225  Biso   1.000  Cu
  Cu3      1.0000 0.65200  0.37940  0.09975  Biso   1.000  Cu
  Cu4      1.0000 0.34800  0.62060  0.90025  Biso   1.000  Cu
  V1       1.0000 0.99460  0.22570  0.24379  Biso   1.000  V
  V2       1.0000 0.00540  0.77430  0.75621  Biso   1.000  V
  V3       1.0000 0.49760  0.22120  0.24886  Biso   1.000  V
  V4       1.0000 0.50240  0.77880  0.75114  Biso   1.000  V
  F1       1.0000 0.07190  0.18920  0.35570  Biso   1.000  F
  F2       1.0000 0.92810  0.81080  0.64430  Biso   1.000  F
  F3       1.0000 0.07480  0.42290  0.29550  Biso   1.000  F
  F4       1.0000 0.92520  0.57710  0.70450  Biso   1.000  F
  F5       1.0000 0.24940  0.23260  0.20620  Biso   1.000  F
  F6       1.0000 0.75060  0.76740  0.79380  Biso   1.000  F
  F7       1.0000 0.43520  0.31510  0.34720  Biso   1.000  F
  F8       1.0000 0.56480  0.68490  0.65280  Biso   1.000  F
  F9       1.0000 0.75410  0.26480  0.28780  Biso   1.000  F
  F10      1.0000 0.24590  0.73520  0.71220  Biso   1.000  F
  F11      1.0000 0.54100  0.42270  0.20090  Biso   1.000  F
  F12      1.0000 0.45900  0.57730  0.79910  Biso   1.000  F
  F13      1.0000 0.57910  0.19150  0.13500  Biso   1.000  F
  F14      1.0000 0.42090  0.80850  0.86500  Biso   1.000  F
  F15      1.0000 0.93120  0.33260  0.15130  Biso   1.000  F
  F16      1.0000 0.06880  0.66740  0.84870  Biso   1.000  F
  O1       1.0000 0.95130  0.06460  0.21390  Biso   1.000  O
  O2       1.0000 0.04870  0.93540  0.78610  Biso   1.000  O
  O3       1.0000 0.49220  0.05840  0.27120  Biso   1.000  O
  O4       1.0000 0.50780  0.94160  0.72880  Biso   1.000  O
  N1       1.0000 0.27540  0.56070  0.42520  Biso   1.000  N
  N2       1.0000 0.72460  0.43930  0.57480  Biso   1.000  N
  N3       1.0000 0.18400  0.31440  0.51160  Biso   1.000  N
  N4       1.0000 0.81600  0.68560  0.48840  Biso   1.000  N
  N5       1.0000 0.22970  0.54730  0.56490  Biso   1.000  N
  N6       1.0000 0.77030  0.45270  0.43510  Biso   1.000  N
  H1       1.0000 0.21770  0.59810  0.60850  Biso   1.000  H
  H2       1.0000 0.78230  0.40190  0.39150  Biso   1.000  H
  N7       1.0000 0.70580  0.31150  0.98880  Biso   1.000  N
  N8       1.0000 0.29420  0.68850  0.01120  Biso   1.000  N
  N9       1.0000 0.70160  0.58050  0.07670  Biso   1.000  N
  N10      1.0000 0.29840  0.41950  0.92330  Biso   1.000  N
  N11      1.0000 0.81560  0.53830  0.94540  Biso   1.000  N
  N12      1.0000 0.18440  0.46170  0.05460  Biso   1.000  N
  H3       1.0000 0.87000  0.57950  0.90610  Biso   1.000  H
  H4       1.0000 0.13000  0.42050  0.09390  Biso   1.000  H
  C1       1.0000 0.33500  0.64020  0.36090  Biso   1.000  C
  C2       1.0000 0.66500  0.35980  0.63910  Biso   1.000  C
  H5       1.0000 0.34260  0.59470  0.31030  Biso   1.000  H
  H6       1.0000 0.65740  0.40530  0.68970  Biso   1.000  H
  C3       1.0000 0.38210  0.77750  0.36720  Biso   1.000  C
  C4       1.0000 0.61790  0.22250  0.63280  Biso   1.000  C
  H7       1.0000 0.41820  0.82630  0.32170  Biso   1.000  H
  H8       1.0000 0.58180  0.17370  0.67830  Biso   1.000  H
  C5       1.0000 0.37500  0.84970  0.44460  Biso   1.000  C
  C6       1.0000 0.62500  0.15030  0.55540  Biso   1.000  C
  H9       1.0000 0.40240  0.94670  0.45060  Biso   1.000  H
  H10      1.0000 0.59760  0.05330  0.54940  Biso   1.000  H
  C7       1.0000 0.32600  0.77040  0.50930  Biso   1.000  C
  C8       1.0000 0.67400  0.22960  0.49070  Biso   1.000  C
  H11      1.0000 0.32580  0.81210  0.56120  Biso   1.000  H
  H12      1.0000 0.67420  0.18790  0.43880  Biso   1.000  H
  C9       1.0000 0.27660  0.62630  0.49730  Biso   1.000  C
  C10      1.0000 0.72340  0.37370  0.50270  Biso   1.000  C
  C11      1.0000 0.20010  0.40850  0.57480  Biso   1.000  C
  C12      1.0000 0.79990  0.59150  0.42520  Biso   1.000  C
  C13      1.0000 0.18680  0.36160  0.65500  Biso   1.000  C
  C14      1.0000 0.81320  0.63840  0.34500  Biso   1.000  C
  H13      1.0000 0.20010  0.42590  0.69890  Biso   1.000  H
  H14      1.0000 0.79990  0.57410  0.30110  Biso   1.000  H
  C15      1.0000 0.15400  0.22020  0.66710  Biso   1.000  C
  C16      1.0000 0.84600  0.77980  0.33290  Biso   1.000  C
  H15      1.0000 0.14620  0.18830  0.71970  Biso   1.000  H
  H16      1.0000 0.85380  0.81170  0.28030  Biso   1.000  H
  C17      1.0000 0.13200  0.12220  0.60120  Biso   1.000  C
  C18      1.0000 0.86800  0.87780  0.39880  Biso   1.000  C
  H17      1.0000 0.10410  0.02670  0.60960  Biso   1.000  H
  H18      1.0000 0.89590  0.97330  0.39040  Biso   1.000  H
  C19      1.0000 0.15300  0.17050  0.52500  Biso   1.000  C
  C20      1.0000 0.84700  0.82950  0.47500  Biso   1.000  C
  H19      1.0000 0.14570  0.10620  0.48100  Biso   1.000  H
  H20      1.0000 0.85430  0.89380  0.51900  Biso   1.000  H
  C21      1.0000 0.67970  0.17090  0.97010  Biso   1.000  C
  C22      1.0000 0.32030  0.82910  0.02990  Biso   1.000  C
  H21      1.0000 0.62960  0.11360  0.00960  Biso   1.000  H
  H22      1.0000 0.37040  0.88640  0.99040  Biso   1.000  H
  C23      1.0000 0.72160  0.10700  0.89740  Biso   1.000  C
  C24      1.0000 0.27840  0.89300  0.10260  Biso   1.000  C
  H23      1.0000 0.70020  0.01000  0.88770  Biso   1.000  H
  H24      1.0000 0.29980  0.99000  0.11230  Biso   1.000  H
  C25      1.0000 0.79730  0.19480  0.83950  Biso   1.000  C
  C26      1.0000 0.20270  0.80520  0.16050  Biso   1.000  C
  H25      1.0000 0.82810  0.15580  0.78930  Biso   1.000  H
  H26      1.0000 0.17190  0.84420  0.21070  Biso   1.000  H
  C27      1.0000 0.82700  0.33680  0.85450  Biso   1.000  C
  C28      1.0000 0.17300  0.66320  0.14550  Biso   1.000  C
  H27      1.0000 0.87790  0.39410  0.81510  Biso   1.000  H
  H28      1.0000 0.12210  0.60590  0.18490  Biso   1.000  H
  C29      1.0000 0.78100  0.39540  0.93070  Biso   1.000  C
  C30      1.0000 0.21900  0.60460  0.06930  Biso   1.000  C
  C31      1.0000 0.78200  0.62880  0.00940  Biso   1.000  C
  C32      1.0000 0.21800  0.37120  0.99060  Biso   1.000  C
  C33      1.0000 0.83540  0.76860  0.00090  Biso   1.000  C
  C34      1.0000 0.16460  0.23140  0.99910  Biso   1.000  C
  H29      1.0000 0.89370  0.79620  0.95380  Biso   1.000  H
  H30      1.0000 0.10630  0.20380  0.04620  Biso   1.000  H
  C35      1.0000 0.80380  0.86960  0.06180  Biso   1.000  C
  C36      1.0000 0.19620  0.13040  0.93820  Biso   1.000  C
  H31      1.0000 0.84220  0.96430  0.05750  Biso   1.000  H
  H32      1.0000 0.15780  0.03570  0.94250  Biso   1.000  H
  C37      1.0000 0.70920  0.82000  0.13120  Biso   1.000  C
  C38      1.0000 0.29080  0.18000  0.86880  Biso   1.000  C
  H33      1.0000 0.67930  0.88320  0.17280  Biso   1.000  H
  H34      1.0000 0.32070  0.11680  0.82720  Biso   1.000  H
  C39      1.0000 0.66350  0.67960  0.13580  Biso   1.000  C
  C40      1.0000 0.33650  0.32040  0.86420  Biso   1.000  C
  H35      1.0000 0.60290  0.64900  0.18160  Biso   1.000  H
  H36      1.0000 0.39710  0.35100  0.81840  Biso   1.000  H
