data_image0
_cell_length_a       7.3139
_cell_length_b       10.1584
_cell_length_c       10.6662
_cell_angle_alpha    81.723
_cell_angle_beta     70.044
_cell_angle_gamma    87.918

_symmetry_space_group_name_H-M    "P 1"
_symmetry_int_tables_number       1

loop_
  _symmetry_equiv_pos_as_xyz
  'x, y, z'

loop_
  _atom_site_label
  _atom_site_occupancy
  _atom_site_fract_x
  _atom_site_fract_y
  _atom_site_fract_z
  _atom_site_thermal_displace_type
  _atom_site_B_iso_or_equiv
  _atom_site_type_symbol
  Cu1      1.0000 0.43604  0.82187  0.19093  Biso   1.000  Cu
  Cu2      1.0000 0.56396  0.17813  0.80907  Biso   1.000  Cu
  V1       1.0000 0.08873  0.90329  0.58490  Biso   1.000  V
  V2       1.0000 0.91127  0.09671  0.41510  Biso   1.000  V
  V3       1.0000 0.43437  0.06336  0.38078  Biso   1.000  V
  V4       1.0000 0.56563  0.93664  0.61922  Biso   1.000  V
  V5       1.0000 0.86943  0.95158  0.90006  Biso   1.000  V
  V6       1.0000 0.13057  0.04842  0.09994  Biso   1.000  V
  O1       1.0000 0.68640  0.85700  0.99280  Biso   1.000  O
  O2       1.0000 0.31360  0.14300  0.00720  Biso   1.000  O
  O3       1.0000 0.21010  0.91320  0.17020  Biso   1.000  O
  O4       1.0000 0.78990  0.08680  0.82980  Biso   1.000  O
  O5       1.0000 0.50470  0.98560  0.24550  Biso   1.000  O
  O6       1.0000 0.49530  0.01440  0.75450  Biso   1.000  O
  O7       1.0000 0.45220  0.22290  0.33600  Biso   1.000  O
  O8       1.0000 0.54780  0.77710  0.66400  Biso   1.000  O
  O9       1.0000 0.15250  0.04110  0.42490  Biso   1.000  O
  O10      1.0000 0.84750  0.95890  0.57510  Biso   1.000  O
  O11      1.0000 0.33690  0.96750  0.56570  Biso   1.000  O
  O12      1.0000 0.66310  0.03250  0.43430  Biso   1.000  O
  O13      1.0000 0.12860  0.76460  0.52730  Biso   1.000  O
  O14      1.0000 0.87140  0.23540  0.47270  Biso   1.000  O
  O15      1.0000 0.01400  0.86370  0.76240  Biso   1.000  O
  O16      1.0000 0.98600  0.13630  0.23760  Biso   1.000  O
  O17      1.0000 0.00000  0.00000  0.00000  Biso   1.000  O
  N1       1.0000 0.41260  0.51040  0.28580  Biso   1.000  N
  N2       1.0000 0.58740  0.48960  0.71420  Biso   1.000  N
  H1       1.0000 0.35400  0.44510  0.34520  Biso   1.000  H
  H2       1.0000 0.64600  0.55490  0.65480  Biso   1.000  H
  N3       1.0000 0.59670  0.70160  0.27280  Biso   1.000  N
  N4       1.0000 0.40330  0.29840  0.72720  Biso   1.000  N
  N5       1.0000 0.35690  0.67090  0.12230  Biso   1.000  N
  N6       1.0000 0.64310  0.32910  0.87770  Biso   1.000  N
  C1       1.0000 0.56510  0.57050  0.30700  Biso   1.000  C
  C2       1.0000 0.43490  0.42950  0.69300  Biso   1.000  C
  C3       1.0000 0.68450  0.48960  0.36310  Biso   1.000  C
  C4       1.0000 0.31550  0.51040  0.63690  Biso   1.000  C
  H3       1.0000 0.65930  0.39870  0.38770  Biso   1.000  H
  H4       1.0000 0.34070  0.60130  0.61230  Biso   1.000  H
  C5       1.0000 0.83920  0.54620  0.38150  Biso   1.000  C
  C6       1.0000 0.16080  0.45380  0.61850  Biso   1.000  C
  H5       1.0000 0.91960  0.49410  0.41910  Biso   1.000  H
  H6       1.0000 0.08040  0.50590  0.58090  Biso   1.000  H
  C7       1.0000 0.87490  0.68200  0.34350  Biso   1.000  C
  C8       1.0000 0.12510  0.31800  0.65650  Biso   1.000  C
  H7       1.0000 0.97900  0.72240  0.35510  Biso   1.000  H
  H8       1.0000 0.02100  0.27760  0.64490  Biso   1.000  H
  C9       1.0000 0.75360  0.75460  0.28880  Biso   1.000  C
  C10      1.0000 0.24640  0.24540  0.71120  Biso   1.000  C
  H9       1.0000 0.77960  0.84510  0.26100  Biso   1.000  H
  H10      1.0000 0.22040  0.15490  0.73900  Biso   1.000  H
  C11      1.0000 0.30260  0.69900  0.01210  Biso   1.000  C
  C12      1.0000 0.69740  0.30100  0.98790  Biso   1.000  C
  H11      1.0000 0.31380  0.78670  0.97020  Biso   1.000  H
  H12      1.0000 0.68620  0.21330  0.02980  Biso   1.000  H
  C13      1.0000 0.23270  0.60630  0.95920  Biso   1.000  C
  C14      1.0000 0.76730  0.39370  0.04080  Biso   1.000  C
  H13      1.0000 0.19880  0.62930  0.88250  Biso   1.000  H
  H14      1.0000 0.80120  0.37070  0.11750  Biso   1.000  H
  C15      1.0000 0.21340  0.47530  0.02410  Biso   1.000  C
  C16      1.0000 0.78660  0.52470  0.97590  Biso   1.000  C
  H15      1.0000 0.16390  0.40990  0.99140  Biso   1.000  H
  H16      1.0000 0.83610  0.59010  0.00860  Biso   1.000  H
  C17      1.0000 0.26670  0.44320  0.13460  Biso   1.000  C
  C18      1.0000 0.73330  0.55680  0.86540  Biso   1.000  C
  H17      1.0000 0.25180  0.35670  0.17970  Biso   1.000  H
  H18      1.0000 0.74820  0.64330  0.82030  Biso   1.000  H
  C19      1.0000 0.34540  0.54450  0.17950  Biso   1.000  C
  C20      1.0000 0.65460  0.45550  0.82050  Biso   1.000  C
