data_image0
_cell_length_a       7.331
_cell_length_b       10.123
_cell_length_c       10.578
_cell_angle_alpha    95.986
_cell_angle_beta     110.16
_cell_angle_gamma    92.605

_symmetry_space_group_name_H-M    "P 1"
_symmetry_int_tables_number       1

loop_
  _symmetry_equiv_pos_as_xyz
  'x, y, z'

loop_
  _atom_site_label
  _atom_site_occupancy
  _atom_site_fract_x
  _atom_site_fract_y
  _atom_site_fract_z
  _atom_site_thermal_displace_type
  _atom_site_B_iso_or_equiv
  _atom_site_type_symbol
  Cu1      1.0000 0.62652  0.17630  0.19170  Biso   1.000  Cu
  Cu2      1.0000 0.37348  0.82370  0.80830  Biso   1.000  Cu
  V1       1.0000 0.81539  0.93417  0.38153  Biso   1.000  V
  V2       1.0000 0.18461  0.06583  0.61847  Biso   1.000  V
  V3       1.0000 0.32642  0.90205  0.41783  Biso   1.000  V
  V4       1.0000 0.67358  0.09795  0.58217  Biso   1.000  V
  V5       1.0000 0.77022  0.05040  0.89860  Biso   1.000  V
  V6       1.0000 0.22978  0.94960  0.10140  Biso   1.000  V
  O1       1.0000 0.79010  0.77380  0.33930  Biso   1.000  O
  O2       1.0000 0.20990  0.22620  0.66070  Biso   1.000  O
  O3       1.0000 0.57930  0.95480  0.42700  Biso   1.000  O
  O4       1.0000 0.42070  0.04520  0.57300  Biso   1.000  O
  O5       1.0000 0.90340  0.03170  0.56610  Biso   1.000  O
  O6       1.0000 0.09660  0.96830  0.43390  Biso   1.000  O
  O7       1.0000 0.74780  0.01110  0.24330  Biso   1.000  O
  O8       1.0000 0.25220  0.98890  0.75670  Biso   1.000  O
  O9       1.0000 0.34040  0.76500  0.48300  Biso   1.000  O
  O10      1.0000 0.65960  0.23500  0.51700  Biso   1.000  O
  O11      1.0000 0.77780  0.14250  0.76120  Biso   1.000  O
  O12      1.0000 0.22220  0.85750  0.23880  Biso   1.000  O
  O13      1.0000 0.00000  0.00000  0.00000  Biso   1.000  O
  O14      1.0000 0.38040  0.08590  0.17560  Biso   1.000  O
  O15      1.0000 0.61960  0.91410  0.82440  Biso   1.000  O
  O16      1.0000 0.67900  0.14200  0.99300  Biso   1.000  O
  O17      1.0000 0.32100  0.85800  0.00700  Biso   1.000  O
  N1       1.0000 0.47850  0.32740  0.12160  Biso   1.000  N
  N2       1.0000 0.52150  0.67260  0.87840  Biso   1.000  N
  N3       1.0000 0.86980  0.29680  0.27080  Biso   1.000  N
  N4       1.0000 0.13020  0.70320  0.72920  Biso   1.000  N
  N5       1.0000 0.70020  0.48840  0.28780  Biso   1.000  N
  N6       1.0000 0.29980  0.51160  0.71220  Biso   1.000  N
  H1       1.0000 0.72000  0.57300  0.30200  Biso   1.000  H
  H2       1.0000 0.28000  0.42700  0.69800  Biso   1.000  H
  C1       1.0000 0.31260  0.29690  0.01090  Biso   1.000  C
  C2       1.0000 0.68740  0.70310  0.98910  Biso   1.000  C
  H3       1.0000 0.28180  0.20920  0.96940  Biso   1.000  H
  H4       1.0000 0.71820  0.79080  0.03060  Biso   1.000  H
  C3       1.0000 0.19000  0.39110  0.95880  Biso   1.000  C
  C4       1.0000 0.81000  0.60890  0.04120  Biso   1.000  C
  H5       1.0000 0.07850  0.36830  0.88220  Biso   1.000  H
  H6       1.0000 0.92150  0.63170  0.11780  Biso   1.000  H
  C5       1.0000 0.23580  0.52390  0.02360  Biso   1.000  C
  C6       1.0000 0.76420  0.47610  0.97640  Biso   1.000  C
  H7       1.0000 0.15310  0.58940  0.99130  Biso   1.000  H
  H8       1.0000 0.84690  0.41060  0.00870  Biso   1.000  H
  C7       1.0000 0.40400  0.55540  0.13500  Biso   1.000  C
  C8       1.0000 0.59600  0.44460  0.86500  Biso   1.000  C
  H9       1.0000 0.43640  0.64210  0.17930  Biso   1.000  H
  H10      1.0000 0.56360  0.35790  0.82070  Biso   1.000  H
  C9       1.0000 0.52550  0.45420  0.18020  Biso   1.000  C
  C10      1.0000 0.47450  0.54580  0.81980  Biso   1.000  C
  C11      1.0000 0.87420  0.42840  0.30630  Biso   1.000  C
  C12      1.0000 0.12580  0.57160  0.69370  Biso   1.000  C
  C13      1.0000 0.04760  0.51010  0.36410  Biso   1.000  C
  C14      1.0000 0.95240  0.48990  0.63590  Biso   1.000  C
  H11      1.0000 0.04590  0.60050  0.39040  Biso   1.000  H
  H12      1.0000 0.95410  0.39950  0.60960  Biso   1.000  H
  C15      1.0000 0.22240  0.45500  0.38170  Biso   1.000  C
  C16      1.0000 0.77760  0.54500  0.61830  Biso   1.000  C
  H13      1.0000 0.34000  0.50780  0.41970  Biso   1.000  H
  H14      1.0000 0.66000  0.49220  0.58030  Biso   1.000  H
  C17      1.0000 0.21980  0.31780  0.34140  Biso   1.000  C
  C18      1.0000 0.78020  0.68220  0.65860  Biso   1.000  C
  H15      1.0000 0.33500  0.27820  0.35070  Biso   1.000  H
  H16      1.0000 0.66500  0.72180  0.64930  Biso   1.000  H
  C19      1.0000 0.04280  0.24410  0.28790  Biso   1.000  C
  C20      1.0000 0.95720  0.75590  0.71210  Biso   1.000  C
  H17      1.0000 0.04090  0.15320  0.26200  Biso   1.000  H
  H18      1.0000 0.95910  0.84680  0.73800  Biso   1.000  H
