data_image0
_cell_length_a       8.6899
_cell_length_b       17.5358
_cell_length_c       9.2487
_cell_angle_alpha    90
_cell_angle_beta     94.94
_cell_angle_gamma    90

_symmetry_space_group_name_H-M    "P 1"
_symmetry_int_tables_number       1

loop_
  _symmetry_equiv_pos_as_xyz
  'x, y, z'

loop_
  _atom_site_label
  _atom_site_occupancy
  _atom_site_fract_x
  _atom_site_fract_y
  _atom_site_fract_z
  _atom_site_thermal_displace_type
  _atom_site_B_iso_or_equiv
  _atom_site_type_symbol
  Cu1      1.0000 0.42983  0.67401  0.71618  Biso   1.000  Cu
  Cu2      1.0000 0.57017  0.17401  0.78382  Biso   1.000  Cu
  Cu3      1.0000 0.57017  0.32599  0.28382  Biso   1.000  Cu
  Cu4      1.0000 0.42983  0.82599  0.21618  Biso   1.000  Cu
  N1       1.0000 0.66210  0.67508  0.75220  Biso   1.000  N
  N2       1.0000 0.33790  0.17508  0.74780  Biso   1.000  N
  N3       1.0000 0.33790  0.32492  0.24780  Biso   1.000  N
  N4       1.0000 0.66210  0.82492  0.25220  Biso   1.000  N
  H1       1.0000 0.70370  0.63570  0.70250  Biso   1.000  H
  H2       1.0000 0.29630  0.13570  0.79750  Biso   1.000  H
  H3       1.0000 0.29630  0.36430  0.29750  Biso   1.000  H
  H4       1.0000 0.70370  0.86430  0.20250  Biso   1.000  H
  H5       1.0000 0.70060  0.72030  0.71980  Biso   1.000  H
  H6       1.0000 0.29940  0.22030  0.78020  Biso   1.000  H
  H7       1.0000 0.29940  0.27970  0.28020  Biso   1.000  H
  H8       1.0000 0.70060  0.77970  0.21980  Biso   1.000  H
  N5       1.0000 0.20180  0.69181  0.69770  Biso   1.000  N
  N6       1.0000 0.79820  0.19181  0.80230  Biso   1.000  N
  N7       1.0000 0.79820  0.30819  0.30230  Biso   1.000  N
  N8       1.0000 0.20180  0.80819  0.19770  Biso   1.000  N
  H9       1.0000 0.18290  0.73820  0.73910  Biso   1.000  H
  H10      1.0000 0.81710  0.23820  0.76090  Biso   1.000  H
  H11      1.0000 0.81710  0.26180  0.26090  Biso   1.000  H
  H12      1.0000 0.18290  0.76180  0.23910  Biso   1.000  H
  H13      1.0000 0.16910  0.69510  0.60070  Biso   1.000  H
  H14      1.0000 0.83090  0.19510  0.89930  Biso   1.000  H
  H15      1.0000 0.83090  0.30490  0.39930  Biso   1.000  H
  H16      1.0000 0.16910  0.80490  0.10070  Biso   1.000  H
  N9       1.0000 0.43170  0.64267  0.92540  Biso   1.000  N
  N10      1.0000 0.56830  0.14267  0.57460  Biso   1.000  N
  N11      1.0000 0.56830  0.35733  0.07460  Biso   1.000  N
  N12      1.0000 0.43170  0.85733  0.42540  Biso   1.000  N
  H17      1.0000 0.42110  0.68740  0.97760  Biso   1.000  H
  H18      1.0000 0.57890  0.18740  0.52240  Biso   1.000  H
  H19      1.0000 0.57890  0.31260  0.02240  Biso   1.000  H
  H20      1.0000 0.42110  0.81260  0.47760  Biso   1.000  H
  N13      1.0000 0.44350  0.55461  0.59150  Biso   1.000  N
  N14      1.0000 0.55650  0.05461  0.90850  Biso   1.000  N
  N15      1.0000 0.55650  0.44539  0.40850  Biso   1.000  N
  N16      1.0000 0.44350  0.94539  0.09150  Biso   1.000  N
  C1       1.0000 0.70460  0.66657  0.90980  Biso   1.000  C
  C2       1.0000 0.29540  0.16657  0.59020  Biso   1.000  C
  C3       1.0000 0.29540  0.33343  0.09020  Biso   1.000  C
  C4       1.0000 0.70460  0.83343  0.40980  Biso   1.000  C
  H21      1.0000 0.70250  0.71680  0.95830  Biso   1.000  H
  H22      1.0000 0.29750  0.21680  0.54170  Biso   1.000  H
  H23      1.0000 0.29750  0.28320  0.04170  Biso   1.000  H
  H24      1.0000 0.70250  0.78320  0.45830  Biso   1.000  H
  H25      1.0000 0.81010  0.64530  0.92680  Biso   1.000  H
  H26      1.0000 0.18990  0.14530  0.57320  Biso   1.000  H
  H27      1.0000 0.18990  0.35470  0.07320  Biso   1.000  H
  H28      1.0000 0.81010  0.85470  0.42680  Biso   1.000  H
  C5       1.0000 0.58950  0.61353  0.96970  Biso   1.000  C
  C6       1.0000 0.41050  0.11353  0.53030  Biso   1.000  C
  C7       1.0000 0.41050  0.38647  0.03030  Biso   1.000  C
  C8       1.0000 0.58950  0.88647  0.46970  Biso   1.000  C
  H29      1.0000 0.60170  0.56140  0.93140  Biso   1.000  H
  H30      1.0000 0.39830  0.06140  0.56860  Biso   1.000  H
  H31      1.0000 0.39830  0.43860  0.06860  Biso   1.000  H
  H32      1.0000 0.60170  0.93860  0.43140  Biso   1.000  H
  H33      1.0000 0.60660  0.61160  0.07690  Biso   1.000  H
  H34      1.0000 0.39340  0.11160  0.42310  Biso   1.000  H
  H35      1.0000 0.39340  0.38840  0.92310  Biso   1.000  H
  H36      1.0000 0.60660  0.88840  0.57690  Biso   1.000  H
  C9       1.0000 0.14920  0.62498  0.92580  Biso   1.000  C
  C10      1.0000 0.85080  0.12498  0.57420  Biso   1.000  C
  C11      1.0000 0.85080  0.37502  0.07420  Biso   1.000  C
  C12      1.0000 0.14920  0.87502  0.42580  Biso   1.000  C
  H37      1.0000 0.07120  0.59220  0.96700  Biso   1.000  H
  H38      1.0000 0.92880  0.09220  0.53300  Biso   1.000  H
  H39      1.0000 0.92880  0.40780  0.03300  Biso   1.000  H
  H40      1.0000 0.07120  0.90780  0.46700  Biso   1.000  H
  H41      1.0000 0.14410  0.67590  0.97150  Biso   1.000  H
  H42      1.0000 0.85590  0.17590  0.52850  Biso   1.000  H
  H43      1.0000 0.85590  0.32410  0.02850  Biso   1.000  H
  H44      1.0000 0.14410  0.82410  0.47150  Biso   1.000  H
  C13      1.0000 0.30810  0.59141  0.96590  Biso   1.000  C
  C14      1.0000 0.69190  0.09141  0.53410  Biso   1.000  C
  C15      1.0000 0.69190  0.40859  0.03410  Biso   1.000  C
  C16      1.0000 0.30810  0.90859  0.46590  Biso   1.000  C
  H45      1.0000 0.32100  0.58190  0.07170  Biso   1.000  H
  H46      1.0000 0.67900  0.08190  0.42830  Biso   1.000  H
  H47      1.0000 0.67900  0.41810  0.92830  Biso   1.000  H
  H48      1.0000 0.32100  0.91810  0.57170  Biso   1.000  H
  H49      1.0000 0.31670  0.54190  0.91590  Biso   1.000  H
  H50      1.0000 0.68330  0.04190  0.58410  Biso   1.000  H
  H51      1.0000 0.68330  0.45810  0.08410  Biso   1.000  H
  H52      1.0000 0.31670  0.95810  0.41590  Biso   1.000  H
  C17      1.0000 0.10700  0.63317  0.76470  Biso   1.000  C
  C18      1.0000 0.89300  0.13317  0.73530  Biso   1.000  C
  C19      1.0000 0.89300  0.36683  0.23530  Biso   1.000  C
  C20      1.0000 0.10700  0.86683  0.26470  Biso   1.000  C
  H53      1.0000 0.12130  0.58350  0.71690  Biso   1.000  H
  H54      1.0000 0.87870  0.08350  0.78310  Biso   1.000  H
  H55      1.0000 0.87870  0.41650  0.28310  Biso   1.000  H
  H56      1.0000 0.12130  0.91650  0.21690  Biso   1.000  H
  H57      1.0000 0.99660  0.64720  0.74790  Biso   1.000  H
  H58      1.0000 0.00340  0.14720  0.75210  Biso   1.000  H
  H59      1.0000 0.00340  0.35280  0.25210  Biso   1.000  H
  H60      1.0000 0.99660  0.85280  0.24790  Biso   1.000  H
  O1       1.0000 0.46730  0.67147  0.28123  Biso   1.000  O
  O2       1.0000 0.53270  0.17147  0.21877  Biso   1.000  O
  O3       1.0000 0.53270  0.32853  0.71877  Biso   1.000  O
  O4       1.0000 0.46730  0.82853  0.78123  Biso   1.000  O
  O5       1.0000 0.43689  0.70308  0.51043  Biso   1.000  O
  O6       1.0000 0.56311  0.20308  0.98957  Biso   1.000  O
  O7       1.0000 0.56311  0.29692  0.48957  Biso   1.000  O
  O8       1.0000 0.43689  0.79692  0.01043  Biso   1.000  O
  C21      1.0000 0.46060  0.65540  0.41000  Biso   1.000  C
  C22      1.0000 0.53940  0.15540  0.09000  Biso   1.000  C
  C23      1.0000 0.53940  0.34460  0.59000  Biso   1.000  C
  C24      1.0000 0.46060  0.84460  0.91000  Biso   1.000  C
  C25      1.0000 0.46210  0.48206  0.63160  Biso   1.000  C
  C26      1.0000 0.53790  0.98206  0.86840  Biso   1.000  C
  C27      1.0000 0.53790  0.51794  0.36840  Biso   1.000  C
  C28      1.0000 0.46210  0.01794  0.13160  Biso   1.000  C
  H61      1.0000 0.43550  0.46720  0.72500  Biso   1.000  H
  H62      1.0000 0.56450  0.96720  0.77500  Biso   1.000  H
  H63      1.0000 0.56450  0.53280  0.27500  Biso   1.000  H
  H64      1.0000 0.43550  0.03280  0.22500  Biso   1.000  H
  C29      1.0000 0.48100  0.57269  0.45810  Biso   1.000  C
  C30      1.0000 0.51900  0.07269  0.04190  Biso   1.000  C
  C31      1.0000 0.51900  0.42731  0.54190  Biso   1.000  C
  C32      1.0000 0.48100  0.92731  0.95810  Biso   1.000  C
  Cl1      1.0000 0.93882  0.64060  0.32281  Biso   1.000  Cl
  Cl2      1.0000 0.06118  0.14060  0.17719  Biso   1.000  Cl
  Cl3      1.0000 0.06118  0.35940  0.67719  Biso   1.000  Cl
  Cl4      1.0000 0.93882  0.85940  0.82281  Biso   1.000  Cl
  O9       1.0000 0.09890  0.65197  0.36960  Biso   1.000  O
  O10      1.0000 0.90110  0.15197  0.13040  Biso   1.000  O
  O11      1.0000 0.90110  0.34803  0.63040  Biso   1.000  O
  O12      1.0000 0.09890  0.84803  0.86960  Biso   1.000  O
  O13      1.0000 0.89140  0.69762  0.21730  Biso   1.000  O
  O14      1.0000 0.10860  0.19762  0.28270  Biso   1.000  O
  O15      1.0000 0.10860  0.30238  0.78270  Biso   1.000  O
  O16      1.0000 0.89140  0.80238  0.71730  Biso   1.000  O
  O17      1.0000 0.84800  0.64650  0.44550  Biso   1.000  O
  O18      1.0000 0.15200  0.14650  0.05450  Biso   1.000  O
  O19      1.0000 0.15200  0.35350  0.55450  Biso   1.000  O
  O20      1.0000 0.84800  0.85350  0.94550  Biso   1.000  O
  O21      1.0000 0.91580  0.56699  0.25870  Biso   1.000  O
  O22      1.0000 0.08420  0.06699  0.24130  Biso   1.000  O
  O23      1.0000 0.08420  0.43301  0.74130  Biso   1.000  O
  O24      1.0000 0.91580  0.93301  0.75870  Biso   1.000  O
  O25      1.0000 0.80450  0.52831  0.64860  Biso   1.000  O
  O26      1.0000 0.19550  0.02831  0.85140  Biso   1.000  O
  O27      1.0000 0.19550  0.47169  0.35140  Biso   1.000  O
  O28      1.0000 0.80450  0.97169  0.14860  Biso   1.000  O
  H65      1.0000 0.82300  0.56150  0.59010  Biso   1.000  H
  H66      1.0000 0.17700  0.06150  0.90990  Biso   1.000  H
  H67      1.0000 0.17700  0.43850  0.40990  Biso   1.000  H
  H68      1.0000 0.82300  0.93850  0.09010  Biso   1.000  H
  H69      1.0000 0.88300  0.50360  0.67120  Biso   1.000  H
  H70      1.0000 0.11700  0.00360  0.82880  Biso   1.000  H
  H71      1.0000 0.11700  0.49640  0.32880  Biso   1.000  H
  H72      1.0000 0.88300  0.99640  0.17120  Biso   1.000  H
