data_image0
_cell_length_a       25.645
_cell_length_b       25.645
_cell_length_c       17.105
_cell_angle_alpha    90
_cell_angle_beta     90
_cell_angle_gamma    120

_symmetry_space_group_name_H-M    "P 1"
_symmetry_int_tables_number       1

loop_
  _symmetry_equiv_pos_as_xyz
  'x, y, z'

loop_
  _atom_site_label
  _atom_site_occupancy
  _atom_site_fract_x
  _atom_site_fract_y
  _atom_site_fract_z
  _atom_site_thermal_displace_type
  _atom_site_B_iso_or_equiv
  _atom_site_type_symbol
  Cu1      1.0000 0.76474  0.57884  0.00000  Biso   1.000  Cu
  Cu2      1.0000 0.42116  0.18590  0.00000  Biso   1.000  Cu
  Cu3      1.0000 0.81410  0.23526  0.00000  Biso   1.000  Cu
  Cu4      1.0000 0.23526  0.42116  0.00000  Biso   1.000  Cu
  Cu5      1.0000 0.57884  0.81410  0.00000  Biso   1.000  Cu
  Cu6      1.0000 0.18590  0.76474  0.00000  Biso   1.000  Cu
  Cu7      1.0000 0.57884  0.76474  0.50000  Biso   1.000  Cu
  Cu8      1.0000 0.18590  0.42116  0.50000  Biso   1.000  Cu
  Cu9      1.0000 0.23526  0.81410  0.50000  Biso   1.000  Cu
  Cu10     1.0000 0.42116  0.23526  0.50000  Biso   1.000  Cu
  Cu11     1.0000 0.81410  0.57884  0.50000  Biso   1.000  Cu
  Cu12     1.0000 0.76474  0.18590  0.50000  Biso   1.000  Cu
  Cu13     1.0000 0.66304  0.61026  0.00000  Biso   1.000  Cu
  Cu14     1.0000 0.38974  0.05278  0.00000  Biso   1.000  Cu
  Cu15     1.0000 0.94722  0.33696  0.00000  Biso   1.000  Cu
  Cu16     1.0000 0.33696  0.38974  0.00000  Biso   1.000  Cu
  Cu17     1.0000 0.61026  0.94722  0.00000  Biso   1.000  Cu
  Cu18     1.0000 0.05278  0.66304  0.00000  Biso   1.000  Cu
  Cu19     1.0000 0.61026  0.66304  0.50000  Biso   1.000  Cu
  Cu20     1.0000 0.05278  0.38974  0.50000  Biso   1.000  Cu
  Cu21     1.0000 0.33696  0.94722  0.50000  Biso   1.000  Cu
  Cu22     1.0000 0.38974  0.33696  0.50000  Biso   1.000  Cu
  Cu23     1.0000 0.94722  0.61026  0.50000  Biso   1.000  Cu
  Cu24     1.0000 0.66304  0.05278  0.50000  Biso   1.000  Cu
  Cu25     1.0000 0.64715  0.49757  0.90920  Biso   1.000  Cu
  Cu26     1.0000 0.50243  0.14958  0.90920  Biso   1.000  Cu
  Cu27     1.0000 0.85042  0.35285  0.90920  Biso   1.000  Cu
  Cu28     1.0000 0.35285  0.50243  0.90920  Biso   1.000  Cu
  Cu29     1.0000 0.49757  0.85042  0.90920  Biso   1.000  Cu
  Cu30     1.0000 0.14958  0.64715  0.90920  Biso   1.000  Cu
  Cu31     1.0000 0.49757  0.64715  0.59080  Biso   1.000  Cu
  Cu32     1.0000 0.14958  0.50243  0.59080  Biso   1.000  Cu
  Cu33     1.0000 0.35285  0.85042  0.59080  Biso   1.000  Cu
  Cu34     1.0000 0.50243  0.35285  0.59080  Biso   1.000  Cu
  Cu35     1.0000 0.85042  0.49757  0.59080  Biso   1.000  Cu
  Cu36     1.0000 0.64715  0.14958  0.59080  Biso   1.000  Cu
  Cu37     1.0000 0.35285  0.50243  0.09080  Biso   1.000  Cu
  Cu38     1.0000 0.49757  0.85042  0.09080  Biso   1.000  Cu
  Cu39     1.0000 0.14958  0.64715  0.09080  Biso   1.000  Cu
  Cu40     1.0000 0.64715  0.49757  0.09080  Biso   1.000  Cu
  Cu41     1.0000 0.50243  0.14958  0.09080  Biso   1.000  Cu
  Cu42     1.0000 0.85042  0.35285  0.09080  Biso   1.000  Cu
  Cu43     1.0000 0.50243  0.35285  0.40920  Biso   1.000  Cu
  Cu44     1.0000 0.85042  0.49757  0.40920  Biso   1.000  Cu
  Cu45     1.0000 0.64715  0.14958  0.40920  Biso   1.000  Cu
  Cu46     1.0000 0.49757  0.64715  0.40920  Biso   1.000  Cu
  Cu47     1.0000 0.14958  0.50243  0.40920  Biso   1.000  Cu
  Cu48     1.0000 0.35285  0.85042  0.40920  Biso   1.000  Cu
  Cl1      1.0000 0.76964  0.67490  0.00000  Biso   1.000  Cl
  Cl2      1.0000 0.32510  0.09474  0.00000  Biso   1.000  Cl
  Cl3      1.0000 0.90526  0.23036  0.00000  Biso   1.000  Cl
  Cl4      1.0000 0.23036  0.32510  0.00000  Biso   1.000  Cl
  Cl5      1.0000 0.67490  0.90526  0.00000  Biso   1.000  Cl
  Cl6      1.0000 0.09474  0.76964  0.00000  Biso   1.000  Cl
  Cl7      1.0000 0.67490  0.76964  0.50000  Biso   1.000  Cl
  Cl8      1.0000 0.09474  0.32510  0.50000  Biso   1.000  Cl
  Cl9      1.0000 0.23036  0.90526  0.50000  Biso   1.000  Cl
  Cl10     1.0000 0.32510  0.23036  0.50000  Biso   1.000  Cl
  Cl11     1.0000 0.90526  0.67490  0.50000  Biso   1.000  Cl
  Cl12     1.0000 0.76964  0.09474  0.50000  Biso   1.000  Cl
  Cl13     1.0000 0.74787  0.52810  0.87297  Biso   1.000  Cl
  Cl14     1.0000 0.47190  0.21977  0.87297  Biso   1.000  Cl
  Cl15     1.0000 0.78023  0.25213  0.87297  Biso   1.000  Cl
  Cl16     1.0000 0.25213  0.47190  0.87297  Biso   1.000  Cl
  Cl17     1.0000 0.52810  0.78023  0.87297  Biso   1.000  Cl
  Cl18     1.0000 0.21977  0.74787  0.87297  Biso   1.000  Cl
  Cl19     1.0000 0.52810  0.74787  0.62703  Biso   1.000  Cl
  Cl20     1.0000 0.21977  0.47190  0.62703  Biso   1.000  Cl
  Cl21     1.0000 0.25213  0.78023  0.62703  Biso   1.000  Cl
  Cl22     1.0000 0.47190  0.25213  0.62703  Biso   1.000  Cl
  Cl23     1.0000 0.78023  0.52810  0.62703  Biso   1.000  Cl
  Cl24     1.0000 0.74787  0.21977  0.62703  Biso   1.000  Cl
  Cl25     1.0000 0.25213  0.47190  0.12703  Biso   1.000  Cl
  Cl26     1.0000 0.52810  0.78023  0.12703  Biso   1.000  Cl
  Cl27     1.0000 0.21977  0.74787  0.12703  Biso   1.000  Cl
  Cl28     1.0000 0.74787  0.52810  0.12703  Biso   1.000  Cl
  Cl29     1.0000 0.47190  0.21977  0.12703  Biso   1.000  Cl
  Cl30     1.0000 0.78023  0.25213  0.12703  Biso   1.000  Cl
  Cl31     1.0000 0.47190  0.25213  0.37297  Biso   1.000  Cl
  Cl32     1.0000 0.78023  0.52810  0.37297  Biso   1.000  Cl
  Cl33     1.0000 0.74787  0.21977  0.37297  Biso   1.000  Cl
  Cl34     1.0000 0.52810  0.74787  0.37297  Biso   1.000  Cl
  Cl35     1.0000 0.21977  0.47190  0.37297  Biso   1.000  Cl
  Cl36     1.0000 0.25213  0.78023  0.37297  Biso   1.000  Cl
  Cl37     1.0000 0.60671  0.56407  0.11501  Biso   1.000  Cl
  Cl38     1.0000 0.43593  0.04264  0.11501  Biso   1.000  Cl
  Cl39     1.0000 0.95736  0.39329  0.11501  Biso   1.000  Cl
  Cl40     1.0000 0.39329  0.43593  0.11501  Biso   1.000  Cl
  Cl41     1.0000 0.56407  0.95736  0.11501  Biso   1.000  Cl
  Cl42     1.0000 0.04264  0.60671  0.11501  Biso   1.000  Cl
  Cl43     1.0000 0.56407  0.60671  0.38499  Biso   1.000  Cl
  Cl44     1.0000 0.04264  0.43593  0.38499  Biso   1.000  Cl
  Cl45     1.0000 0.39329  0.95736  0.38499  Biso   1.000  Cl
  Cl46     1.0000 0.43593  0.39329  0.38499  Biso   1.000  Cl
  Cl47     1.0000 0.95736  0.56407  0.38499  Biso   1.000  Cl
  Cl48     1.0000 0.60671  0.04264  0.38499  Biso   1.000  Cl
  Cl49     1.0000 0.39329  0.43593  0.88499  Biso   1.000  Cl
  Cl50     1.0000 0.56407  0.95736  0.88499  Biso   1.000  Cl
  Cl51     1.0000 0.04264  0.60671  0.88499  Biso   1.000  Cl
  Cl52     1.0000 0.60671  0.56407  0.88499  Biso   1.000  Cl
  Cl53     1.0000 0.43593  0.04264  0.88499  Biso   1.000  Cl
  Cl54     1.0000 0.95736  0.39329  0.88499  Biso   1.000  Cl
  Cl55     1.0000 0.43593  0.39329  0.61501  Biso   1.000  Cl
  Cl56     1.0000 0.95736  0.56407  0.61501  Biso   1.000  Cl
  Cl57     1.0000 0.60671  0.04264  0.61501  Biso   1.000  Cl
  Cl58     1.0000 0.56407  0.60671  0.61501  Biso   1.000  Cl
  Cl59     1.0000 0.04264  0.43593  0.61501  Biso   1.000  Cl
  Cl60     1.0000 0.39329  0.95736  0.61501  Biso   1.000  Cl
  Cl61     1.0000 0.60120  0.41462  0.00000  Biso   1.000  Cl
  Cl62     1.0000 0.58538  0.18658  0.00000  Biso   1.000  Cl
  Cl63     1.0000 0.81342  0.39880  0.00000  Biso   1.000  Cl
  Cl64     1.0000 0.39880  0.58538  0.00000  Biso   1.000  Cl
  Cl65     1.0000 0.41462  0.81342  0.00000  Biso   1.000  Cl
  Cl66     1.0000 0.18658  0.60120  0.00000  Biso   1.000  Cl
  Cl67     1.0000 0.41462  0.60120  0.50000  Biso   1.000  Cl
  Cl68     1.0000 0.18658  0.58538  0.50000  Biso   1.000  Cl
  Cl69     1.0000 0.39880  0.81342  0.50000  Biso   1.000  Cl
  Cl70     1.0000 0.58538  0.39880  0.50000  Biso   1.000  Cl
  Cl71     1.0000 0.81342  0.41462  0.50000  Biso   1.000  Cl
  Cl72     1.0000 0.60120  0.18658  0.50000  Biso   1.000  Cl
  O1       1.0000 0.68090  0.54600  0.00000  Biso   1.000  O
  O2       1.0000 0.45400  0.13490  0.00000  Biso   1.000  O
  O3       1.0000 0.86510  0.31910  0.00000  Biso   1.000  O
  O4       1.0000 0.31910  0.45400  0.00000  Biso   1.000  O
  O5       1.0000 0.54600  0.86510  0.00000  Biso   1.000  O
  O6       1.0000 0.13490  0.68090  0.00000  Biso   1.000  O
  O7       1.0000 0.54600  0.68090  0.50000  Biso   1.000  O
  O8       1.0000 0.13490  0.45400  0.50000  Biso   1.000  O
  O9       1.0000 0.31910  0.86510  0.50000  Biso   1.000  O
  O10      1.0000 0.45400  0.31910  0.50000  Biso   1.000  O
  O11      1.0000 0.86510  0.54600  0.50000  Biso   1.000  O
  O12      1.0000 0.68090  0.13490  0.50000  Biso   1.000  O
  N1       1.0000 0.85310  0.60900  0.00000  Biso   1.000  N
  N2       1.0000 0.39100  0.24410  0.00000  Biso   1.000  N
  N3       1.0000 0.75590  0.14690  0.00000  Biso   1.000  N
  N4       1.0000 0.14690  0.39100  0.00000  Biso   1.000  N
  N5       1.0000 0.60900  0.75590  0.00000  Biso   1.000  N
  N6       1.0000 0.24410  0.85310  0.00000  Biso   1.000  N
  N7       1.0000 0.60900  0.85310  0.50000  Biso   1.000  N
  N8       1.0000 0.24410  0.39100  0.50000  Biso   1.000  N
  N9       1.0000 0.14690  0.75590  0.50000  Biso   1.000  N
  N10      1.0000 0.39100  0.14690  0.50000  Biso   1.000  N
  N11      1.0000 0.75590  0.60900  0.50000  Biso   1.000  N
  N12      1.0000 0.85310  0.24410  0.50000  Biso   1.000  N
  N13      1.0000 0.96720  0.64190  0.00000  Biso   1.000  N
  N14      1.0000 0.35810  0.32530  0.00000  Biso   1.000  N
  N15      1.0000 0.67470  0.03280  0.00000  Biso   1.000  N
  N16      1.0000 0.03280  0.35810  0.00000  Biso   1.000  N
  N17      1.0000 0.64190  0.67470  0.00000  Biso   1.000  N
  N18      1.0000 0.32530  0.96720  0.00000  Biso   1.000  N
  N19      1.0000 0.64190  0.96720  0.50000  Biso   1.000  N
  N20      1.0000 0.32530  0.35810  0.50000  Biso   1.000  N
  N21      1.0000 0.03280  0.67470  0.50000  Biso   1.000  N
  N22      1.0000 0.35810  0.03280  0.50000  Biso   1.000  N
  N23      1.0000 0.67470  0.64190  0.50000  Biso   1.000  N
  N24      1.0000 0.96720  0.32530  0.50000  Biso   1.000  N
  N25      1.0000 0.60830  0.44980  0.81270  Biso   1.000  N
  N26      1.0000 0.55020  0.15850  0.81270  Biso   1.000  N
  N27      1.0000 0.84150  0.39170  0.81270  Biso   1.000  N
  N28      1.0000 0.39170  0.55020  0.81270  Biso   1.000  N
  N29      1.0000 0.44980  0.84150  0.81270  Biso   1.000  N
  N30      1.0000 0.15850  0.60830  0.81270  Biso   1.000  N
  N31      1.0000 0.44980  0.60830  0.68730  Biso   1.000  N
  N32      1.0000 0.15850  0.55020  0.68730  Biso   1.000  N
  N33      1.0000 0.39170  0.84150  0.68730  Biso   1.000  N
  N34      1.0000 0.55020  0.39170  0.68730  Biso   1.000  N
  N35      1.0000 0.84150  0.44980  0.68730  Biso   1.000  N
  N36      1.0000 0.60830  0.15850  0.68730  Biso   1.000  N
  N37      1.0000 0.39170  0.55020  0.18730  Biso   1.000  N
  N38      1.0000 0.44980  0.84150  0.18730  Biso   1.000  N
  N39      1.0000 0.15850  0.60830  0.18730  Biso   1.000  N
  N40      1.0000 0.60830  0.44980  0.18730  Biso   1.000  N
  N41      1.0000 0.55020  0.15850  0.18730  Biso   1.000  N
  N42      1.0000 0.84150  0.39170  0.18730  Biso   1.000  N
  N43      1.0000 0.55020  0.39170  0.31270  Biso   1.000  N
  N44      1.0000 0.84150  0.44980  0.31270  Biso   1.000  N
  N45      1.0000 0.60830  0.15850  0.31270  Biso   1.000  N
  N46      1.0000 0.44980  0.60830  0.31270  Biso   1.000  N
  N47      1.0000 0.15850  0.55020  0.31270  Biso   1.000  N
  N48      1.0000 0.39170  0.84150  0.31270  Biso   1.000  N
  C1       1.0000 0.88380  0.64670  0.06910  Biso   1.000  C
  C2       1.0000 0.35330  0.23710  0.06910  Biso   1.000  C
  C3       1.0000 0.76290  0.11620  0.06910  Biso   1.000  C
  C4       1.0000 0.11620  0.35330  0.06910  Biso   1.000  C
  C5       1.0000 0.64670  0.76290  0.06910  Biso   1.000  C
  C6       1.0000 0.23710  0.88380  0.06910  Biso   1.000  C
  C7       1.0000 0.64670  0.88380  0.43090  Biso   1.000  C
  C8       1.0000 0.23710  0.35330  0.43090  Biso   1.000  C
  C9       1.0000 0.11620  0.76290  0.43090  Biso   1.000  C
  C10      1.0000 0.35330  0.11620  0.43090  Biso   1.000  C
  C11      1.0000 0.76290  0.64670  0.43090  Biso   1.000  C
  C12      1.0000 0.88380  0.23710  0.43090  Biso   1.000  C
  C13      1.0000 0.11620  0.35330  0.93090  Biso   1.000  C
  C14      1.0000 0.64670  0.76290  0.93090  Biso   1.000  C
  C15      1.0000 0.23710  0.88380  0.93090  Biso   1.000  C
  C16      1.0000 0.88380  0.64670  0.93090  Biso   1.000  C
  C17      1.0000 0.35330  0.23710  0.93090  Biso   1.000  C
  C18      1.0000 0.76290  0.11620  0.93090  Biso   1.000  C
  C19      1.0000 0.35330  0.11620  0.56910  Biso   1.000  C
  C20      1.0000 0.76290  0.64670  0.56910  Biso   1.000  C
  C21      1.0000 0.88380  0.23710  0.56910  Biso   1.000  C
  C22      1.0000 0.64670  0.88380  0.56910  Biso   1.000  C
  C23      1.0000 0.23710  0.35330  0.56910  Biso   1.000  C
  C24      1.0000 0.11620  0.76290  0.56910  Biso   1.000  C
  C25      1.0000 0.95020  0.66460  0.06940  Biso   1.000  C
  C26      1.0000 0.33540  0.28560  0.06940  Biso   1.000  C
  C27      1.0000 0.71440  0.04980  0.06940  Biso   1.000  C
  C28      1.0000 0.04980  0.33540  0.06940  Biso   1.000  C
  C29      1.0000 0.66460  0.71440  0.06940  Biso   1.000  C
  C30      1.0000 0.28560  0.95020  0.06940  Biso   1.000  C
  C31      1.0000 0.66460  0.95020  0.43060  Biso   1.000  C
  C32      1.0000 0.28560  0.33540  0.43060  Biso   1.000  C
  C33      1.0000 0.04980  0.71440  0.43060  Biso   1.000  C
  C34      1.0000 0.33540  0.04980  0.43060  Biso   1.000  C
  C35      1.0000 0.71440  0.66460  0.43060  Biso   1.000  C
  C36      1.0000 0.95020  0.28560  0.43060  Biso   1.000  C
  C37      1.0000 0.04980  0.33540  0.93060  Biso   1.000  C
  C38      1.0000 0.66460  0.71440  0.93060  Biso   1.000  C
  C39      1.0000 0.28560  0.95020  0.93060  Biso   1.000  C
  C40      1.0000 0.95020  0.66460  0.93060  Biso   1.000  C
  C41      1.0000 0.33540  0.28560  0.93060  Biso   1.000  C
  C42      1.0000 0.71440  0.04980  0.93060  Biso   1.000  C
  C43      1.0000 0.33540  0.04980  0.56940  Biso   1.000  C
  C44      1.0000 0.71440  0.66460  0.56940  Biso   1.000  C
  C45      1.0000 0.95020  0.28560  0.56940  Biso   1.000  C
  C46      1.0000 0.66460  0.95020  0.56940  Biso   1.000  C
  C47      1.0000 0.28560  0.33540  0.56940  Biso   1.000  C
  C48      1.0000 0.04980  0.71440  0.56940  Biso   1.000  C
  C49      1.0000 0.86200  0.55720  0.00000  Biso   1.000  C
  C50      1.0000 0.44280  0.30480  0.00000  Biso   1.000  C
  C51      1.0000 0.69520  0.13800  0.00000  Biso   1.000  C
  C52      1.0000 0.13800  0.44280  0.00000  Biso   1.000  C
  C53      1.0000 0.55720  0.69520  0.00000  Biso   1.000  C
  C54      1.0000 0.30480  0.86200  0.00000  Biso   1.000  C
  C55      1.0000 0.55720  0.86200  0.50000  Biso   1.000  C
  C56      1.0000 0.30480  0.44280  0.50000  Biso   1.000  C
  C57      1.0000 0.13800  0.69520  0.50000  Biso   1.000  C
  C58      1.0000 0.44280  0.13800  0.50000  Biso   1.000  C
  C59      1.0000 0.69520  0.55720  0.50000  Biso   1.000  C
  C60      1.0000 0.86200  0.30480  0.50000  Biso   1.000  C
  C61      1.0000 0.92640  0.57480  0.00000  Biso   1.000  C
  C62      1.0000 0.42520  0.35160  0.00000  Biso   1.000  C
  C63      1.0000 0.64840  0.07360  0.00000  Biso   1.000  C
  C64      1.0000 0.07360  0.42520  0.00000  Biso   1.000  C
  C65      1.0000 0.57480  0.64840  0.00000  Biso   1.000  C
  C66      1.0000 0.35160  0.92640  0.00000  Biso   1.000  C
  C67      1.0000 0.57480  0.92640  0.50000  Biso   1.000  C
  C68      1.0000 0.35160  0.42520  0.50000  Biso   1.000  C
  C69      1.0000 0.07360  0.64840  0.50000  Biso   1.000  C
  C70      1.0000 0.42520  0.07360  0.50000  Biso   1.000  C
  C71      1.0000 0.64840  0.57480  0.50000  Biso   1.000  C
  C72      1.0000 0.92640  0.35160  0.50000  Biso   1.000  C
  C73      1.0000 0.62270  0.40140  0.79180  Biso   1.000  C
  C74      1.0000 0.59860  0.22130  0.79180  Biso   1.000  C
  C75      1.0000 0.77870  0.37730  0.79180  Biso   1.000  C
  C76      1.0000 0.37730  0.59860  0.79180  Biso   1.000  C
  C77      1.0000 0.40140  0.77870  0.79180  Biso   1.000  C
  C78      1.0000 0.22130  0.62270  0.79180  Biso   1.000  C
  C79      1.0000 0.40140  0.62270  0.70820  Biso   1.000  C
  C80      1.0000 0.22130  0.59860  0.70820  Biso   1.000  C
  C81      1.0000 0.37730  0.77870  0.70820  Biso   1.000  C
  C82      1.0000 0.59860  0.37730  0.70820  Biso   1.000  C
  C83      1.0000 0.77870  0.40140  0.70820  Biso   1.000  C
  C84      1.0000 0.62270  0.22130  0.70820  Biso   1.000  C
  C85      1.0000 0.37730  0.59860  0.20820  Biso   1.000  C
  C86      1.0000 0.40140  0.77870  0.20820  Biso   1.000  C
  C87      1.0000 0.22130  0.62270  0.20820  Biso   1.000  C
  C88      1.0000 0.62270  0.40140  0.20820  Biso   1.000  C
  C89      1.0000 0.59860  0.22130  0.20820  Biso   1.000  C
  C90      1.0000 0.77870  0.37730  0.20820  Biso   1.000  C
  C91      1.0000 0.59860  0.37730  0.29180  Biso   1.000  C
  C92      1.0000 0.77870  0.40140  0.29180  Biso   1.000  C
  C93      1.0000 0.62270  0.22130  0.29180  Biso   1.000  C
  C94      1.0000 0.40140  0.62270  0.29180  Biso   1.000  C
  C95      1.0000 0.22130  0.59860  0.29180  Biso   1.000  C
  C96      1.0000 0.37730  0.77870  0.29180  Biso   1.000  C
  C97      1.0000 0.54150  0.42000  0.82390  Biso   1.000  C
  C98      1.0000 0.58000  0.12150  0.82390  Biso   1.000  C
  C99      1.0000 0.87850  0.45850  0.82390  Biso   1.000  C
  C100     1.0000 0.45850  0.58000  0.82390  Biso   1.000  C
  C101     1.0000 0.42000  0.87850  0.82390  Biso   1.000  C
  C102     1.0000 0.12150  0.54150  0.82390  Biso   1.000  C
  C103     1.0000 0.42000  0.54150  0.67610  Biso   1.000  C
  C104     1.0000 0.12150  0.58000  0.67610  Biso   1.000  C
  C105     1.0000 0.45850  0.87850  0.67610  Biso   1.000  C
  C106     1.0000 0.58000  0.45850  0.67610  Biso   1.000  C
  C107     1.0000 0.87850  0.42000  0.67610  Biso   1.000  C
  C108     1.0000 0.54150  0.12150  0.67610  Biso   1.000  C
  C109     1.0000 0.45850  0.58000  0.17610  Biso   1.000  C
  C110     1.0000 0.42000  0.87850  0.17610  Biso   1.000  C
  C111     1.0000 0.12150  0.54150  0.17610  Biso   1.000  C
  C112     1.0000 0.54150  0.42000  0.17610  Biso   1.000  C
  C113     1.0000 0.58000  0.12150  0.17610  Biso   1.000  C
  C114     1.0000 0.87850  0.45850  0.17610  Biso   1.000  C
  C115     1.0000 0.58000  0.45850  0.32390  Biso   1.000  C
  C116     1.0000 0.87850  0.42000  0.32390  Biso   1.000  C
  C117     1.0000 0.54150  0.12150  0.32390  Biso   1.000  C
  C118     1.0000 0.42000  0.54150  0.32390  Biso   1.000  C
  C119     1.0000 0.12150  0.58000  0.32390  Biso   1.000  C
  C120     1.0000 0.45850  0.87850  0.32390  Biso   1.000  C
  C121     1.0000 0.62610  0.49080  0.74300  Biso   1.000  C
  C122     1.0000 0.50920  0.13530  0.74300  Biso   1.000  C
  C123     1.0000 0.86470  0.37390  0.74300  Biso   1.000  C
  C124     1.0000 0.37390  0.50920  0.74300  Biso   1.000  C
  C125     1.0000 0.49080  0.86470  0.74300  Biso   1.000  C
  C126     1.0000 0.13530  0.62610  0.74300  Biso   1.000  C
  C127     1.0000 0.49080  0.62610  0.75700  Biso   1.000  C
  C128     1.0000 0.13530  0.50920  0.75700  Biso   1.000  C
  C129     1.0000 0.37390  0.86470  0.75700  Biso   1.000  C
  C130     1.0000 0.50920  0.37390  0.75700  Biso   1.000  C
  C131     1.0000 0.86470  0.49080  0.75700  Biso   1.000  C
  C132     1.0000 0.62610  0.13530  0.75700  Biso   1.000  C
  C133     1.0000 0.37390  0.50920  0.25700  Biso   1.000  C
  C134     1.0000 0.49080  0.86470  0.25700  Biso   1.000  C
  C135     1.0000 0.13530  0.62610  0.25700  Biso   1.000  C
  C136     1.0000 0.62610  0.49080  0.25700  Biso   1.000  C
  C137     1.0000 0.50920  0.13530  0.25700  Biso   1.000  C
  C138     1.0000 0.86470  0.37390  0.25700  Biso   1.000  C
  C139     1.0000 0.50920  0.37390  0.24300  Biso   1.000  C
  C140     1.0000 0.86470  0.49080  0.24300  Biso   1.000  C
  C141     1.0000 0.62610  0.13530  0.24300  Biso   1.000  C
  C142     1.0000 0.49080  0.62610  0.24300  Biso   1.000  C
  C143     1.0000 0.13530  0.50920  0.24300  Biso   1.000  C
  C144     1.0000 0.37390  0.86470  0.24300  Biso   1.000  C
  H1       1.0000 0.86470  0.62440  0.11640  Biso   1.000  H
  H2       1.0000 0.37560  0.24030  0.11640  Biso   1.000  H
  H3       1.0000 0.75970  0.13530  0.11640  Biso   1.000  H
  H4       1.0000 0.13530  0.37560  0.11640  Biso   1.000  H
  H5       1.0000 0.62440  0.75970  0.11640  Biso   1.000  H
  H6       1.0000 0.24030  0.86470  0.11640  Biso   1.000  H
  H7       1.0000 0.62440  0.86470  0.38360  Biso   1.000  H
  H8       1.0000 0.24030  0.37560  0.38360  Biso   1.000  H
  H9       1.0000 0.13530  0.75970  0.38360  Biso   1.000  H
  H10      1.0000 0.37560  0.13530  0.38360  Biso   1.000  H
  H11      1.0000 0.75970  0.62440  0.38360  Biso   1.000  H
  H12      1.0000 0.86470  0.24030  0.38360  Biso   1.000  H
  H13      1.0000 0.13530  0.37560  0.88360  Biso   1.000  H
  H14      1.0000 0.62440  0.75970  0.88360  Biso   1.000  H
  H15      1.0000 0.24030  0.86470  0.88360  Biso   1.000  H
  H16      1.0000 0.86470  0.62440  0.88360  Biso   1.000  H
  H17      1.0000 0.37560  0.24030  0.88360  Biso   1.000  H
  H18      1.0000 0.75970  0.13530  0.88360  Biso   1.000  H
  H19      1.0000 0.37560  0.13530  0.61640  Biso   1.000  H
  H20      1.0000 0.75970  0.62440  0.61640  Biso   1.000  H
  H21      1.0000 0.86470  0.24030  0.61640  Biso   1.000  H
  H22      1.0000 0.62440  0.86470  0.61640  Biso   1.000  H
  H23      1.0000 0.24030  0.37560  0.61640  Biso   1.000  H
  H24      1.0000 0.13530  0.75970  0.61640  Biso   1.000  H
  H25      1.0000 0.88020  0.68260  0.06820  Biso   1.000  H
  H26      1.0000 0.31740  0.19760  0.06820  Biso   1.000  H
  H27      1.0000 0.80240  0.11980  0.06820  Biso   1.000  H
  H28      1.0000 0.11980  0.31740  0.06820  Biso   1.000  H
  H29      1.0000 0.68260  0.80240  0.06820  Biso   1.000  H
  H30      1.0000 0.19760  0.88020  0.06820  Biso   1.000  H
  H31      1.0000 0.68260  0.88020  0.43180  Biso   1.000  H
  H32      1.0000 0.19760  0.31740  0.43180  Biso   1.000  H
  H33      1.0000 0.11980  0.80240  0.43180  Biso   1.000  H
  H34      1.0000 0.31740  0.11980  0.43180  Biso   1.000  H
  H35      1.0000 0.80240  0.68260  0.43180  Biso   1.000  H
  H36      1.0000 0.88020  0.19760  0.43180  Biso   1.000  H
  H37      1.0000 0.11980  0.31740  0.93180  Biso   1.000  H
  H38      1.0000 0.68260  0.80240  0.93180  Biso   1.000  H
  H39      1.0000 0.19760  0.88020  0.93180  Biso   1.000  H
  H40      1.0000 0.88020  0.68260  0.93180  Biso   1.000  H
  H41      1.0000 0.31740  0.19760  0.93180  Biso   1.000  H
  H42      1.0000 0.80240  0.11980  0.93180  Biso   1.000  H
  H43      1.0000 0.31740  0.11980  0.56820  Biso   1.000  H
  H44      1.0000 0.80240  0.68260  0.56820  Biso   1.000  H
  H45      1.0000 0.88020  0.19760  0.56820  Biso   1.000  H
  H46      1.0000 0.68260  0.88020  0.56820  Biso   1.000  H
  H47      1.0000 0.19760  0.31740  0.56820  Biso   1.000  H
  H48      1.0000 0.11980  0.80240  0.56820  Biso   1.000  H
  H49      1.0000 0.97460  0.70820  0.07090  Biso   1.000  H
  H50      1.0000 0.29180  0.26640  0.07090  Biso   1.000  H
  H51      1.0000 0.73360  0.02540  0.07090  Biso   1.000  H
  H52      1.0000 0.02540  0.29180  0.07090  Biso   1.000  H
  H53      1.0000 0.70820  0.73360  0.07090  Biso   1.000  H
  H54      1.0000 0.26640  0.97460  0.07090  Biso   1.000  H
  H55      1.0000 0.70820  0.97460  0.42910  Biso   1.000  H
  H56      1.0000 0.26640  0.29180  0.42910  Biso   1.000  H
  H57      1.0000 0.02540  0.73360  0.42910  Biso   1.000  H
  H58      1.0000 0.29180  0.02540  0.42910  Biso   1.000  H
  H59      1.0000 0.73360  0.70820  0.42910  Biso   1.000  H
  H60      1.0000 0.97460  0.26640  0.42910  Biso   1.000  H
  H61      1.0000 0.02540  0.29180  0.92910  Biso   1.000  H
  H62      1.0000 0.70820  0.73360  0.92910  Biso   1.000  H
  H63      1.0000 0.26640  0.97460  0.92910  Biso   1.000  H
  H64      1.0000 0.97460  0.70820  0.92910  Biso   1.000  H
  H65      1.0000 0.29180  0.26640  0.92910  Biso   1.000  H
  H66      1.0000 0.73360  0.02540  0.92910  Biso   1.000  H
  H67      1.0000 0.29180  0.02540  0.57090  Biso   1.000  H
  H68      1.0000 0.73360  0.70820  0.57090  Biso   1.000  H
  H69      1.0000 0.97460  0.26640  0.57090  Biso   1.000  H
  H70      1.0000 0.70820  0.97460  0.57090  Biso   1.000  H
  H71      1.0000 0.26640  0.29180  0.57090  Biso   1.000  H
  H72      1.0000 0.02540  0.73360  0.57090  Biso   1.000  H
  H73      1.0000 0.95880  0.64890  0.11620  Biso   1.000  H
  H74      1.0000 0.35110  0.30990  0.11620  Biso   1.000  H
  H75      1.0000 0.69010  0.04120  0.11620  Biso   1.000  H
  H76      1.0000 0.04120  0.35110  0.11620  Biso   1.000  H
  H77      1.0000 0.64890  0.69010  0.11620  Biso   1.000  H
  H78      1.0000 0.30990  0.95880  0.11620  Biso   1.000  H
  H79      1.0000 0.64890  0.95880  0.38380  Biso   1.000  H
  H80      1.0000 0.30990  0.35110  0.38380  Biso   1.000  H
  H81      1.0000 0.04120  0.69010  0.38380  Biso   1.000  H
  H82      1.0000 0.35110  0.04120  0.38380  Biso   1.000  H
  H83      1.0000 0.69010  0.64890  0.38380  Biso   1.000  H
  H84      1.0000 0.95880  0.30990  0.38380  Biso   1.000  H
  H85      1.0000 0.04120  0.35110  0.88380  Biso   1.000  H
  H86      1.0000 0.64890  0.69010  0.88380  Biso   1.000  H
  H87      1.0000 0.30990  0.95880  0.88380  Biso   1.000  H
  H88      1.0000 0.95880  0.64890  0.88380  Biso   1.000  H
  H89      1.0000 0.35110  0.30990  0.88380  Biso   1.000  H
  H90      1.0000 0.69010  0.04120  0.88380  Biso   1.000  H
  H91      1.0000 0.35110  0.04120  0.61620  Biso   1.000  H
  H92      1.0000 0.69010  0.64890  0.61620  Biso   1.000  H
  H93      1.0000 0.95880  0.30990  0.61620  Biso   1.000  H
  H94      1.0000 0.64890  0.95880  0.61620  Biso   1.000  H
  H95      1.0000 0.30990  0.35110  0.61620  Biso   1.000  H
  H96      1.0000 0.04120  0.69010  0.61620  Biso   1.000  H
  H97      1.0000 0.84280  0.53280  0.95420  Biso   1.000  H
  H98      1.0000 0.46720  0.31000  0.95420  Biso   1.000  H
  H99      1.0000 0.69000  0.15720  0.95420  Biso   1.000  H
  H100     1.0000 0.15720  0.46720  0.95420  Biso   1.000  H
  H101     1.0000 0.53280  0.69000  0.95420  Biso   1.000  H
  H102     1.0000 0.31000  0.84280  0.95420  Biso   1.000  H
  H103     1.0000 0.53280  0.84280  0.54580  Biso   1.000  H
  H104     1.0000 0.31000  0.46720  0.54580  Biso   1.000  H
  H105     1.0000 0.15720  0.69000  0.54580  Biso   1.000  H
  H106     1.0000 0.46720  0.15720  0.54580  Biso   1.000  H
  H107     1.0000 0.69000  0.53280  0.54580  Biso   1.000  H
  H108     1.0000 0.84280  0.31000  0.54580  Biso   1.000  H
  H109     1.0000 0.15720  0.46720  0.04580  Biso   1.000  H
  H110     1.0000 0.53280  0.69000  0.04580  Biso   1.000  H
  H111     1.0000 0.31000  0.84280  0.04580  Biso   1.000  H
  H112     1.0000 0.84280  0.53280  0.04580  Biso   1.000  H
  H113     1.0000 0.46720  0.31000  0.04580  Biso   1.000  H
  H114     1.0000 0.69000  0.15720  0.04580  Biso   1.000  H
  H115     1.0000 0.46720  0.15720  0.45420  Biso   1.000  H
  H116     1.0000 0.69000  0.53280  0.45420  Biso   1.000  H
  H117     1.0000 0.84280  0.31000  0.45420  Biso   1.000  H
  H118     1.0000 0.53280  0.84280  0.45420  Biso   1.000  H
  H119     1.0000 0.31000  0.46720  0.45420  Biso   1.000  H
  H120     1.0000 0.15720  0.69000  0.45420  Biso   1.000  H
  H121     1.0000 0.93480  0.55790  0.95420  Biso   1.000  H
  H122     1.0000 0.44210  0.37690  0.95420  Biso   1.000  H
  H123     1.0000 0.62310  0.06520  0.95420  Biso   1.000  H
  H124     1.0000 0.06520  0.44210  0.95420  Biso   1.000  H
  H125     1.0000 0.55790  0.62310  0.95420  Biso   1.000  H
  H126     1.0000 0.37690  0.93480  0.95420  Biso   1.000  H
  H127     1.0000 0.55790  0.93480  0.54580  Biso   1.000  H
  H128     1.0000 0.37690  0.44210  0.54580  Biso   1.000  H
  H129     1.0000 0.06520  0.62310  0.54580  Biso   1.000  H
  H130     1.0000 0.44210  0.06520  0.54580  Biso   1.000  H
  H131     1.0000 0.62310  0.55790  0.54580  Biso   1.000  H
  H132     1.0000 0.93480  0.37690  0.54580  Biso   1.000  H
  H133     1.0000 0.06520  0.44210  0.04580  Biso   1.000  H
  H134     1.0000 0.55790  0.62310  0.04580  Biso   1.000  H
  H135     1.0000 0.37690  0.93480  0.04580  Biso   1.000  H
  H136     1.0000 0.93480  0.55790  0.04580  Biso   1.000  H
  H137     1.0000 0.44210  0.37690  0.04580  Biso   1.000  H
  H138     1.0000 0.62310  0.06520  0.04580  Biso   1.000  H
  H139     1.0000 0.44210  0.06520  0.45420  Biso   1.000  H
  H140     1.0000 0.62310  0.55790  0.45420  Biso   1.000  H
  H141     1.0000 0.93480  0.37690  0.45420  Biso   1.000  H
  H142     1.0000 0.55790  0.93480  0.45420  Biso   1.000  H
  H143     1.0000 0.37690  0.44210  0.45420  Biso   1.000  H
  H144     1.0000 0.06520  0.62310  0.45420  Biso   1.000  H
  H145     1.0000 0.60410  0.36870  0.82930  Biso   1.000  H
  H146     1.0000 0.63130  0.23540  0.82930  Biso   1.000  H
  H147     1.0000 0.76460  0.39590  0.82930  Biso   1.000  H
  H148     1.0000 0.39590  0.63130  0.82930  Biso   1.000  H
  H149     1.0000 0.36870  0.76460  0.82930  Biso   1.000  H
  H150     1.0000 0.23540  0.60410  0.82930  Biso   1.000  H
  H151     1.0000 0.36870  0.60410  0.67070  Biso   1.000  H
  H152     1.0000 0.23540  0.63130  0.67070  Biso   1.000  H
  H153     1.0000 0.39590  0.76460  0.67070  Biso   1.000  H
  H154     1.0000 0.63130  0.39590  0.67070  Biso   1.000  H
  H155     1.0000 0.76460  0.36870  0.67070  Biso   1.000  H
  H156     1.0000 0.60410  0.23540  0.67070  Biso   1.000  H
  H157     1.0000 0.39590  0.63130  0.17070  Biso   1.000  H
  H158     1.0000 0.36870  0.76460  0.17070  Biso   1.000  H
  H159     1.0000 0.23540  0.60410  0.17070  Biso   1.000  H
  H160     1.0000 0.60410  0.36870  0.17070  Biso   1.000  H
  H161     1.0000 0.63130  0.23540  0.17070  Biso   1.000  H
  H162     1.0000 0.76460  0.39590  0.17070  Biso   1.000  H
  H163     1.0000 0.63130  0.39590  0.32930  Biso   1.000  H
  H164     1.0000 0.76460  0.36870  0.32930  Biso   1.000  H
  H165     1.0000 0.60410  0.23540  0.32930  Biso   1.000  H
  H166     1.0000 0.36870  0.60410  0.32930  Biso   1.000  H
  H167     1.0000 0.23540  0.63130  0.32930  Biso   1.000  H
  H168     1.0000 0.39590  0.76460  0.32930  Biso   1.000  H
  H169     1.0000 0.66590  0.41750  0.79350  Biso   1.000  H
  H170     1.0000 0.58250  0.24840  0.79350  Biso   1.000  H
  H171     1.0000 0.75160  0.33410  0.79350  Biso   1.000  H
  H172     1.0000 0.33410  0.58250  0.79350  Biso   1.000  H
  H173     1.0000 0.41750  0.75160  0.79350  Biso   1.000  H
  H174     1.0000 0.24840  0.66590  0.79350  Biso   1.000  H
  H175     1.0000 0.41750  0.66590  0.70650  Biso   1.000  H
  H176     1.0000 0.24840  0.58250  0.70650  Biso   1.000  H
  H177     1.0000 0.33410  0.75160  0.70650  Biso   1.000  H
  H178     1.0000 0.58250  0.33410  0.70650  Biso   1.000  H
  H179     1.0000 0.75160  0.41750  0.70650  Biso   1.000  H
  H180     1.0000 0.66590  0.24840  0.70650  Biso   1.000  H
  H181     1.0000 0.33410  0.58250  0.20650  Biso   1.000  H
  H182     1.0000 0.41750  0.75160  0.20650  Biso   1.000  H
  H183     1.0000 0.24840  0.66590  0.20650  Biso   1.000  H
  H184     1.0000 0.66590  0.41750  0.20650  Biso   1.000  H
  H185     1.0000 0.58250  0.24840  0.20650  Biso   1.000  H
  H186     1.0000 0.75160  0.33410  0.20650  Biso   1.000  H
  H187     1.0000 0.58250  0.33410  0.29350  Biso   1.000  H
  H188     1.0000 0.75160  0.41750  0.29350  Biso   1.000  H
  H189     1.0000 0.66590  0.24840  0.29350  Biso   1.000  H
  H190     1.0000 0.41750  0.66590  0.29350  Biso   1.000  H
  H191     1.0000 0.24840  0.58250  0.29350  Biso   1.000  H
  H192     1.0000 0.33410  0.75160  0.29350  Biso   1.000  H
  H193     1.0000 0.52910  0.45010  0.82350  Biso   1.000  H
  H194     1.0000 0.54990  0.07900  0.82350  Biso   1.000  H
  H195     1.0000 0.92100  0.47090  0.82350  Biso   1.000  H
  H196     1.0000 0.47090  0.54990  0.82350  Biso   1.000  H
  H197     1.0000 0.45010  0.92100  0.82350  Biso   1.000  H
  H198     1.0000 0.07900  0.52910  0.82350  Biso   1.000  H
  H199     1.0000 0.45010  0.52910  0.67650  Biso   1.000  H
  H200     1.0000 0.07900  0.54990  0.67650  Biso   1.000  H
  H201     1.0000 0.47090  0.92100  0.67650  Biso   1.000  H
  H202     1.0000 0.54990  0.47090  0.67650  Biso   1.000  H
  H203     1.0000 0.92100  0.45010  0.67650  Biso   1.000  H
  H204     1.0000 0.52910  0.07900  0.67650  Biso   1.000  H
  H205     1.0000 0.47090  0.54990  0.17650  Biso   1.000  H
  H206     1.0000 0.45010  0.92100  0.17650  Biso   1.000  H
  H207     1.0000 0.07900  0.52910  0.17650  Biso   1.000  H
  H208     1.0000 0.52910  0.45010  0.17650  Biso   1.000  H
  H209     1.0000 0.54990  0.07900  0.17650  Biso   1.000  H
  H210     1.0000 0.92100  0.47090  0.17650  Biso   1.000  H
  H211     1.0000 0.54990  0.47090  0.32350  Biso   1.000  H
  H212     1.0000 0.92100  0.45010  0.32350  Biso   1.000  H
  H213     1.0000 0.52910  0.07900  0.32350  Biso   1.000  H
  H214     1.0000 0.45010  0.52910  0.32350  Biso   1.000  H
  H215     1.0000 0.07900  0.54990  0.32350  Biso   1.000  H
  H216     1.0000 0.47090  0.92100  0.32350  Biso   1.000  H
  H217     1.0000 0.53040  0.39950  0.87400  Biso   1.000  H
  H218     1.0000 0.60050  0.13090  0.87400  Biso   1.000  H
  H219     1.0000 0.86910  0.46960  0.87400  Biso   1.000  H
  H220     1.0000 0.46960  0.60050  0.87400  Biso   1.000  H
  H221     1.0000 0.39950  0.86910  0.87400  Biso   1.000  H
  H222     1.0000 0.13090  0.53040  0.87400  Biso   1.000  H
  H223     1.0000 0.39950  0.53040  0.62600  Biso   1.000  H
  H224     1.0000 0.13090  0.60050  0.62600  Biso   1.000  H
  H225     1.0000 0.46960  0.86910  0.62600  Biso   1.000  H
  H226     1.0000 0.60050  0.46960  0.62600  Biso   1.000  H
  H227     1.0000 0.86910  0.39950  0.62600  Biso   1.000  H
  H228     1.0000 0.53040  0.13090  0.62600  Biso   1.000  H
  H229     1.0000 0.46960  0.60050  0.12600  Biso   1.000  H
  H230     1.0000 0.39950  0.86910  0.12600  Biso   1.000  H
  H231     1.0000 0.13090  0.53040  0.12600  Biso   1.000  H
  H232     1.0000 0.53040  0.39950  0.12600  Biso   1.000  H
  H233     1.0000 0.60050  0.13090  0.12600  Biso   1.000  H
  H234     1.0000 0.86910  0.46960  0.12600  Biso   1.000  H
  H235     1.0000 0.60050  0.46960  0.37400  Biso   1.000  H
  H236     1.0000 0.86910  0.39950  0.37400  Biso   1.000  H
  H237     1.0000 0.53040  0.13090  0.37400  Biso   1.000  H
  H238     1.0000 0.39950  0.53040  0.37400  Biso   1.000  H
  H239     1.0000 0.13090  0.60050  0.37400  Biso   1.000  H
  H240     1.0000 0.46960  0.86910  0.37400  Biso   1.000  H
  H241     1.0000 0.66610  0.50090  0.72570  Biso   1.000  H
  H242     1.0000 0.49910  0.16520  0.72570  Biso   1.000  H
  H243     1.0000 0.83480  0.33390  0.72570  Biso   1.000  H
  H244     1.0000 0.33390  0.49910  0.72570  Biso   1.000  H
  H245     1.0000 0.50090  0.83480  0.72570  Biso   1.000  H
  H246     1.0000 0.16520  0.66610  0.72570  Biso   1.000  H
  H247     1.0000 0.50090  0.66610  0.77430  Biso   1.000  H
  H248     1.0000 0.16520  0.49910  0.77430  Biso   1.000  H
  H249     1.0000 0.33390  0.83480  0.77430  Biso   1.000  H
  H250     1.0000 0.49910  0.33390  0.77430  Biso   1.000  H
  H251     1.0000 0.83480  0.50090  0.77430  Biso   1.000  H
  H252     1.0000 0.66610  0.16520  0.77430  Biso   1.000  H
  H253     1.0000 0.33390  0.49910  0.27430  Biso   1.000  H
  H254     1.0000 0.50090  0.83480  0.27430  Biso   1.000  H
  H255     1.0000 0.16520  0.66610  0.27430  Biso   1.000  H
  H256     1.0000 0.66610  0.50090  0.27430  Biso   1.000  H
  H257     1.0000 0.49910  0.16520  0.27430  Biso   1.000  H
  H258     1.0000 0.83480  0.33390  0.27430  Biso   1.000  H
  H259     1.0000 0.49910  0.33390  0.22570  Biso   1.000  H
  H260     1.0000 0.83480  0.50090  0.22570  Biso   1.000  H
  H261     1.0000 0.66610  0.16520  0.22570  Biso   1.000  H
  H262     1.0000 0.50090  0.66610  0.22570  Biso   1.000  H
  H263     1.0000 0.16520  0.49910  0.22570  Biso   1.000  H
  H264     1.0000 0.33390  0.83480  0.22570  Biso   1.000  H
  H265     1.0000 0.62670  0.52770  0.75690  Biso   1.000  H
  H266     1.0000 0.47230  0.09900  0.75690  Biso   1.000  H
  H267     1.0000 0.90100  0.37330  0.75690  Biso   1.000  H
  H268     1.0000 0.37330  0.47230  0.75690  Biso   1.000  H
  H269     1.0000 0.52770  0.90100  0.75690  Biso   1.000  H
  H270     1.0000 0.09900  0.62670  0.75690  Biso   1.000  H
  H271     1.0000 0.52770  0.62670  0.74310  Biso   1.000  H
  H272     1.0000 0.09900  0.47230  0.74310  Biso   1.000  H
  H273     1.0000 0.37330  0.90100  0.74310  Biso   1.000  H
  H274     1.0000 0.47230  0.37330  0.74310  Biso   1.000  H
  H275     1.0000 0.90100  0.52770  0.74310  Biso   1.000  H
  H276     1.0000 0.62670  0.09900  0.74310  Biso   1.000  H
  H277     1.0000 0.37330  0.47230  0.24310  Biso   1.000  H
  H278     1.0000 0.52770  0.90100  0.24310  Biso   1.000  H
  H279     1.0000 0.09900  0.62670  0.24310  Biso   1.000  H
  H280     1.0000 0.62670  0.52770  0.24310  Biso   1.000  H
  H281     1.0000 0.47230  0.09900  0.24310  Biso   1.000  H
  H282     1.0000 0.90100  0.37330  0.24310  Biso   1.000  H
  H283     1.0000 0.47230  0.37330  0.25690  Biso   1.000  H
  H284     1.0000 0.90100  0.52770  0.25690  Biso   1.000  H
  H285     1.0000 0.62670  0.09900  0.25690  Biso   1.000  H
  H286     1.0000 0.52770  0.62670  0.25690  Biso   1.000  H
  H287     1.0000 0.09900  0.47230  0.25690  Biso   1.000  H
  H288     1.0000 0.37330  0.90100  0.25690  Biso   1.000  H
