data_image0
_cell_length_a       21.2153
_cell_length_b       9.3378
_cell_length_c       22.0024
_cell_angle_alpha    90
_cell_angle_beta     113.541
_cell_angle_gamma    90

_symmetry_space_group_name_H-M    "P 1"
_symmetry_int_tables_number       1

loop_
  _symmetry_equiv_pos_as_xyz
  'x, y, z'

loop_
  _atom_site_label
  _atom_site_occupancy
  _atom_site_fract_x
  _atom_site_fract_y
  _atom_site_fract_z
  _atom_site_thermal_displace_type
  _atom_site_B_iso_or_equiv
  _atom_site_type_symbol
  Cu1      1.0000 0.15945  0.53619  0.44435  Biso   1.000  Cu
  Cu2      1.0000 0.34055  0.03619  0.05565  Biso   1.000  Cu
  Cu3      1.0000 0.84055  0.46381  0.55565  Biso   1.000  Cu
  Cu4      1.0000 0.65945  0.96381  0.94435  Biso   1.000  Cu
  Cu5      1.0000 0.35198  0.90278  0.56714  Biso   1.000  Cu
  Cu6      1.0000 0.14802  0.40278  0.93286  Biso   1.000  Cu
  Cu7      1.0000 0.64802  0.09722  0.43286  Biso   1.000  Cu
  Cu8      1.0000 0.85198  0.59722  0.06714  Biso   1.000  Cu
  O1       1.0000 0.22790  0.68350  0.48330  Biso   1.000  O
  O2       1.0000 0.27210  0.18350  0.01670  Biso   1.000  O
  O3       1.0000 0.77210  0.31650  0.51670  Biso   1.000  O
  O4       1.0000 0.72790  0.81650  0.98330  Biso   1.000  O
  O5       1.0000 0.32080  0.78380  0.47910  Biso   1.000  O
  O6       1.0000 0.17920  0.28380  0.02090  Biso   1.000  O
  O7       1.0000 0.67920  0.21620  0.52090  Biso   1.000  O
  O8       1.0000 0.82080  0.71620  0.97910  Biso   1.000  O
  O9       1.0000 0.68510  0.37630  0.04160  Biso   1.000  O
  O10      1.0000 0.81490  0.87630  0.45840  Biso   1.000  O
  O11      1.0000 0.31490  0.62370  0.95840  Biso   1.000  O
  O12      1.0000 0.18510  0.12370  0.54160  Biso   1.000  O
  O13      1.0000 0.77930  0.45990  0.03330  Biso   1.000  O
  O14      1.0000 0.72070  0.95990  0.46670  Biso   1.000  O
  O15      1.0000 0.22070  0.54010  0.96670  Biso   1.000  O
  O16      1.0000 0.27930  0.04010  0.53330  Biso   1.000  O
  O17      1.0000 0.21970  0.39180  0.51680  Biso   1.000  O
  O18      1.0000 0.28030  0.89180  0.98320  Biso   1.000  O
  O19      1.0000 0.78030  0.60820  0.48320  Biso   1.000  O
  O20      1.0000 0.71970  0.10820  0.01680  Biso   1.000  O
  H1       1.0000 0.20300  0.30600  0.52300  Biso   1.000  H
  H2       1.0000 0.29700  0.80600  0.97700  Biso   1.000  H
  H3       1.0000 0.79700  0.69400  0.47700  Biso   1.000  H
  H4       1.0000 0.70300  0.19400  0.02300  Biso   1.000  H
  H5       1.0000 0.22100  0.44000  0.55200  Biso   1.000  H
  H6       1.0000 0.27900  0.94000  0.94800  Biso   1.000  H
  H7       1.0000 0.77900  0.56000  0.44800  Biso   1.000  H
  H8       1.0000 0.72100  0.06000  0.05200  Biso   1.000  H
  N1       1.0000 0.08280  0.66000  0.44860  Biso   1.000  N
  N2       1.0000 0.41720  0.16000  0.05140  Biso   1.000  N
  N3       1.0000 0.91720  0.34000  0.55140  Biso   1.000  N
  N4       1.0000 0.58280  0.84000  0.94860  Biso   1.000  N
  N5       1.0000 0.08330  0.39230  0.41040  Biso   1.000  N
  N6       1.0000 0.41670  0.89230  0.08960  Biso   1.000  N
  N7       1.0000 0.91670  0.60770  0.58960  Biso   1.000  N
  N8       1.0000 0.58330  0.10770  0.91040  Biso   1.000  N
  N9       1.0000 0.42580  0.04180  0.55990  Biso   1.000  N
  N10      1.0000 0.07420  0.54180  0.94010  Biso   1.000  N
  N11      1.0000 0.57420  0.95820  0.44010  Biso   1.000  N
  N12      1.0000 0.92580  0.45820  0.05990  Biso   1.000  N
  N13      1.0000 0.43330  0.77260  0.60210  Biso   1.000  N
  N14      1.0000 0.06670  0.27260  0.89790  Biso   1.000  N
  N15      1.0000 0.56670  0.22740  0.39790  Biso   1.000  N
  N16      1.0000 0.93330  0.72740  0.10210  Biso   1.000  N
  N17      1.0000 0.19590  0.54650  0.36960  Biso   1.000  N
  N18      1.0000 0.30410  0.04650  0.13040  Biso   1.000  N
  N19      1.0000 0.80410  0.45350  0.63040  Biso   1.000  N
  N20      1.0000 0.69590  0.95350  0.86960  Biso   1.000  N
  H9       1.0000 0.18700  0.47500  0.35700  Biso   1.000  H
  H10      1.0000 0.31300  0.97500  0.14300  Biso   1.000  H
  H11      1.0000 0.81300  0.52500  0.64300  Biso   1.000  H
  H12      1.0000 0.68700  0.02500  0.85700  Biso   1.000  H
  N21      1.0000 0.82190  0.60370  0.14360  Biso   1.000  N
  N22      1.0000 0.67810  0.10370  0.35640  Biso   1.000  N
  N23      1.0000 0.17810  0.39630  0.85640  Biso   1.000  N
  N24      1.0000 0.32190  0.89630  0.64360  Biso   1.000  N
  H13      1.0000 0.82770  0.69740  0.15770  Biso   1.000  H
  H14      1.0000 0.67230  0.19740  0.34230  Biso   1.000  H
  H15      1.0000 0.17230  0.30260  0.84230  Biso   1.000  H
  H16      1.0000 0.32770  0.80260  0.65770  Biso   1.000  H
  C1       1.0000 0.08320  0.80000  0.46190  Biso   1.000  C
  C2       1.0000 0.41680  0.30000  0.03810  Biso   1.000  C
  C3       1.0000 0.91680  0.20000  0.53810  Biso   1.000  C
  C4       1.0000 0.58320  0.70000  0.96190  Biso   1.000  C
  H17      1.0000 0.12470  0.85140  0.47520  Biso   1.000  H
  H18      1.0000 0.37530  0.35140  0.02480  Biso   1.000  H
  H19      1.0000 0.87530  0.14860  0.52480  Biso   1.000  H
  H20      1.0000 0.62470  0.64860  0.97520  Biso   1.000  H
  C5       1.0000 0.02330  0.87120  0.45640  Biso   1.000  C
  C6       1.0000 0.47670  0.37120  0.04360  Biso   1.000  C
  C7       1.0000 0.97670  0.12880  0.54360  Biso   1.000  C
  C8       1.0000 0.52330  0.62880  0.95640  Biso   1.000  C
  H21      1.0000 0.02500  0.96940  0.46630  Biso   1.000  H
  H22      1.0000 0.47500  0.46940  0.03370  Biso   1.000  H
  H23      1.0000 0.97500  0.03060  0.53370  Biso   1.000  H
  H24      1.0000 0.52500  0.53060  0.96630  Biso   1.000  H
  C9       1.0000 0.96300  0.80060  0.43720  Biso   1.000  C
  C10      1.0000 0.53700  0.30060  0.06280  Biso   1.000  C
  C11      1.0000 0.03700  0.19940  0.56280  Biso   1.000  C
  C12      1.0000 0.46300  0.69940  0.93720  Biso   1.000  C
  H25      1.0000 0.92310  0.84910  0.43430  Biso   1.000  H
  H26      1.0000 0.57690  0.34910  0.06570  Biso   1.000  H
  H27      1.0000 0.07690  0.15090  0.56570  Biso   1.000  H
  H28      1.0000 0.42310  0.65090  0.93430  Biso   1.000  H
  C13      1.0000 0.96010  0.65600  0.42160  Biso   1.000  C
  C14      1.0000 0.53990  0.15600  0.07840  Biso   1.000  C
  C15      1.0000 0.03990  0.34400  0.57840  Biso   1.000  C
  C16      1.0000 0.46010  0.84400  0.92160  Biso   1.000  C
  C17      1.0000 0.89850  0.57230  0.39710  Biso   1.000  C
  C18      1.0000 0.60150  0.07230  0.10290  Biso   1.000  C
  C19      1.0000 0.10150  0.42770  0.60290  Biso   1.000  C
  C20      1.0000 0.39850  0.92770  0.89710  Biso   1.000  C
  H29      1.0000 0.85690  0.61340  0.39420  Biso   1.000  H
  H30      1.0000 0.64310  0.11340  0.10580  Biso   1.000  H
  H31      1.0000 0.14310  0.38660  0.60580  Biso   1.000  H
  H32      1.0000 0.35690  0.88660  0.89420  Biso   1.000  H
  C21      1.0000 0.89920  0.43510  0.37810  Biso   1.000  C
  C22      1.0000 0.60080  0.93510  0.12190  Biso   1.000  C
  C23      1.0000 0.10080  0.56490  0.62190  Biso   1.000  C
  C24      1.0000 0.39920  0.06490  0.87810  Biso   1.000  C
  H33      1.0000 0.85780  0.38290  0.36240  Biso   1.000  H
  H34      1.0000 0.64220  0.88290  0.13760  Biso   1.000  H
  H35      1.0000 0.14220  0.61710  0.63760  Biso   1.000  H
  H36      1.0000 0.35780  0.11710  0.86240  Biso   1.000  H
  C25      1.0000 0.96090  0.36560  0.38080  Biso   1.000  C
  C26      1.0000 0.53910  0.86560  0.11920  Biso   1.000  C
  C27      1.0000 0.03910  0.63440  0.61920  Biso   1.000  C
  C28      1.0000 0.46090  0.13440  0.88080  Biso   1.000  C
  C29      1.0000 0.96470  0.22740  0.35820  Biso   1.000  C
  C30      1.0000 0.53530  0.72740  0.14180  Biso   1.000  C
  C31      1.0000 0.03530  0.77260  0.64180  Biso   1.000  C
  C32      1.0000 0.46470  0.27260  0.85820  Biso   1.000  C
  H37      1.0000 0.92500  0.17020  0.34040  Biso   1.000  H
  H38      1.0000 0.57500  0.67020  0.15960  Biso   1.000  H
  H39      1.0000 0.07500  0.82980  0.65960  Biso   1.000  H
  H40      1.0000 0.42500  0.32980  0.84040  Biso   1.000  H
  C33      1.0000 0.02580  0.17670  0.36210  Biso   1.000  C
  C34      1.0000 0.47420  0.67670  0.13790  Biso   1.000  C
  C35      1.0000 0.97420  0.82330  0.63790  Biso   1.000  C
  C36      1.0000 0.52580  0.32330  0.86210  Biso   1.000  C
  H41      1.0000 0.02850  0.08440  0.34630  Biso   1.000  H
  H42      1.0000 0.47150  0.58440  0.15370  Biso   1.000  H
  H43      1.0000 0.97150  0.91560  0.65370  Biso   1.000  H
  H44      1.0000 0.52850  0.41560  0.84630  Biso   1.000  H
  C37      1.0000 0.08500  0.26080  0.38950  Biso   1.000  C
  C38      1.0000 0.41500  0.76080  0.11050  Biso   1.000  C
  C39      1.0000 0.91500  0.73920  0.61050  Biso   1.000  C
  C40      1.0000 0.58500  0.23920  0.88950  Biso   1.000  C
  H45      1.0000 0.12730  0.22240  0.39300  Biso   1.000  H
  H46      1.0000 0.37270  0.72240  0.10700  Biso   1.000  H
  H47      1.0000 0.87270  0.77760  0.60700  Biso   1.000  H
  H48      1.0000 0.62730  0.27760  0.89300  Biso   1.000  H
  C41      1.0000 0.02220  0.44600  0.40660  Biso   1.000  C
  C42      1.0000 0.47780  0.94600  0.09340  Biso   1.000  C
  C43      1.0000 0.97780  0.55400  0.59340  Biso   1.000  C
  C44      1.0000 0.52220  0.05400  0.90660  Biso   1.000  C
  C45      1.0000 0.02200  0.59030  0.42760  Biso   1.000  C
  C46      1.0000 0.47800  0.09030  0.07240  Biso   1.000  C
  C47      1.0000 0.97800  0.40970  0.57240  Biso   1.000  C
  C48      1.0000 0.52200  0.90970  0.92760  Biso   1.000  C
  C49      1.0000 0.42140  0.17390  0.53840  Biso   1.000  C
  C50      1.0000 0.07860  0.67390  0.96160  Biso   1.000  C
  C51      1.0000 0.57860  0.82610  0.46160  Biso   1.000  C
  C52      1.0000 0.92140  0.32610  0.03840  Biso   1.000  C
  H49      1.0000 0.37780  0.21720  0.52080  Biso   1.000  H
  H50      1.0000 0.12220  0.71720  0.97920  Biso   1.000  H
  H51      1.0000 0.62220  0.78280  0.47920  Biso   1.000  H
  H52      1.0000 0.87780  0.28280  0.02080  Biso   1.000  H
  C53      1.0000 0.47740  0.25390  0.54010  Biso   1.000  C
  C54      1.0000 0.02260  0.75390  0.95990  Biso   1.000  C
  C55      1.0000 0.52260  0.74610  0.45990  Biso   1.000  C
  C56      1.0000 0.97740  0.24610  0.04010  Biso   1.000  C
  H53      1.0000 0.47160  0.34870  0.52440  Biso   1.000  H
  H54      1.0000 0.02840  0.84870  0.97560  Biso   1.000  H
  H55      1.0000 0.52840  0.65130  0.47560  Biso   1.000  H
  H56      1.0000 0.97160  0.15130  0.02440  Biso   1.000  H
  C57      1.0000 0.54060  0.19180  0.56490  Biso   1.000  C
  C58      1.0000 0.95940  0.69180  0.93510  Biso   1.000  C
  C59      1.0000 0.45940  0.80820  0.43510  Biso   1.000  C
  C60      1.0000 0.04060  0.30820  0.06490  Biso   1.000  C
  H57      1.0000 0.57910  0.24320  0.56590  Biso   1.000  H
  H58      1.0000 0.92090  0.74320  0.93410  Biso   1.000  H
  H59      1.0000 0.42090  0.75680  0.43410  Biso   1.000  H
  H60      1.0000 0.07910  0.25680  0.06590  Biso   1.000  H
  C61      1.0000 0.54820  0.05160  0.58880  Biso   1.000  C
  C62      1.0000 0.95180  0.55160  0.91120  Biso   1.000  C
  C63      1.0000 0.45180  0.94840  0.41120  Biso   1.000  C
  C64      1.0000 0.04820  0.44840  0.08880  Biso   1.000  C
  C65      1.0000 0.61320  0.97590  0.61690  Biso   1.000  C
  C66      1.0000 0.88680  0.47590  0.88310  Biso   1.000  C
  C67      1.0000 0.38680  0.02410  0.38310  Biso   1.000  C
  C68      1.0000 0.11320  0.52410  0.11690  Biso   1.000  C
  H61      1.0000 0.65370  0.02240  0.62020  Biso   1.000  H
  H62      1.0000 0.84630  0.52240  0.87980  Biso   1.000  H
  H63      1.0000 0.34630  0.97760  0.37980  Biso   1.000  H
  H64      1.0000 0.15370  0.47760  0.12020  Biso   1.000  H
  C69      1.0000 0.61650  0.84260  0.63800  Biso   1.000  C
  C70      1.0000 0.88350  0.34260  0.86200  Biso   1.000  C
  C71      1.0000 0.38350  0.15740  0.36200  Biso   1.000  C
  C72      1.0000 0.11650  0.65740  0.13800  Biso   1.000  C
  H65      1.0000 0.65950  0.79730  0.65700  Biso   1.000  H
  H66      1.0000 0.84050  0.29730  0.84300  Biso   1.000  H
  H67      1.0000 0.34050  0.20270  0.34300  Biso   1.000  H
  H68      1.0000 0.15950  0.70270  0.15700  Biso   1.000  H
  C73      1.0000 0.55700  0.76600  0.63280  Biso   1.000  C
  C74      1.0000 0.94300  0.26600  0.86720  Biso   1.000  C
  C75      1.0000 0.44300  0.23400  0.36720  Biso   1.000  C
  C76      1.0000 0.05700  0.73400  0.13280  Biso   1.000  C
  C77      1.0000 0.55730  0.62410  0.65340  Biso   1.000  C
  C78      1.0000 0.94270  0.12410  0.84660  Biso   1.000  C
  C79      1.0000 0.44270  0.37590  0.34660  Biso   1.000  C
  C80      1.0000 0.05730  0.87590  0.15340  Biso   1.000  C
  H69      1.0000 0.59890  0.57290  0.67160  Biso   1.000  H
  H70      1.0000 0.90110  0.07290  0.82840  Biso   1.000  H
  H71      1.0000 0.40110  0.42710  0.32840  Biso   1.000  H
  H72      1.0000 0.09890  0.92710  0.17160  Biso   1.000  H
  C81      1.0000 0.49780  0.56100  0.64700  Biso   1.000  C
  C82      1.0000 0.00220  0.06100  0.85300  Biso   1.000  C
  C83      1.0000 0.50220  0.43900  0.35300  Biso   1.000  C
  C84      1.0000 0.99780  0.93900  0.14700  Biso   1.000  C
  H73      1.0000 0.49810  0.46510  0.66010  Biso   1.000  H
  H74      1.0000 0.00190  0.96510  0.83990  Biso   1.000  H
  H75      1.0000 0.50190  0.53490  0.33990  Biso   1.000  H
  H76      1.0000 0.99810  0.03490  0.16010  Biso   1.000  H
  C85      1.0000 0.43520  0.63690  0.62110  Biso   1.000  C
  C86      1.0000 0.06480  0.13690  0.87890  Biso   1.000  C
  C87      1.0000 0.56480  0.36310  0.37890  Biso   1.000  C
  C88      1.0000 0.93520  0.86310  0.12110  Biso   1.000  C
  H77      1.0000 0.39430  0.59100  0.61710  Biso   1.000  H
  H78      1.0000 0.10570  0.09100  0.88290  Biso   1.000  H
  H79      1.0000 0.60570  0.40900  0.38290  Biso   1.000  H
  H80      1.0000 0.89430  0.90900  0.11710  Biso   1.000  H
  C89      1.0000 0.49340  0.83500  0.60680  Biso   1.000  C
  C90      1.0000 0.00660  0.33500  0.89320  Biso   1.000  C
  C91      1.0000 0.50660  0.16500  0.39320  Biso   1.000  C
  C92      1.0000 0.99340  0.66500  0.10680  Biso   1.000  C
  C93      1.0000 0.48910  0.98030  0.58450  Biso   1.000  C
  C94      1.0000 0.01090  0.48030  0.91550  Biso   1.000  C
  C95      1.0000 0.51090  0.01970  0.41550  Biso   1.000  C
  C96      1.0000 0.98910  0.51970  0.08450  Biso   1.000  C
  C97      1.0000 0.27270  0.69720  0.45900  Biso   1.000  C
  C98      1.0000 0.22730  0.19720  0.04100  Biso   1.000  C
  C99      1.0000 0.72730  0.30280  0.54100  Biso   1.000  C
  C100     1.0000 0.77270  0.80280  0.95900  Biso   1.000  C
  C101     1.0000 0.26750  0.60090  0.40180  Biso   1.000  C
  C102     1.0000 0.23250  0.10090  0.09820  Biso   1.000  C
  C103     1.0000 0.73250  0.39910  0.59820  Biso   1.000  C
  C104     1.0000 0.76750  0.89910  0.90180  Biso   1.000  C
  H81      1.0000 0.27860  0.65680  0.36910  Biso   1.000  H
  H82      1.0000 0.22140  0.15680  0.13090  Biso   1.000  H
  H83      1.0000 0.72140  0.34320  0.63090  Biso   1.000  H
  H84      1.0000 0.77860  0.84320  0.86910  Biso   1.000  H
  C105     1.0000 0.31810  0.48160  0.42800  Biso   1.000  C
  C106     1.0000 0.18190  0.98160  0.07200  Biso   1.000  C
  C107     1.0000 0.68190  0.51840  0.57200  Biso   1.000  C
  C108     1.0000 0.81810  0.01840  0.92800  Biso   1.000  C
  H85      1.0000 0.30590  0.42370  0.45840  Biso   1.000  H
  H86      1.0000 0.19410  0.92370  0.04160  Biso   1.000  H
  H87      1.0000 0.69410  0.57630  0.54160  Biso   1.000  H
  H88      1.0000 0.80590  0.07630  0.95840  Biso   1.000  H
  H89      1.0000 0.36380  0.52100  0.45130  Biso   1.000  H
  H90      1.0000 0.13620  0.02100  0.04870  Biso   1.000  H
  H91      1.0000 0.63620  0.47900  0.54870  Biso   1.000  H
  H92      1.0000 0.86380  0.97900  0.95130  Biso   1.000  H
  H93      1.0000 0.31740  0.42250  0.39150  Biso   1.000  H
  H94      1.0000 0.18260  0.92250  0.10850  Biso   1.000  H
  H95      1.0000 0.68260  0.57750  0.60850  Biso   1.000  H
  H96      1.0000 0.81740  0.07750  0.89150  Biso   1.000  H
  C109     1.0000 0.15420  0.64590  0.31580  Biso   1.000  C
  C110     1.0000 0.34580  0.14590  0.18420  Biso   1.000  C
  C111     1.0000 0.84580  0.35410  0.68420  Biso   1.000  C
  C112     1.0000 0.65420  0.85410  0.81580  Biso   1.000  C
  H97      1.0000 0.17120  0.64260  0.28040  Biso   1.000  H
  H98      1.0000 0.32880  0.14260  0.21960  Biso   1.000  H
  H99      1.0000 0.82880  0.35740  0.71960  Biso   1.000  H
  H100     1.0000 0.67120  0.85740  0.78040  Biso   1.000  H
  H101     1.0000 0.16070  0.74380  0.33340  Biso   1.000  H
  H102     1.0000 0.33930  0.24380  0.16660  Biso   1.000  H
  H103     1.0000 0.83930  0.25620  0.66660  Biso   1.000  H
  H104     1.0000 0.66070  0.75620  0.83340  Biso   1.000  H
  C113     1.0000 0.07880  0.61160  0.28690  Biso   1.000  C
  C114     1.0000 0.42120  0.11160  0.21310  Biso   1.000  C
  C115     1.0000 0.92120  0.38840  0.71310  Biso   1.000  C
  C116     1.0000 0.57880  0.88840  0.78690  Biso   1.000  C
  C117     1.0000 0.05390  0.48080  0.25770  Biso   1.000  C
  C118     1.0000 0.44610  0.98080  0.24230  Biso   1.000  C
  C119     1.0000 0.94610  0.51920  0.74230  Biso   1.000  C
  C120     1.0000 0.55390  0.01920  0.75770  Biso   1.000  C
  H105     1.0000 0.08490  0.40980  0.25680  Biso   1.000  H
  H106     1.0000 0.41510  0.90980  0.24320  Biso   1.000  H
  H107     1.0000 0.91510  0.59020  0.74320  Biso   1.000  H
  H108     1.0000 0.58490  0.09020  0.75680  Biso   1.000  H
  C121     1.0000 0.98360  0.45260  0.22970  Biso   1.000  C
  C122     1.0000 0.51640  0.95260  0.27030  Biso   1.000  C
  C123     1.0000 0.01640  0.54740  0.77030  Biso   1.000  C
  C124     1.0000 0.48360  0.04740  0.72970  Biso   1.000  C
  H109     1.0000 0.96790  0.36320  0.20980  Biso   1.000  H
  H110     1.0000 0.53210  0.86320  0.29020  Biso   1.000  H
  H111     1.0000 0.03210  0.63680  0.79020  Biso   1.000  H
  H112     1.0000 0.46790  0.13680  0.70980  Biso   1.000  H
  C125     1.0000 0.93710  0.55270  0.23080  Biso   1.000  C
  C126     1.0000 0.56290  0.05270  0.26920  Biso   1.000  C
  C127     1.0000 0.06290  0.44730  0.76920  Biso   1.000  C
  C128     1.0000 0.43710  0.94730  0.73080  Biso   1.000  C
  C129     1.0000 0.96140  0.68220  0.26030  Biso   1.000  C
  C130     1.0000 0.53860  0.18220  0.23970  Biso   1.000  C
  C131     1.0000 0.03860  0.31780  0.73970  Biso   1.000  C
  C132     1.0000 0.46140  0.81780  0.76030  Biso   1.000  C
  H113     1.0000 0.93020  0.75180  0.26220  Biso   1.000  H
  H114     1.0000 0.56980  0.25180  0.23780  Biso   1.000  H
  H115     1.0000 0.06980  0.24820  0.73780  Biso   1.000  H
  H116     1.0000 0.43020  0.74820  0.76220  Biso   1.000  H
  C133     1.0000 0.03100  0.71180  0.28720  Biso   1.000  C
  C134     1.0000 0.46900  0.21180  0.21280  Biso   1.000  C
  C135     1.0000 0.96900  0.28820  0.71280  Biso   1.000  C
  C136     1.0000 0.53100  0.78820  0.78720  Biso   1.000  C
  H117     1.0000 0.04630  0.80220  0.30620  Biso   1.000  H
  H118     1.0000 0.45370  0.30220  0.19380  Biso   1.000  H
  H119     1.0000 0.95370  0.19780  0.69380  Biso   1.000  H
  H120     1.0000 0.54630  0.69780  0.80620  Biso   1.000  H
  C137     1.0000 0.85990  0.52110  0.20060  Biso   1.000  C
  C138     1.0000 0.64010  0.02110  0.29940  Biso   1.000  C
  C139     1.0000 0.14010  0.47890  0.79940  Biso   1.000  C
  C140     1.0000 0.35990  0.97890  0.70060  Biso   1.000  C
  H121     1.0000 0.85320  0.41940  0.18870  Biso   1.000  H
  H122     1.0000 0.64680  0.91940  0.31130  Biso   1.000  H
  H123     1.0000 0.14680  0.58060  0.81130  Biso   1.000  H
  H124     1.0000 0.35320  0.08060  0.68870  Biso   1.000  H
  H125     1.0000 0.84150  0.53860  0.23430  Biso   1.000  H
  H126     1.0000 0.65850  0.03860  0.26570  Biso   1.000  H
  H127     1.0000 0.15850  0.46140  0.76570  Biso   1.000  H
  H128     1.0000 0.34150  0.96140  0.73430  Biso   1.000  H
  C141     1.0000 0.74560  0.58570  0.10520  Biso   1.000  C
  C142     1.0000 0.75440  0.08570  0.39480  Biso   1.000  C
  C143     1.0000 0.25440  0.41430  0.89480  Biso   1.000  C
  C144     1.0000 0.24560  0.91430  0.60520  Biso   1.000  C
  H129     1.0000 0.72680  0.67190  0.07770  Biso   1.000  H
  H130     1.0000 0.77320  0.17190  0.42230  Biso   1.000  H
  H131     1.0000 0.27320  0.32810  0.92230  Biso   1.000  H
  H132     1.0000 0.22680  0.82810  0.57770  Biso   1.000  H
  C145     1.0000 0.70810  0.56100  0.14910  Biso   1.000  C
  C146     1.0000 0.79190  0.06100  0.35090  Biso   1.000  C
  C147     1.0000 0.29190  0.43900  0.85090  Biso   1.000  C
  C148     1.0000 0.20810  0.93900  0.64910  Biso   1.000  C
  H133     1.0000 0.71390  0.64410  0.17750  Biso   1.000  H
  H134     1.0000 0.78610  0.14410  0.32250  Biso   1.000  H
  H135     1.0000 0.28610  0.35590  0.82250  Biso   1.000  H
  H136     1.0000 0.21390  0.85590  0.67750  Biso   1.000  H
  H137     1.0000 0.72650  0.47710  0.17620  Biso   1.000  H
  H138     1.0000 0.77350  0.97710  0.32380  Biso   1.000  H
  H139     1.0000 0.27350  0.52290  0.82380  Biso   1.000  H
  H140     1.0000 0.22650  0.02290  0.67620  Biso   1.000  H
  H141     1.0000 0.65960  0.54730  0.12210  Biso   1.000  H
  H142     1.0000 0.84040  0.04730  0.37790  Biso   1.000  H
  H143     1.0000 0.34040  0.45270  0.87790  Biso   1.000  H
  H144     1.0000 0.15960  0.95270  0.62210  Biso   1.000  H
  C149     1.0000 0.73600  0.45540  0.05980  Biso   1.000  C
  C150     1.0000 0.76400  0.95540  0.44020  Biso   1.000  C
  C151     1.0000 0.26400  0.54460  0.94020  Biso   1.000  C
  C152     1.0000 0.23600  0.04460  0.55980  Biso   1.000  C
  Cl1      1.0000 0.67930  0.34260  0.76640  Biso   1.000  Cl
  Cl2      1.0000 0.82070  0.84260  0.73360  Biso   1.000  Cl
  Cl3      1.0000 0.32070  0.65740  0.23360  Biso   1.000  Cl
  Cl4      1.0000 0.17930  0.15740  0.26640  Biso   1.000  Cl
  O21      1.0000 0.71340  0.47930  0.77580  Biso   1.000  O
  O22      1.0000 0.78660  0.97930  0.72420  Biso   1.000  O
  O23      1.0000 0.28660  0.52070  0.22420  Biso   1.000  O
  O24      1.0000 0.21340  0.02070  0.27580  Biso   1.000  O
  O25      1.0000 0.71130  0.26700  0.82930  Biso   1.000  O
  O26      1.0000 0.78870  0.76700  0.67070  Biso   1.000  O
  O27      1.0000 0.28870  0.73300  0.17070  Biso   1.000  O
  O28      1.0000 0.21130  0.23300  0.32930  Biso   1.000  O
  O29      1.0000 0.68190  0.26500  0.71370  Biso   1.000  O
  O30      1.0000 0.81810  0.76500  0.78630  Biso   1.000  O
  O31      1.0000 0.31810  0.73500  0.28630  Biso   1.000  O
  O32      1.0000 0.18190  0.23500  0.21370  Biso   1.000  O
  O33      1.0000 0.61070  0.37100  0.76080  Biso   1.000  O
  O34      1.0000 0.88930  0.87100  0.73920  Biso   1.000  O
  O35      1.0000 0.38930  0.62900  0.23920  Biso   1.000  O
  O36      1.0000 0.11070  0.12900  0.26080  Biso   1.000  O
  O37      1.0000 0.67550  0.53510  0.89100  Biso   1.000  O
  O38      1.0000 0.82450  0.03510  0.60900  Biso   1.000  O
  O39      1.0000 0.32450  0.46490  0.10900  Biso   1.000  O
  O40      1.0000 0.17550  0.96490  0.39100  Biso   1.000  O
  Cl5      1.0000 0.32310  0.44190  0.69355  Biso   1.000  Cl
  Cl6      1.0000 0.17690  0.94190  0.80645  Biso   1.000  Cl
  Cl7      1.0000 0.67690  0.55810  0.30645  Biso   1.000  Cl
  Cl8      1.0000 0.82310  0.05810  0.19355  Biso   1.000  Cl
  O41      1.0000 0.28610  0.54160  0.64490  Biso   1.000  O
  O42      1.0000 0.21390  0.04160  0.85510  Biso   1.000  O
  O43      1.0000 0.71390  0.45840  0.35510  Biso   1.000  O
  O44      1.0000 0.78610  0.95840  0.14490  Biso   1.000  O
  O45      1.0000 0.28160  0.33990  0.70390  Biso   1.000  O
  O46      1.0000 0.21840  0.83990  0.79610  Biso   1.000  O
  O47      1.0000 0.71840  0.66010  0.29610  Biso   1.000  O
  O48      1.0000 0.78160  0.16010  0.20390  Biso   1.000  O
  O49      1.0000 0.36460  0.50950  0.74870  Biso   1.000  O
  O50      1.0000 0.13540  0.00950  0.75130  Biso   1.000  O
  O51      1.0000 0.63540  0.49050  0.25130  Biso   1.000  O
  O52      1.0000 0.86460  0.99050  0.24870  Biso   1.000  O
  O53      1.0000 0.36710  0.36450  0.66840  Biso   1.000  O
  O54      1.0000 0.13290  0.86450  0.83160  Biso   1.000  O
  O55      1.0000 0.63290  0.63550  0.33160  Biso   1.000  O
  O56      1.0000 0.86710  0.13550  0.16840  Biso   1.000  O
  C153     1.0000 0.75380  0.52300  0.12740  Biso   1.000  C
  C154     1.0000 0.74620  0.02300  0.37260  Biso   1.000  C
  C155     1.0000 0.24620  0.47700  0.87260  Biso   1.000  C
  C156     1.0000 0.25380  0.97700  0.62740  Biso   1.000  C
  C157     1.0000 0.70690  0.64700  0.12030  Biso   1.000  C
  C158     1.0000 0.79310  0.14700  0.37970  Biso   1.000  C
  C159     1.0000 0.29310  0.35300  0.87970  Biso   1.000  C
  C160     1.0000 0.20690  0.85300  0.62030  Biso   1.000  C
  Cl9      1.0000 0.67710  0.35900  0.76990  Biso   1.000  Cl
  Cl10     1.0000 0.82290  0.85900  0.73010  Biso   1.000  Cl
  Cl11     1.0000 0.32290  0.64100  0.23010  Biso   1.000  Cl
  Cl12     1.0000 0.17710  0.14100  0.26990  Biso   1.000  Cl
  H145     1.0000 0.75530  0.45430  0.16210  Biso   1.000  H
  H146     1.0000 0.74470  0.95430  0.33790  Biso   1.000  H
  H147     1.0000 0.24470  0.54570  0.83790  Biso   1.000  H
  H148     1.0000 0.25530  0.04570  0.66210  Biso   1.000  H
  H149     1.0000 0.71800  0.69080  0.16330  Biso   1.000  H
  H150     1.0000 0.78200  0.19080  0.33670  Biso   1.000  H
  H151     1.0000 0.28200  0.30920  0.83670  Biso   1.000  H
  H152     1.0000 0.21800  0.80920  0.66330  Biso   1.000  H
  H153     1.0000 0.65970  0.61350  0.10280  Biso   1.000  H
  H154     1.0000 0.84030  0.11350  0.39720  Biso   1.000  H
  H155     1.0000 0.34030  0.38650  0.89720  Biso   1.000  H
  H156     1.0000 0.15970  0.88650  0.60280  Biso   1.000  H
  H157     1.0000 0.71250  0.71670  0.09020  Biso   1.000  H
  H158     1.0000 0.78750  0.21670  0.40980  Biso   1.000  H
  H159     1.0000 0.28750  0.28330  0.90980  Biso   1.000  H
  H160     1.0000 0.21250  0.78330  0.59020  Biso   1.000  H
  H161     1.0000 0.81860  0.69680  0.15560  Biso   1.000  H
  H162     1.0000 0.68140  0.19680  0.34440  Biso   1.000  H
  H163     1.0000 0.18140  0.30320  0.84440  Biso   1.000  H
  H164     1.0000 0.31860  0.80320  0.65560  Biso   1.000  H
  O57      1.0000 0.72240  0.44200  0.75210  Biso   1.000  O
  O58      1.0000 0.77760  0.94200  0.74790  Biso   1.000  O
  O59      1.0000 0.27760  0.55800  0.24790  Biso   1.000  O
  O60      1.0000 0.22240  0.05800  0.25210  Biso   1.000  O
  O61      1.0000 0.71170  0.24000  0.80960  Biso   1.000  O
  O62      1.0000 0.78830  0.74000  0.69040  Biso   1.000  O
  O63      1.0000 0.28830  0.76000  0.19040  Biso   1.000  O
  O64      1.0000 0.21170  0.26000  0.30960  Biso   1.000  O
  O65      1.0000 0.65380  0.44560  0.81150  Biso   1.000  O
  O66      1.0000 0.84620  0.94560  0.68850  Biso   1.000  O
  O67      1.0000 0.34620  0.55440  0.18850  Biso   1.000  O
  O68      1.0000 0.15380  0.05440  0.31150  Biso   1.000  O
  O69      1.0000 0.62190  0.31230  0.71380  Biso   1.000  O
  O70      1.0000 0.87810  0.81230  0.78620  Biso   1.000  O
  O71      1.0000 0.37810  0.68770  0.28620  Biso   1.000  O
  O72      1.0000 0.12190  0.18770  0.21380  Biso   1.000  O
