data_image0
_cell_length_a       7.3674
_cell_length_b       18.0273
_cell_length_c       23.508
_cell_angle_alpha    90
_cell_angle_beta     90
_cell_angle_gamma    90

_symmetry_space_group_name_H-M    "P 1"
_symmetry_int_tables_number       1

loop_
  _symmetry_equiv_pos_as_xyz
  'x, y, z'

loop_
  _atom_site_label
  _atom_site_occupancy
  _atom_site_fract_x
  _atom_site_fract_y
  _atom_site_fract_z
  _atom_site_thermal_displace_type
  _atom_site_B_iso_or_equiv
  _atom_site_type_symbol
  Cu1      1.0000 0.38777  0.33711  0.03830  Biso   1.000  Cu
  Cu2      1.0000 0.11223  0.66289  0.53831  Biso   1.000  Cu
  Cu3      1.0000 0.88777  0.16289  0.96169  Biso   1.000  Cu
  Cu4      1.0000 0.61223  0.83711  0.46170  Biso   1.000  Cu
  Cu5      1.0000 0.61223  0.66289  0.96169  Biso   1.000  Cu
  Cu6      1.0000 0.88777  0.33711  0.46170  Biso   1.000  Cu
  Cu7      1.0000 0.11223  0.83711  0.03830  Biso   1.000  Cu
  Cu8      1.0000 0.38777  0.16289  0.53831  Biso   1.000  Cu
  S1       1.0000 0.49766  0.25696  0.92011  Biso   1.000  S
  S2       1.0000 0.00234  0.74304  0.42011  Biso   1.000  S
  S3       1.0000 0.99766  0.24304  0.07989  Biso   1.000  S
  S4       1.0000 0.50234  0.75696  0.57989  Biso   1.000  S
  S5       1.0000 0.50234  0.74304  0.07989  Biso   1.000  S
  S6       1.0000 0.99766  0.25696  0.57989  Biso   1.000  S
  S7       1.0000 0.00234  0.75696  0.92011  Biso   1.000  S
  S8       1.0000 0.49766  0.24304  0.42011  Biso   1.000  S
  O1       1.0000 0.40730  0.31460  0.95687  Biso   1.000  O
  O2       1.0000 0.09270  0.68540  0.45687  Biso   1.000  O
  O3       1.0000 0.90730  0.18540  0.04313  Biso   1.000  O
  O4       1.0000 0.59270  0.81460  0.54313  Biso   1.000  O
  O5       1.0000 0.59270  0.68540  0.04313  Biso   1.000  O
  O6       1.0000 0.90730  0.31460  0.54313  Biso   1.000  O
  O7       1.0000 0.09270  0.81460  0.95687  Biso   1.000  O
  O8       1.0000 0.40730  0.18540  0.45687  Biso   1.000  O
  O9       1.0000 0.53730  0.25249  0.06125  Biso   1.000  O
  O10      1.0000 0.96270  0.74751  0.56125  Biso   1.000  O
  O11      1.0000 0.03730  0.24751  0.93875  Biso   1.000  O
  O12      1.0000 0.46270  0.75249  0.43875  Biso   1.000  O
  O13      1.0000 0.46270  0.74751  0.93875  Biso   1.000  O
  O14      1.0000 0.03730  0.25249  0.43875  Biso   1.000  O
  O15      1.0000 0.96270  0.75249  0.06125  Biso   1.000  O
  O16      1.0000 0.53730  0.24751  0.56125  Biso   1.000  O
  O17      1.0000 0.41070  0.64711  0.26553  Biso   1.000  O
  O18      1.0000 0.08930  0.35289  0.76553  Biso   1.000  O
  O19      1.0000 0.91070  0.85289  0.73447  Biso   1.000  O
  O20      1.0000 0.58930  0.14711  0.23447  Biso   1.000  O
  O21      1.0000 0.58930  0.35289  0.73447  Biso   1.000  O
  O22      1.0000 0.91070  0.64711  0.23447  Biso   1.000  O
  O23      1.0000 0.08930  0.14711  0.26553  Biso   1.000  O
  O24      1.0000 0.41070  0.85289  0.76553  Biso   1.000  O
  O25      1.0000 0.35250  0.56804  0.34077  Biso   1.000  O
  O26      1.0000 0.14750  0.43196  0.84077  Biso   1.000  O
  O27      1.0000 0.85250  0.93196  0.65923  Biso   1.000  O
  O28      1.0000 0.64750  0.06804  0.15923  Biso   1.000  O
  O29      1.0000 0.64750  0.43196  0.65923  Biso   1.000  O
  O30      1.0000 0.85250  0.56804  0.15923  Biso   1.000  O
  O31      1.0000 0.14750  0.06804  0.34077  Biso   1.000  O
  O32      1.0000 0.35250  0.93196  0.84077  Biso   1.000  O
  O33      1.0000 0.35470  0.21173  0.89424  Biso   1.000  O
  O34      1.0000 0.14530  0.78827  0.39424  Biso   1.000  O
  O35      1.0000 0.85470  0.28827  0.10576  Biso   1.000  O
  O36      1.0000 0.64530  0.71173  0.60576  Biso   1.000  O
  O37      1.0000 0.64530  0.78827  0.10576  Biso   1.000  O
  O38      1.0000 0.85470  0.21173  0.60576  Biso   1.000  O
  O39      1.0000 0.14530  0.71173  0.89424  Biso   1.000  O
  O40      1.0000 0.35470  0.28827  0.39424  Biso   1.000  O
  O41      1.0000 0.60880  0.29295  0.87807  Biso   1.000  O
  O42      1.0000 0.89120  0.70705  0.37807  Biso   1.000  O
  O43      1.0000 0.10880  0.20705  0.12193  Biso   1.000  O
  O44      1.0000 0.39120  0.79295  0.62193  Biso   1.000  O
  O45      1.0000 0.39120  0.70705  0.12193  Biso   1.000  O
  O46      1.0000 0.10880  0.29295  0.62193  Biso   1.000  O
  O47      1.0000 0.89120  0.79295  0.87807  Biso   1.000  O
  O48      1.0000 0.60880  0.20705  0.37807  Biso   1.000  O
  O49      1.0000 0.60830  0.20904  0.95815  Biso   1.000  O
  O50      1.0000 0.89170  0.79096  0.45815  Biso   1.000  O
  O51      1.0000 0.10830  0.29096  0.04185  Biso   1.000  O
  O52      1.0000 0.39170  0.70904  0.54185  Biso   1.000  O
  O53      1.0000 0.39170  0.79096  0.04185  Biso   1.000  O
  O54      1.0000 0.10830  0.20904  0.54185  Biso   1.000  O
  O55      1.0000 0.89170  0.70904  0.95815  Biso   1.000  O
  O56      1.0000 0.60830  0.29096  0.45815  Biso   1.000  O
  N1       1.0000 0.37380  0.37368  0.11692  Biso   1.000  N
  N2       1.0000 0.12620  0.62632  0.61692  Biso   1.000  N
  N3       1.0000 0.87380  0.12632  0.88308  Biso   1.000  N
  N4       1.0000 0.62620  0.87368  0.38308  Biso   1.000  N
  N5       1.0000 0.62620  0.62632  0.88308  Biso   1.000  N
  N6       1.0000 0.87380  0.37368  0.38308  Biso   1.000  N
  N7       1.0000 0.12620  0.87368  0.11692  Biso   1.000  N
  N8       1.0000 0.37380  0.12632  0.61692  Biso   1.000  N
  N9       1.0000 0.31450  0.44175  0.02310  Biso   1.000  N
  N10      1.0000 0.18550  0.55825  0.52310  Biso   1.000  N
  N11      1.0000 0.81450  0.05825  0.97690  Biso   1.000  N
  N12      1.0000 0.68550  0.94175  0.47690  Biso   1.000  N
  N13      1.0000 0.68550  0.55825  0.97690  Biso   1.000  N
  N14      1.0000 0.81450  0.44175  0.47690  Biso   1.000  N
  N15      1.0000 0.18550  0.94175  0.02310  Biso   1.000  N
  N16      1.0000 0.31450  0.05825  0.52310  Biso   1.000  N
  C1       1.0000 0.40270  0.32546  0.16642  Biso   1.000  C
  C2       1.0000 0.09730  0.67454  0.66642  Biso   1.000  C
  C3       1.0000 0.90270  0.17454  0.83358  Biso   1.000  C
  C4       1.0000 0.59730  0.82546  0.33358  Biso   1.000  C
  C5       1.0000 0.59730  0.67454  0.83358  Biso   1.000  C
  C6       1.0000 0.90270  0.32546  0.33358  Biso   1.000  C
  C7       1.0000 0.09730  0.82546  0.16642  Biso   1.000  C
  C8       1.0000 0.40270  0.17454  0.66642  Biso   1.000  C
  H1       1.0000 0.52880  0.32820  0.17810  Biso   1.000  H
  H2       1.0000 0.97120  0.67180  0.67810  Biso   1.000  H
  H3       1.0000 0.02880  0.17180  0.82190  Biso   1.000  H
  H4       1.0000 0.47120  0.82820  0.32190  Biso   1.000  H
  H5       1.0000 0.47120  0.67180  0.82190  Biso   1.000  H
  H6       1.0000 0.02880  0.32820  0.32190  Biso   1.000  H
  H7       1.0000 0.97120  0.82820  0.17810  Biso   1.000  H
  H8       1.0000 0.52880  0.17180  0.67810  Biso   1.000  H
  H9       1.0000 0.37650  0.27450  0.15600  Biso   1.000  H
  H10      1.0000 0.12350  0.72550  0.65600  Biso   1.000  H
  H11      1.0000 0.87650  0.22550  0.84400  Biso   1.000  H
  H12      1.0000 0.62350  0.77450  0.34400  Biso   1.000  H
  H13      1.0000 0.62350  0.72550  0.84400  Biso   1.000  H
  H14      1.0000 0.87650  0.27450  0.34400  Biso   1.000  H
  H15      1.0000 0.12350  0.77450  0.15600  Biso   1.000  H
  H16      1.0000 0.37650  0.22550  0.65600  Biso   1.000  H
  C9       1.0000 0.28330  0.34801  0.21506  Biso   1.000  C
  C10      1.0000 0.21670  0.65199  0.71506  Biso   1.000  C
  C11      1.0000 0.78330  0.15199  0.78494  Biso   1.000  C
  C12      1.0000 0.71670  0.84801  0.28494  Biso   1.000  C
  C13      1.0000 0.71670  0.65199  0.78494  Biso   1.000  C
  C14      1.0000 0.78330  0.34801  0.28494  Biso   1.000  C
  C15      1.0000 0.21670  0.84801  0.21506  Biso   1.000  C
  C16      1.0000 0.28330  0.15199  0.71506  Biso   1.000  C
  H17      1.0000 0.31250  0.31870  0.24840  Biso   1.000  H
  H18      1.0000 0.18750  0.68130  0.74840  Biso   1.000  H
  H19      1.0000 0.81250  0.18130  0.75160  Biso   1.000  H
  H20      1.0000 0.68750  0.81870  0.25160  Biso   1.000  H
  H21      1.0000 0.68750  0.68130  0.75160  Biso   1.000  H
  H22      1.0000 0.81250  0.31870  0.25160  Biso   1.000  H
  H23      1.0000 0.18750  0.81870  0.24840  Biso   1.000  H
  H24      1.0000 0.31250  0.18130  0.74840  Biso   1.000  H
  H25      1.0000 0.15720  0.33920  0.20540  Biso   1.000  H
  H26      1.0000 0.34280  0.66080  0.70540  Biso   1.000  H
  H27      1.0000 0.65720  0.16080  0.79460  Biso   1.000  H
  H28      1.0000 0.84280  0.83920  0.29460  Biso   1.000  H
  H29      1.0000 0.84280  0.66080  0.79460  Biso   1.000  H
  H30      1.0000 0.65720  0.33920  0.29460  Biso   1.000  H
  H31      1.0000 0.34280  0.83920  0.20540  Biso   1.000  H
  H32      1.0000 0.15720  0.16080  0.70540  Biso   1.000  H
  C17      1.0000 0.31190  0.42906  0.22769  Biso   1.000  C
  C18      1.0000 0.18810  0.57094  0.72769  Biso   1.000  C
  C19      1.0000 0.81190  0.07094  0.77231  Biso   1.000  C
  C20      1.0000 0.68810  0.92906  0.27231  Biso   1.000  C
  C21      1.0000 0.68810  0.57094  0.77231  Biso   1.000  C
  C22      1.0000 0.81190  0.42906  0.27231  Biso   1.000  C
  C23      1.0000 0.18810  0.92906  0.22769  Biso   1.000  C
  C24      1.0000 0.31190  0.07094  0.72769  Biso   1.000  C
  C25      1.0000 0.33940  0.47709  0.18130  Biso   1.000  C
  C26      1.0000 0.16060  0.52291  0.68130  Biso   1.000  C
  C27      1.0000 0.83940  0.02291  0.81870  Biso   1.000  C
  C28      1.0000 0.66060  0.97709  0.31870  Biso   1.000  C
  C29      1.0000 0.66060  0.52291  0.81870  Biso   1.000  C
  C30      1.0000 0.83940  0.47709  0.31870  Biso   1.000  C
  C31      1.0000 0.16060  0.97709  0.18130  Biso   1.000  C
  C32      1.0000 0.33940  0.02291  0.68130  Biso   1.000  C
  C33      1.0000 0.33710  0.44346  0.12441  Biso   1.000  C
  C34      1.0000 0.16290  0.55654  0.62441  Biso   1.000  C
  C35      1.0000 0.83710  0.05654  0.87559  Biso   1.000  C
  C36      1.0000 0.66290  0.94346  0.37559  Biso   1.000  C
  C37      1.0000 0.66290  0.55654  0.87559  Biso   1.000  C
  C38      1.0000 0.83710  0.44346  0.37559  Biso   1.000  C
  C39      1.0000 0.16290  0.94346  0.12441  Biso   1.000  C
  C40      1.0000 0.33710  0.05654  0.62441  Biso   1.000  C
  C41      1.0000 0.29120  0.48361  0.07053  Biso   1.000  C
  C42      1.0000 0.20880  0.51639  0.57053  Biso   1.000  C
  C43      1.0000 0.79120  0.01639  0.92947  Biso   1.000  C
  C44      1.0000 0.70880  0.98361  0.42947  Biso   1.000  C
  C45      1.0000 0.70880  0.51639  0.92947  Biso   1.000  C
  C46      1.0000 0.79120  0.48361  0.42947  Biso   1.000  C
  C47      1.0000 0.20880  0.98361  0.07053  Biso   1.000  C
  C48      1.0000 0.29120  0.01639  0.57053  Biso   1.000  C
  C49      1.0000 0.27520  0.47035  0.97222  Biso   1.000  C
  C50      1.0000 0.22480  0.52965  0.47222  Biso   1.000  C
  C51      1.0000 0.77520  0.02965  0.02778  Biso   1.000  C
  C52      1.0000 0.72480  0.97035  0.52778  Biso   1.000  C
  C53      1.0000 0.72480  0.52965  0.02778  Biso   1.000  C
  C54      1.0000 0.77520  0.47035  0.52778  Biso   1.000  C
  C55      1.0000 0.22480  0.97035  0.97222  Biso   1.000  C
  C56      1.0000 0.27520  0.02965  0.47222  Biso   1.000  C
  H33      1.0000 0.29100  0.44110  0.94000  Biso   1.000  H
  H34      1.0000 0.20900  0.55890  0.44000  Biso   1.000  H
  H35      1.0000 0.79100  0.05890  0.06000  Biso   1.000  H
  H36      1.0000 0.70900  0.94110  0.56000  Biso   1.000  H
  H37      1.0000 0.70900  0.55890  0.06000  Biso   1.000  H
  H38      1.0000 0.79100  0.44110  0.56000  Biso   1.000  H
  H39      1.0000 0.20900  0.94110  0.94000  Biso   1.000  H
  H40      1.0000 0.29100  0.05890  0.44000  Biso   1.000  H
  C57      1.0000 0.22390  0.55488  0.06669  Biso   1.000  C
  C58      1.0000 0.27610  0.44512  0.56669  Biso   1.000  C
  C59      1.0000 0.72390  0.94512  0.93331  Biso   1.000  C
  C60      1.0000 0.77610  0.05488  0.43331  Biso   1.000  C
  C61      1.0000 0.77610  0.44512  0.93331  Biso   1.000  C
  C62      1.0000 0.72390  0.55488  0.43331  Biso   1.000  C
  C63      1.0000 0.27610  0.05488  0.06669  Biso   1.000  C
  C64      1.0000 0.22390  0.94512  0.56669  Biso   1.000  C
  H41      1.0000 0.20460  0.58280  0.09940  Biso   1.000  H
  H42      1.0000 0.29540  0.41720  0.59940  Biso   1.000  H
  H43      1.0000 0.70460  0.91720  0.90060  Biso   1.000  H
  H44      1.0000 0.79540  0.08280  0.40060  Biso   1.000  H
  H45      1.0000 0.79540  0.41720  0.90060  Biso   1.000  H
  H46      1.0000 0.70460  0.58280  0.40060  Biso   1.000  H
  H47      1.0000 0.29540  0.08280  0.09940  Biso   1.000  H
  H48      1.0000 0.20460  0.91720  0.59940  Biso   1.000  H
  C65      1.0000 0.37660  0.55309  0.19046  Biso   1.000  C
  C66      1.0000 0.12340  0.44691  0.69046  Biso   1.000  C
  C67      1.0000 0.87660  0.94691  0.80954  Biso   1.000  C
  C68      1.0000 0.62340  0.05309  0.30954  Biso   1.000  C
  C69      1.0000 0.62340  0.44691  0.80954  Biso   1.000  C
  C70      1.0000 0.87660  0.55309  0.30954  Biso   1.000  C
  C71      1.0000 0.12340  0.05309  0.19046  Biso   1.000  C
  C72      1.0000 0.37660  0.94691  0.69046  Biso   1.000  C
  H49      1.0000 0.40050  0.58520  0.16040  Biso   1.000  H
  H50      1.0000 0.09950  0.41480  0.66040  Biso   1.000  H
  H51      1.0000 0.90050  0.91480  0.83960  Biso   1.000  H
  H52      1.0000 0.59950  0.08520  0.33960  Biso   1.000  H
  H53      1.0000 0.59950  0.41480  0.83960  Biso   1.000  H
  H54      1.0000 0.90050  0.58520  0.33960  Biso   1.000  H
  H55      1.0000 0.09950  0.08520  0.16040  Biso   1.000  H
  H56      1.0000 0.40050  0.91480  0.66040  Biso   1.000  H
  C73      1.0000 0.37560  0.57699  0.24561  Biso   1.000  C
  C74      1.0000 0.12440  0.42301  0.74561  Biso   1.000  C
  C75      1.0000 0.87560  0.92301  0.75439  Biso   1.000  C
  C76      1.0000 0.62440  0.07699  0.25439  Biso   1.000  C
  C77      1.0000 0.62440  0.42301  0.75439  Biso   1.000  C
  C78      1.0000 0.87560  0.57699  0.25439  Biso   1.000  C
  C79      1.0000 0.12440  0.07699  0.24561  Biso   1.000  C
  C80      1.0000 0.37560  0.92301  0.74561  Biso   1.000  C
  C81      1.0000 0.34310  0.52966  0.29081  Biso   1.000  C
  C82      1.0000 0.15690  0.47034  0.79081  Biso   1.000  C
  C83      1.0000 0.84310  0.97034  0.70919  Biso   1.000  C
  C84      1.0000 0.65690  0.02966  0.20919  Biso   1.000  C
  C85      1.0000 0.65690  0.47034  0.70919  Biso   1.000  C
  C86      1.0000 0.84310  0.52966  0.20919  Biso   1.000  C
  C87      1.0000 0.15690  0.02966  0.29081  Biso   1.000  C
  C88      1.0000 0.34310  0.97034  0.79081  Biso   1.000  C
  C89      1.0000 0.31380  0.45539  0.28338  Biso   1.000  C
  C90      1.0000 0.18620  0.54461  0.78338  Biso   1.000  C
  C91      1.0000 0.81380  0.04461  0.71662  Biso   1.000  C
  C92      1.0000 0.68620  0.95539  0.21662  Biso   1.000  C
  C93      1.0000 0.68620  0.54461  0.71662  Biso   1.000  C
  C94      1.0000 0.81380  0.45539  0.21662  Biso   1.000  C
  C95      1.0000 0.18620  0.95539  0.28338  Biso   1.000  C
  C96      1.0000 0.31380  0.04461  0.78338  Biso   1.000  C
  H57      1.0000 0.29600  0.42380  0.31420  Biso   1.000  H
  H58      1.0000 0.20400  0.57620  0.81420  Biso   1.000  H
  H59      1.0000 0.79600  0.07620  0.68580  Biso   1.000  H
  H60      1.0000 0.70400  0.92380  0.18580  Biso   1.000  H
  H61      1.0000 0.70400  0.57620  0.68580  Biso   1.000  H
  H62      1.0000 0.79600  0.42380  0.18580  Biso   1.000  H
  H63      1.0000 0.20400  0.92380  0.31420  Biso   1.000  H
  H64      1.0000 0.29600  0.07620  0.81420  Biso   1.000  H
  C97      1.0000 0.37340  0.64415  0.32478  Biso   1.000  C
  C98      1.0000 0.12660  0.35585  0.82478  Biso   1.000  C
  C99      1.0000 0.87340  0.85585  0.67522  Biso   1.000  C
  C100     1.0000 0.62660  0.14415  0.17522  Biso   1.000  C
  C101     1.0000 0.62660  0.35585  0.67522  Biso   1.000  C
  C102     1.0000 0.87340  0.64415  0.17522  Biso   1.000  C
  C103     1.0000 0.12660  0.14415  0.32478  Biso   1.000  C
  C104     1.0000 0.37340  0.85585  0.82478  Biso   1.000  C
  H65      1.0000 0.26310  0.67140  0.33320  Biso   1.000  H
  H66      1.0000 0.23690  0.32860  0.83320  Biso   1.000  H
  H67      1.0000 0.76310  0.82860  0.66680  Biso   1.000  H
  H68      1.0000 0.73690  0.17140  0.16680  Biso   1.000  H
  H69      1.0000 0.73690  0.32860  0.66680  Biso   1.000  H
  H70      1.0000 0.76310  0.67140  0.16680  Biso   1.000  H
  H71      1.0000 0.23690  0.17140  0.33320  Biso   1.000  H
  H72      1.0000 0.26310  0.82860  0.83320  Biso   1.000  H
  H73      1.0000 0.47240  0.66640  0.34600  Biso   1.000  H
  H74      1.0000 0.02760  0.33360  0.84600  Biso   1.000  H
  H75      1.0000 0.97240  0.83360  0.65400  Biso   1.000  H
  H76      1.0000 0.52760  0.16640  0.15400  Biso   1.000  H
  H77      1.0000 0.52760  0.33360  0.65400  Biso   1.000  H
  H78      1.0000 0.97240  0.66640  0.15400  Biso   1.000  H
  H79      1.0000 0.02760  0.16640  0.34600  Biso   1.000  H
  H80      1.0000 0.47240  0.83360  0.84600  Biso   1.000  H
  C105     1.0000 0.21170  0.54203  0.96575  Biso   1.000  C
  C106     1.0000 0.28830  0.45797  0.46575  Biso   1.000  C
  C107     1.0000 0.71170  0.95797  0.03425  Biso   1.000  C
  C108     1.0000 0.78830  0.04203  0.53425  Biso   1.000  C
  C109     1.0000 0.78830  0.45797  0.03425  Biso   1.000  C
  C110     1.0000 0.71170  0.54203  0.53425  Biso   1.000  C
  C111     1.0000 0.28830  0.04203  0.96575  Biso   1.000  C
  C112     1.0000 0.21170  0.95797  0.46575  Biso   1.000  C
  H81      1.0000 0.18730  0.56110  0.92980  Biso   1.000  H
  H82      1.0000 0.31270  0.43890  0.42980  Biso   1.000  H
  H83      1.0000 0.68730  0.93890  0.07020  Biso   1.000  H
  H84      1.0000 0.81270  0.06110  0.57020  Biso   1.000  H
  H85      1.0000 0.81270  0.43890  0.07020  Biso   1.000  H
  H86      1.0000 0.68730  0.56110  0.57020  Biso   1.000  H
  H87      1.0000 0.31270  0.06110  0.92980  Biso   1.000  H
  H88      1.0000 0.18730  0.93890  0.42980  Biso   1.000  H
  C113     1.0000 0.18540  0.58430  0.01357  Biso   1.000  C
  C114     1.0000 0.31460  0.41570  0.51357  Biso   1.000  C
  C115     1.0000 0.68540  0.91570  0.98643  Biso   1.000  C
  C116     1.0000 0.81460  0.08430  0.48643  Biso   1.000  C
  C117     1.0000 0.81460  0.41570  0.98643  Biso   1.000  C
  C118     1.0000 0.68540  0.58430  0.48643  Biso   1.000  C
  C119     1.0000 0.31460  0.08430  0.01357  Biso   1.000  C
  C120     1.0000 0.18540  0.91570  0.51357  Biso   1.000  C
  H89      1.0000 0.14190  0.63260  0.01040  Biso   1.000  H
  H90      1.0000 0.35810  0.36740  0.51040  Biso   1.000  H
  H91      1.0000 0.64190  0.86740  0.98960  Biso   1.000  H
  H92      1.0000 0.85810  0.13260  0.48960  Biso   1.000  H
  H93      1.0000 0.85810  0.36740  0.98960  Biso   1.000  H
  H94      1.0000 0.64190  0.63260  0.48960  Biso   1.000  H
  H95      1.0000 0.35810  0.13260  0.01040  Biso   1.000  H
  H96      1.0000 0.14190  0.86740  0.51040  Biso   1.000  H
  H97      1.0000 0.56800  0.23340  0.03120  Biso   1.000  H
  H98      1.0000 0.93200  0.76660  0.53120  Biso   1.000  H
  H99      1.0000 0.06800  0.26660  0.96880  Biso   1.000  H
  H100     1.0000 0.43200  0.73340  0.46880  Biso   1.000  H
  H101     1.0000 0.43200  0.76660  0.96880  Biso   1.000  H
  H102     1.0000 0.06800  0.23340  0.46880  Biso   1.000  H
  H103     1.0000 0.93200  0.73340  0.03120  Biso   1.000  H
  H104     1.0000 0.56800  0.26660  0.53120  Biso   1.000  H
  H105     1.0000 0.63400  0.26530  0.07600  Biso   1.000  H
  H106     1.0000 0.86600  0.73470  0.57600  Biso   1.000  H
  H107     1.0000 0.13400  0.23470  0.92400  Biso   1.000  H
  H108     1.0000 0.36600  0.76530  0.42400  Biso   1.000  H
  H109     1.0000 0.36600  0.73470  0.92400  Biso   1.000  H
  H110     1.0000 0.13400  0.26530  0.42400  Biso   1.000  H
  H111     1.0000 0.86600  0.76530  0.07600  Biso   1.000  H
  H112     1.0000 0.63400  0.23470  0.57600  Biso   1.000  H
