data_image0
_cell_length_a       7.297
_cell_length_b       19.455
_cell_length_c       14.976
_cell_angle_alpha    90
_cell_angle_beta     90
_cell_angle_gamma    90

_symmetry_space_group_name_H-M    "P 1"
_symmetry_int_tables_number       1

loop_
  _symmetry_equiv_pos_as_xyz
  'x, y, z'

loop_
  _atom_site_label
  _atom_site_occupancy
  _atom_site_fract_x
  _atom_site_fract_y
  _atom_site_fract_z
  _atom_site_thermal_displace_type
  _atom_site_B_iso_or_equiv
  _atom_site_type_symbol
  Cu1      1.0000 0.00000  0.69168  0.25000  Biso   1.000  Cu
  Cu2      1.0000 0.00000  0.30832  0.75000  Biso   1.000  Cu
  Cu3      1.0000 0.50000  0.19168  0.25000  Biso   1.000  Cu
  Cu4      1.0000 0.50000  0.80832  0.75000  Biso   1.000  Cu
  Cl1      1.0000 0.50000  0.68431  0.25000  Biso   1.000  Cl
  Cl2      1.0000 0.50000  0.31569  0.75000  Biso   1.000  Cl
  Cl3      1.0000 0.00000  0.18431  0.25000  Biso   1.000  Cl
  Cl4      1.0000 0.00000  0.81569  0.75000  Biso   1.000  Cl
  N1       1.0000 0.00780  0.61508  0.33590  Biso   1.000  N
  N2       1.0000 0.99220  0.38492  0.83590  Biso   1.000  N
  N3       1.0000 0.99220  0.61508  0.16410  Biso   1.000  N
  N4       1.0000 0.00780  0.38492  0.66410  Biso   1.000  N
  N5       1.0000 0.50780  0.11508  0.33590  Biso   1.000  N
  N6       1.0000 0.49220  0.88492  0.83590  Biso   1.000  N
  N7       1.0000 0.49220  0.11508  0.16410  Biso   1.000  N
  N8       1.0000 0.50780  0.88492  0.66410  Biso   1.000  N
  N9       1.0000 0.98310  0.74720  0.36240  Biso   1.000  N
  N10      1.0000 0.01690  0.25280  0.86240  Biso   1.000  N
  N11      1.0000 0.01690  0.74720  0.13760  Biso   1.000  N
  N12      1.0000 0.98310  0.25280  0.63760  Biso   1.000  N
  N13      1.0000 0.48310  0.24720  0.36240  Biso   1.000  N
  N14      1.0000 0.51690  0.75280  0.86240  Biso   1.000  N
  N15      1.0000 0.51690  0.24720  0.13760  Biso   1.000  N
  N16      1.0000 0.48310  0.75280  0.63760  Biso   1.000  N
  N17      1.0000 0.96420  0.80830  0.48390  Biso   1.000  N
  N18      1.0000 0.03580  0.19170  0.98390  Biso   1.000  N
  N19      1.0000 0.03580  0.80830  0.01610  Biso   1.000  N
  N20      1.0000 0.96420  0.19170  0.51610  Biso   1.000  N
  N21      1.0000 0.46420  0.30830  0.48390  Biso   1.000  N
  N22      1.0000 0.53580  0.69170  0.98390  Biso   1.000  N
  N23      1.0000 0.53580  0.30830  0.01610  Biso   1.000  N
  N24      1.0000 0.46420  0.69170  0.51610  Biso   1.000  N
  H1       1.0000 0.95590  0.84380  0.51780  Biso   1.000  H
  H2       1.0000 0.04410  0.15620  0.01780  Biso   1.000  H
  H3       1.0000 0.04410  0.84380  0.98220  Biso   1.000  H
  H4       1.0000 0.95590  0.15620  0.48220  Biso   1.000  H
  H5       1.0000 0.45590  0.34380  0.51780  Biso   1.000  H
  H6       1.0000 0.54410  0.65620  0.01780  Biso   1.000  H
  H7       1.0000 0.54410  0.34380  0.98220  Biso   1.000  H
  H8       1.0000 0.45590  0.65620  0.48220  Biso   1.000  H
  C1       1.0000 0.03600  0.41970  0.29480  Biso   1.000  C
  C2       1.0000 0.96400  0.58030  0.79480  Biso   1.000  C
  C3       1.0000 0.96400  0.41970  0.20520  Biso   1.000  C
  C4       1.0000 0.03600  0.58030  0.70520  Biso   1.000  C
  C5       1.0000 0.53600  0.91970  0.29480  Biso   1.000  C
  C6       1.0000 0.46400  0.08030  0.79480  Biso   1.000  C
  C7       1.0000 0.46400  0.91970  0.20520  Biso   1.000  C
  C8       1.0000 0.53600  0.08030  0.70520  Biso   1.000  C
  H9       1.0000 0.16800  0.41520  0.29220  Biso   1.000  H
  H10      1.0000 0.83200  0.58480  0.79220  Biso   1.000  H
  H11      1.0000 0.83200  0.41520  0.20780  Biso   1.000  H
  H12      1.0000 0.16800  0.58480  0.70780  Biso   1.000  H
  H13      1.0000 0.66800  0.91520  0.29220  Biso   1.000  H
  H14      1.0000 0.33200  0.08480  0.79220  Biso   1.000  H
  H15      1.0000 0.33200  0.91520  0.20780  Biso   1.000  H
  H16      1.0000 0.66800  0.08480  0.70780  Biso   1.000  H
  H17      1.0000 0.98820  0.37980  0.32620  Biso   1.000  H
  H18      1.0000 0.01180  0.62020  0.82620  Biso   1.000  H
  H19      1.0000 0.01180  0.37980  0.17380  Biso   1.000  H
  H20      1.0000 0.98820  0.62020  0.67380  Biso   1.000  H
  H21      1.0000 0.48820  0.87980  0.32620  Biso   1.000  H
  H22      1.0000 0.51180  0.12020  0.82620  Biso   1.000  H
  H23      1.0000 0.51180  0.87980  0.17380  Biso   1.000  H
  H24      1.0000 0.48820  0.12020  0.67380  Biso   1.000  H
  C9       1.0000 0.98780  0.48400  0.34770  Biso   1.000  C
  C10      1.0000 0.01220  0.51600  0.84770  Biso   1.000  C
  C11      1.0000 0.01220  0.48400  0.15230  Biso   1.000  C
  C12      1.0000 0.98780  0.51600  0.65230  Biso   1.000  C
  C13      1.0000 0.48780  0.98400  0.34770  Biso   1.000  C
  C14      1.0000 0.51220  0.01600  0.84770  Biso   1.000  C
  C15      1.0000 0.51220  0.98400  0.15230  Biso   1.000  C
  C16      1.0000 0.48780  0.01600  0.65230  Biso   1.000  C
  H25      1.0000 0.85690  0.48530  0.35870  Biso   1.000  H
  H26      1.0000 0.14310  0.51470  0.85870  Biso   1.000  H
  H27      1.0000 0.14310  0.48530  0.14130  Biso   1.000  H
  H28      1.0000 0.85690  0.51470  0.64130  Biso   1.000  H
  H29      1.0000 0.35690  0.98530  0.35870  Biso   1.000  H
  H30      1.0000 0.64310  0.01470  0.85870  Biso   1.000  H
  H31      1.0000 0.64310  0.98530  0.14130  Biso   1.000  H
  H32      1.0000 0.35690  0.01470  0.64130  Biso   1.000  H
  H33      1.0000 0.05000  0.48310  0.40490  Biso   1.000  H
  H34      1.0000 0.95000  0.51690  0.90490  Biso   1.000  H
  H35      1.0000 0.95000  0.48310  0.09510  Biso   1.000  H
  H36      1.0000 0.05000  0.51690  0.59510  Biso   1.000  H
  H37      1.0000 0.55000  0.98310  0.40490  Biso   1.000  H
  H38      1.0000 0.45000  0.01690  0.90490  Biso   1.000  H
  H39      1.0000 0.45000  0.98310  0.09510  Biso   1.000  H
  H40      1.0000 0.55000  0.01690  0.59510  Biso   1.000  H
  C17      1.0000 0.04530  0.54780  0.29600  Biso   1.000  C
  C18      1.0000 0.95470  0.45220  0.79600  Biso   1.000  C
  C19      1.0000 0.95470  0.54780  0.20400  Biso   1.000  C
  C20      1.0000 0.04530  0.45220  0.70400  Biso   1.000  C
  C21      1.0000 0.54530  0.04780  0.29600  Biso   1.000  C
  C22      1.0000 0.45470  0.95220  0.79600  Biso   1.000  C
  C23      1.0000 0.45470  0.04780  0.20400  Biso   1.000  C
  C24      1.0000 0.54530  0.95220  0.70400  Biso   1.000  C
  H41      1.0000 0.17790  0.54480  0.28650  Biso   1.000  H
  H42      1.0000 0.82210  0.45520  0.78650  Biso   1.000  H
  H43      1.0000 0.82210  0.54480  0.21350  Biso   1.000  H
  H44      1.0000 0.17790  0.45520  0.71350  Biso   1.000  H
  H45      1.0000 0.67790  0.04480  0.28650  Biso   1.000  H
  H46      1.0000 0.32210  0.95520  0.78650  Biso   1.000  H
  H47      1.0000 0.32210  0.04480  0.21350  Biso   1.000  H
  H48      1.0000 0.67790  0.95520  0.71350  Biso   1.000  H
  C25      1.0000 0.99100  0.63040  0.41700  Biso   1.000  C
  C26      1.0000 0.00900  0.36960  0.91700  Biso   1.000  C
  C27      1.0000 0.00900  0.63040  0.08300  Biso   1.000  C
  C28      1.0000 0.99100  0.36960  0.58300  Biso   1.000  C
  C29      1.0000 0.49100  0.13040  0.41700  Biso   1.000  C
  C30      1.0000 0.50900  0.86960  0.91700  Biso   1.000  C
  C31      1.0000 0.50900  0.13040  0.08300  Biso   1.000  C
  C32      1.0000 0.49100  0.86960  0.58300  Biso   1.000  C
  H49      1.0000 0.98830  0.59720  0.46170  Biso   1.000  H
  H50      1.0000 0.01170  0.40280  0.96170  Biso   1.000  H
  H51      1.0000 0.01170  0.59720  0.03830  Biso   1.000  H
  H52      1.0000 0.98830  0.40280  0.53830  Biso   1.000  H
  H53      1.0000 0.48830  0.09720  0.46170  Biso   1.000  H
  H54      1.0000 0.51170  0.90280  0.96170  Biso   1.000  H
  H55      1.0000 0.51170  0.09720  0.03830  Biso   1.000  H
  H56      1.0000 0.48830  0.90280  0.53830  Biso   1.000  H
  C33      1.0000 0.97620  0.70300  0.43600  Biso   1.000  C
  C34      1.0000 0.02380  0.29700  0.93600  Biso   1.000  C
  C35      1.0000 0.02380  0.70300  0.06400  Biso   1.000  C
  C36      1.0000 0.97620  0.29700  0.56400  Biso   1.000  C
  C37      1.0000 0.47620  0.20300  0.43600  Biso   1.000  C
  C38      1.0000 0.52380  0.79700  0.93600  Biso   1.000  C
  C39      1.0000 0.52380  0.20300  0.06400  Biso   1.000  C
  C40      1.0000 0.47620  0.79700  0.56400  Biso   1.000  C
  C41      1.0000 0.96340  0.74060  0.51280  Biso   1.000  C
  C42      1.0000 0.03660  0.25940  0.01280  Biso   1.000  C
  C43      1.0000 0.03660  0.74060  0.98720  Biso   1.000  C
  C44      1.0000 0.96340  0.25940  0.48720  Biso   1.000  C
  C45      1.0000 0.46340  0.24060  0.51280  Biso   1.000  C
  C46      1.0000 0.53660  0.75940  0.01280  Biso   1.000  C
  C47      1.0000 0.53660  0.24060  0.98720  Biso   1.000  C
  C48      1.0000 0.46340  0.75940  0.48720  Biso   1.000  C
  H57      1.0000 0.95590  0.72450  0.57110  Biso   1.000  H
  H58      1.0000 0.04410  0.27550  0.07110  Biso   1.000  H
  H59      1.0000 0.04410  0.72450  0.92890  Biso   1.000  H
  H60      1.0000 0.95590  0.27550  0.42890  Biso   1.000  H
  H61      1.0000 0.45590  0.22450  0.57110  Biso   1.000  H
  H62      1.0000 0.54410  0.77550  0.07110  Biso   1.000  H
  H63      1.0000 0.54410  0.22450  0.92890  Biso   1.000  H
  H64      1.0000 0.45590  0.77550  0.42890  Biso   1.000  H
  C49      1.0000 0.97980  0.80940  0.39520  Biso   1.000  C
  C50      1.0000 0.02020  0.19060  0.89520  Biso   1.000  C
  C51      1.0000 0.02020  0.80940  0.10480  Biso   1.000  C
  C52      1.0000 0.97980  0.19060  0.60480  Biso   1.000  C
  C53      1.0000 0.47980  0.30940  0.39520  Biso   1.000  C
  C54      1.0000 0.52020  0.69060  0.89520  Biso   1.000  C
  C55      1.0000 0.52020  0.30940  0.10480  Biso   1.000  C
  C56      1.0000 0.47980  0.69060  0.60480  Biso   1.000  C
  H65      1.0000 0.98740  0.84930  0.36120  Biso   1.000  H
  H66      1.0000 0.01260  0.15070  0.86120  Biso   1.000  H
  H67      1.0000 0.01260  0.84930  0.13880  Biso   1.000  H
  H68      1.0000 0.98740  0.15070  0.63880  Biso   1.000  H
  H69      1.0000 0.48740  0.34930  0.36120  Biso   1.000  H
  H70      1.0000 0.51260  0.65070  0.86120  Biso   1.000  H
  H71      1.0000 0.51260  0.34930  0.13880  Biso   1.000  H
  H72      1.0000 0.48740  0.65070  0.63880  Biso   1.000  H
  O1       1.0000 0.55000  0.64560  0.32400  Biso   1.000  O
  O2       1.0000 0.45000  0.35440  0.82400  Biso   1.000  O
  O3       1.0000 0.45000  0.64560  0.17600  Biso   1.000  O
  O4       1.0000 0.55000  0.35440  0.67600  Biso   1.000  O
  O5       1.0000 0.05000  0.14560  0.32400  Biso   1.000  O
  O6       1.0000 0.95000  0.85440  0.82400  Biso   1.000  O
  O7       1.0000 0.95000  0.14560  0.17600  Biso   1.000  O
  O8       1.0000 0.05000  0.85440  0.67600  Biso   1.000  O
  O9       1.0000 0.64640  0.71850  0.21740  Biso   1.000  O
  O10      1.0000 0.35360  0.28150  0.71740  Biso   1.000  O
  O11      1.0000 0.35360  0.71850  0.28260  Biso   1.000  O
  O12      1.0000 0.64640  0.28150  0.78260  Biso   1.000  O
  O13      1.0000 0.14640  0.21850  0.21740  Biso   1.000  O
  O14      1.0000 0.85360  0.78150  0.71740  Biso   1.000  O
  O15      1.0000 0.85360  0.21850  0.28260  Biso   1.000  O
  O16      1.0000 0.14640  0.78150  0.78260  Biso   1.000  O
  Cl5      1.0000 0.97290  0.00000  0.50000  Biso   1.000  Cl
  Cl6      1.0000 0.02710  0.00000  0.00000  Biso   1.000  Cl
  Cl7      1.0000 0.47290  0.50000  0.50000  Biso   1.000  Cl
  Cl8      1.0000 0.52710  0.50000  0.00000  Biso   1.000  Cl
  O17      1.0000 0.86100  0.94880  0.53020  Biso   1.000  O
  O18      1.0000 0.13900  0.05120  0.03020  Biso   1.000  O
  O19      1.0000 0.13900  0.94880  0.96980  Biso   1.000  O
  O20      1.0000 0.86100  0.05120  0.46980  Biso   1.000  O
  O21      1.0000 0.36100  0.44880  0.53020  Biso   1.000  O
  O22      1.0000 0.63900  0.55120  0.03020  Biso   1.000  O
  O23      1.0000 0.63900  0.44880  0.96980  Biso   1.000  O
  O24      1.0000 0.36100  0.55120  0.46980  Biso   1.000  O
  O25      1.0000 0.06100  0.96780  0.43700  Biso   1.000  O
  O26      1.0000 0.93900  0.03220  0.93700  Biso   1.000  O
  O27      1.0000 0.93900  0.96780  0.06300  Biso   1.000  O
  O28      1.0000 0.06100  0.03220  0.56300  Biso   1.000  O
  O29      1.0000 0.56100  0.46780  0.43700  Biso   1.000  O
  O30      1.0000 0.43900  0.53220  0.93700  Biso   1.000  O
  O31      1.0000 0.43900  0.46780  0.06300  Biso   1.000  O
  O32      1.0000 0.56100  0.53220  0.56300  Biso   1.000  O
  O33      1.0000 0.00000  0.96190  0.25000  Biso   1.000  O
  O34      1.0000 0.00000  0.03810  0.75000  Biso   1.000  O
  O35      1.0000 0.50000  0.46190  0.25000  Biso   1.000  O
  O36      1.0000 0.50000  0.53810  0.75000  Biso   1.000  O
