data_image0
_cell_length_a       12.4972
_cell_length_b       13.7
_cell_length_c       15.442
_cell_angle_alpha    90
_cell_angle_beta     104.401
_cell_angle_gamma    90

_symmetry_space_group_name_H-M    "P 1"
_symmetry_int_tables_number       1

loop_
  _symmetry_equiv_pos_as_xyz
  'x, y, z'

loop_
  _atom_site_label
  _atom_site_occupancy
  _atom_site_fract_x
  _atom_site_fract_y
  _atom_site_fract_z
  _atom_site_thermal_displace_type
  _atom_site_B_iso_or_equiv
  _atom_site_type_symbol
  Pt1      1.0000 0.28863  0.97416  0.92691  Biso   1.000  Pt
  Pt2      1.0000 0.71137  0.47416  0.57309  Biso   1.000  Pt
  Pt3      1.0000 0.71137  0.02584  0.07309  Biso   1.000  Pt
  Pt4      1.0000 0.28863  0.52584  0.42691  Biso   1.000  Pt
  Cu1      1.0000 0.44510  0.56079  0.93746  Biso   1.000  Cu
  Cu2      1.0000 0.55490  0.06079  0.56254  Biso   1.000  Cu
  Cu3      1.0000 0.55490  0.43921  0.06254  Biso   1.000  Cu
  Cu4      1.0000 0.44510  0.93921  0.43746  Biso   1.000  Cu
  N1       1.0000 0.25580  0.93400  0.79890  Biso   1.000  N
  N2       1.0000 0.74420  0.43400  0.70110  Biso   1.000  N
  N3       1.0000 0.74420  0.06600  0.20110  Biso   1.000  N
  N4       1.0000 0.25580  0.56600  0.29890  Biso   1.000  N
  N5       1.0000 0.24720  0.11330  0.88800  Biso   1.000  N
  N6       1.0000 0.75280  0.61330  0.61200  Biso   1.000  N
  N7       1.0000 0.75280  0.88670  0.11200  Biso   1.000  N
  N8       1.0000 0.24720  0.38670  0.38800  Biso   1.000  N
  N9       1.0000 0.32230  0.00290  0.05980  Biso   1.000  N
  N10      1.0000 0.67770  0.50290  0.44020  Biso   1.000  N
  N11      1.0000 0.67770  0.99710  0.94020  Biso   1.000  N
  N12      1.0000 0.32230  0.49710  0.55980  Biso   1.000  N
  H1       1.0000 0.35200  0.06280  0.07100  Biso   1.000  H
  H2       1.0000 0.64800  0.56280  0.42900  Biso   1.000  H
  H3       1.0000 0.64800  0.93720  0.92900  Biso   1.000  H
  H4       1.0000 0.35200  0.43720  0.57100  Biso   1.000  H
  H5       1.0000 0.25990  0.00080  0.07870  Biso   1.000  H
  H6       1.0000 0.74010  0.50080  0.42130  Biso   1.000  H
  H7       1.0000 0.74010  0.99920  0.92130  Biso   1.000  H
  H8       1.0000 0.25990  0.49920  0.57870  Biso   1.000  H
  N13      1.0000 0.33290  0.83670  0.96730  Biso   1.000  N
  N14      1.0000 0.66710  0.33670  0.53270  Biso   1.000  N
  N15      1.0000 0.66710  0.16330  0.03270  Biso   1.000  N
  N16      1.0000 0.33290  0.66330  0.46730  Biso   1.000  N
  H9       1.0000 0.27520  0.79630  0.94750  Biso   1.000  H
  H10      1.0000 0.72480  0.29630  0.55250  Biso   1.000  H
  H11      1.0000 0.72480  0.20370  0.05250  Biso   1.000  H
  H12      1.0000 0.27520  0.70370  0.44750  Biso   1.000  H
  H13      1.0000 0.38840  0.81700  0.94380  Biso   1.000  H
  H14      1.0000 0.61160  0.31700  0.55620  Biso   1.000  H
  H15      1.0000 0.61160  0.18300  0.05620  Biso   1.000  H
  H16      1.0000 0.38840  0.68300  0.44380  Biso   1.000  H
  O1       1.0000 0.44790  0.01890  0.62890  Biso   1.000  O
  O2       1.0000 0.55210  0.51890  0.87110  Biso   1.000  O
  O3       1.0000 0.55210  0.98110  0.37110  Biso   1.000  O
  O4       1.0000 0.44790  0.48110  0.12890  Biso   1.000  O
  O5       1.0000 0.35720  0.91700  0.52450  Biso   1.000  O
  O6       1.0000 0.64280  0.41700  0.97550  Biso   1.000  O
  O7       1.0000 0.64280  0.08300  0.47550  Biso   1.000  O
  O8       1.0000 0.35720  0.58300  0.02450  Biso   1.000  O
  O9       1.0000 0.35470  0.44600  0.89520  Biso   1.000  O
  O10      1.0000 0.64530  0.94600  0.60480  Biso   1.000  O
  O11      1.0000 0.64530  0.55400  0.10480  Biso   1.000  O
  O12      1.0000 0.35470  0.05400  0.39520  Biso   1.000  O
  O13      1.0000 0.44670  0.34130  0.99630  Biso   1.000  O
  O14      1.0000 0.55330  0.84130  0.50370  Biso   1.000  O
  O15      1.0000 0.55330  0.65870  0.00370  Biso   1.000  O
  O16      1.0000 0.44670  0.15870  0.49630  Biso   1.000  O
  O17      1.0000 0.35250  0.66210  0.84070  Biso   1.000  O
  O18      1.0000 0.64750  0.16210  0.65930  Biso   1.000  O
  O19      1.0000 0.64750  0.33790  0.15930  Biso   1.000  O
  O20      1.0000 0.35250  0.83790  0.34070  Biso   1.000  O
  C1       1.0000 0.31700  0.95630  0.74530  Biso   1.000  C
  C2       1.0000 0.68300  0.45630  0.75470  Biso   1.000  C
  C3       1.0000 0.68300  0.04370  0.25470  Biso   1.000  C
  C4       1.0000 0.31700  0.54370  0.24530  Biso   1.000  C
  H17      1.0000 0.37940  0.99410  0.76830  Biso   1.000  H
  H18      1.0000 0.62060  0.49410  0.73170  Biso   1.000  H
  H19      1.0000 0.62060  0.00590  0.23170  Biso   1.000  H
  H20      1.0000 0.37940  0.50590  0.26830  Biso   1.000  H
  C5       1.0000 0.29700  0.92830  0.65570  Biso   1.000  C
  C6       1.0000 0.70300  0.42830  0.84430  Biso   1.000  C
  C7       1.0000 0.70300  0.07170  0.34430  Biso   1.000  C
  C8       1.0000 0.29700  0.57170  0.15570  Biso   1.000  C
  C9       1.0000 0.20800  0.86950  0.62260  Biso   1.000  C
  C10      1.0000 0.79200  0.36950  0.87740  Biso   1.000  C
  C11      1.0000 0.79200  0.13050  0.37740  Biso   1.000  C
  C12      1.0000 0.20800  0.63050  0.12260  Biso   1.000  C
  H21      1.0000 0.19340  0.84720  0.56400  Biso   1.000  H
  H22      1.0000 0.80660  0.34720  0.93600  Biso   1.000  H
  H23      1.0000 0.80660  0.15280  0.43600  Biso   1.000  H
  H24      1.0000 0.19340  0.65280  0.06400  Biso   1.000  H
  C13      1.0000 0.14100  0.84400  0.67670  Biso   1.000  C
  C14      1.0000 0.85900  0.34400  0.82330  Biso   1.000  C
  C15      1.0000 0.85900  0.15600  0.32330  Biso   1.000  C
  C16      1.0000 0.14100  0.65600  0.17670  Biso   1.000  C
  H25      1.0000 0.07840  0.80610  0.65540  Biso   1.000  H
  H26      1.0000 0.92160  0.30610  0.84460  Biso   1.000  H
  H27      1.0000 0.92160  0.19390  0.34460  Biso   1.000  H
  H28      1.0000 0.07840  0.69390  0.15540  Biso   1.000  H
  C17      1.0000 0.17100  0.87590  0.76490  Biso   1.000  C
  C18      1.0000 0.82900  0.37590  0.73510  Biso   1.000  C
  C19      1.0000 0.82900  0.12410  0.23510  Biso   1.000  C
  C20      1.0000 0.17100  0.62410  0.26490  Biso   1.000  C
  H29      1.0000 0.12810  0.85520  0.80280  Biso   1.000  H
  H30      1.0000 0.87190  0.35520  0.69720  Biso   1.000  H
  H31      1.0000 0.87190  0.14480  0.19720  Biso   1.000  H
  H32      1.0000 0.12810  0.64480  0.30280  Biso   1.000  H
  C21      1.0000 0.37600  0.95910  0.60030  Biso   1.000  C
  C22      1.0000 0.62400  0.45910  0.89970  Biso   1.000  C
  C23      1.0000 0.62400  0.04090  0.39970  Biso   1.000  C
  C24      1.0000 0.37600  0.54090  0.10030  Biso   1.000  C
  C25      1.0000 0.31360  0.18980  0.91970  Biso   1.000  C
  C26      1.0000 0.68640  0.68980  0.58030  Biso   1.000  C
  C27      1.0000 0.68640  0.81020  0.08030  Biso   1.000  C
  C28      1.0000 0.31360  0.31020  0.41970  Biso   1.000  C
  H33      1.0000 0.37590  0.17780  0.96590  Biso   1.000  H
  H34      1.0000 0.62410  0.67780  0.53410  Biso   1.000  H
  H35      1.0000 0.62410  0.82220  0.03410  Biso   1.000  H
  H36      1.0000 0.37590  0.32220  0.46590  Biso   1.000  H
  C29      1.0000 0.29630  0.28260  0.88930  Biso   1.000  C
  C30      1.0000 0.70370  0.78260  0.61070  Biso   1.000  C
  C31      1.0000 0.70370  0.71740  0.11070  Biso   1.000  C
  C32      1.0000 0.29630  0.21740  0.38930  Biso   1.000  C
  C33      1.0000 0.20600  0.30080  0.82460  Biso   1.000  C
  C34      1.0000 0.79400  0.80080  0.67540  Biso   1.000  C
  C35      1.0000 0.79400  0.69920  0.17540  Biso   1.000  C
  C36      1.0000 0.20600  0.19920  0.32460  Biso   1.000  C
  H37      1.0000 0.19100  0.36380  0.80270  Biso   1.000  H
  H38      1.0000 0.80900  0.86380  0.69730  Biso   1.000  H
  H39      1.0000 0.80900  0.63620  0.19730  Biso   1.000  H
  H40      1.0000 0.19100  0.13620  0.30270  Biso   1.000  H
  C37      1.0000 0.13700  0.22500  0.79070  Biso   1.000  C
  C38      1.0000 0.86300  0.72500  0.70930  Biso   1.000  C
  C39      1.0000 0.86300  0.77500  0.20930  Biso   1.000  C
  C40      1.0000 0.13700  0.27500  0.29070  Biso   1.000  C
  H41      1.0000 0.07460  0.23680  0.74420  Biso   1.000  H
  H42      1.0000 0.92540  0.73680  0.75580  Biso   1.000  H
  H43      1.0000 0.92540  0.76320  0.25580  Biso   1.000  H
  H44      1.0000 0.07460  0.26320  0.24420  Biso   1.000  H
  C41      1.0000 0.15630  0.13390  0.82330  Biso   1.000  C
  C42      1.0000 0.84370  0.63390  0.67670  Biso   1.000  C
  C43      1.0000 0.84370  0.86610  0.17670  Biso   1.000  C
  C44      1.0000 0.15630  0.36610  0.32330  Biso   1.000  C
  H45      1.0000 0.10620  0.08440  0.80070  Biso   1.000  H
  H46      1.0000 0.89380  0.58440  0.69930  Biso   1.000  H
  H47      1.0000 0.89380  0.91560  0.19930  Biso   1.000  H
  H48      1.0000 0.10620  0.41560  0.30070  Biso   1.000  H
  C45      1.0000 0.37100  0.36240  0.92800  Biso   1.000  C
  C46      1.0000 0.62900  0.86240  0.57200  Biso   1.000  C
  C47      1.0000 0.62900  0.63760  0.07200  Biso   1.000  C
  C48      1.0000 0.37100  0.13760  0.42800  Biso   1.000  C
  C49      1.0000 0.40700  0.92280  0.11000  Biso   1.000  C
  C50      1.0000 0.59300  0.42280  0.39000  Biso   1.000  C
  C51      1.0000 0.59300  0.07720  0.89000  Biso   1.000  C
  C52      1.0000 0.40700  0.57720  0.61000  Biso   1.000  C
  H49      1.0000 0.48100  0.93740  0.10500  Biso   1.000  H
  H50      1.0000 0.51900  0.43740  0.39500  Biso   1.000  H
  H51      1.0000 0.51900  0.06260  0.89500  Biso   1.000  H
  H52      1.0000 0.48100  0.56260  0.60500  Biso   1.000  H
  H53      1.0000 0.40740  0.92050  0.17300  Biso   1.000  H
  H54      1.0000 0.59260  0.42050  0.32700  Biso   1.000  H
  H55      1.0000 0.59260  0.07950  0.82700  Biso   1.000  H
  H56      1.0000 0.40740  0.57950  0.67300  Biso   1.000  H
  C53      1.0000 0.36900  0.83150  0.06740  Biso   1.000  C
  C54      1.0000 0.63100  0.33150  0.43260  Biso   1.000  C
  C55      1.0000 0.63100  0.16850  0.93260  Biso   1.000  C
  C56      1.0000 0.36900  0.66850  0.56740  Biso   1.000  C
  H57      1.0000 0.30800  0.80810  0.08980  Biso   1.000  H
  H58      1.0000 0.69200  0.30810  0.41020  Biso   1.000  H
  H59      1.0000 0.69200  0.19190  0.91020  Biso   1.000  H
  H60      1.0000 0.30800  0.69190  0.58980  Biso   1.000  H
  H61      1.0000 0.42850  0.78410  0.08400  Biso   1.000  H
  H62      1.0000 0.57150  0.28410  0.41600  Biso   1.000  H
  H63      1.0000 0.57150  0.21590  0.91600  Biso   1.000  H
  H64      1.0000 0.42850  0.71590  0.58400  Biso   1.000  H
  N17      1.0000 0.44500  0.19650  0.18990  Biso   1.000  N
  N18      1.0000 0.55500  0.69650  0.31010  Biso   1.000  N
  N19      1.0000 0.55500  0.80350  0.81010  Biso   1.000  N
  N20      1.0000 0.44500  0.30350  0.68990  Biso   1.000  N
  O21      1.0000 0.48870  0.15550  0.13080  Biso   1.000  O
  O22      1.0000 0.51130  0.65550  0.36920  Biso   1.000  O
  O23      1.0000 0.51130  0.84450  0.86920  Biso   1.000  O
  O24      1.0000 0.48870  0.34450  0.63080  Biso   1.000  O
  O25      1.0000 0.50000  0.25320  0.24200  Biso   1.000  O
  O26      1.0000 0.50000  0.75320  0.25800  Biso   1.000  O
  O27      1.0000 0.50000  0.74680  0.75800  Biso   1.000  O
  O28      1.0000 0.50000  0.24680  0.74200  Biso   1.000  O
  O29      1.0000 0.34400  0.18000  0.18700  Biso   1.000  O
  O30      1.0000 0.65600  0.68000  0.31300  Biso   1.000  O
  O31      1.0000 0.65600  0.82000  0.81300  Biso   1.000  O
  O32      1.0000 0.34400  0.32000  0.68700  Biso   1.000  O
  O33      1.0000 0.89300  0.26200  0.08030  Biso   1.000  O
  O34      1.0000 0.10700  0.76200  0.41970  Biso   1.000  O
  O35      1.0000 0.10700  0.73800  0.91970  Biso   1.000  O
  O36      1.0000 0.89300  0.23800  0.58030  Biso   1.000  O
  N21      1.0000 0.11800  0.94700  0.20600  Biso   1.000  N
  N22      1.0000 0.88200  0.44700  0.29400  Biso   1.000  N
  N23      1.0000 0.88200  0.05300  0.79400  Biso   1.000  N
  N24      1.0000 0.11800  0.55300  0.70600  Biso   1.000  N
  O37      1.0000 0.04800  0.02400  0.18600  Biso   1.000  O
  O38      1.0000 0.95200  0.52400  0.31400  Biso   1.000  O
  O39      1.0000 0.95200  0.97600  0.81400  Biso   1.000  O
  O40      1.0000 0.04800  0.47600  0.68600  Biso   1.000  O
  O41      1.0000 0.19900  0.93000  0.19000  Biso   1.000  O
  O42      1.0000 0.80100  0.43000  0.31000  Biso   1.000  O
  O43      1.0000 0.80100  0.07000  0.81000  Biso   1.000  O
  O44      1.0000 0.19900  0.57000  0.69000  Biso   1.000  O
  O45      1.0000 0.12500  0.90500  0.28000  Biso   1.000  O
  O46      1.0000 0.87500  0.40500  0.22000  Biso   1.000  O
  O47      1.0000 0.87500  0.09500  0.72000  Biso   1.000  O
  O48      1.0000 0.12500  0.59500  0.78000  Biso   1.000  O
  O49      1.0000 0.12400  0.37200  0.04800  Biso   1.000  O
  O50      1.0000 0.87600  0.87200  0.45200  Biso   1.000  O
  O51      1.0000 0.87600  0.62800  0.95200  Biso   1.000  O
  O52      1.0000 0.12400  0.12800  0.54800  Biso   1.000  O
  O53      1.0000 0.07500  0.29600  0.02700  Biso   1.000  O
  O54      1.0000 0.92500  0.79600  0.47300  Biso   1.000  O
  O55      1.0000 0.92500  0.70400  0.97300  Biso   1.000  O
  O56      1.0000 0.07500  0.20400  0.52700  Biso   1.000  O
