data_image0
_cell_length_a       6.8007
_cell_length_b       7.3759
_cell_length_c       11.5405
_cell_angle_alpha    99.955
_cell_angle_beta     90.307
_cell_angle_gamma    103.294

_symmetry_space_group_name_H-M    "P 1"
_symmetry_int_tables_number       1

loop_
  _symmetry_equiv_pos_as_xyz
  'x, y, z'

loop_
  _atom_site_label
  _atom_site_occupancy
  _atom_site_fract_x
  _atom_site_fract_y
  _atom_site_fract_z
  _atom_site_thermal_displace_type
  _atom_site_B_iso_or_equiv
  _atom_site_type_symbol
  Cu1      1.0000 0.00000  0.00000  0.00000  Biso   1.000  Cu
  N1       1.0000 0.15760  0.83950  0.06176  Biso   1.000  N
  N2       1.0000 0.84240  0.16050  0.93824  Biso   1.000  N
  N3       1.0000 0.27700  0.59950  0.14352  Biso   1.000  N
  N4       1.0000 0.72300  0.40050  0.85648  Biso   1.000  N
  N5       1.0000 0.29890  0.28210  0.04820  Biso   1.000  N
  N6       1.0000 0.70110  0.71790  0.95180  Biso   1.000  N
  N7       1.0000 0.11080  0.93640  0.83944  Biso   1.000  N
  N8       1.0000 0.88920  0.06360  0.16056  Biso   1.000  N
  N9       1.0000 0.24200  0.71050  0.41280  Biso   1.000  N
  N10      1.0000 0.75800  0.28950  0.58720  Biso   1.000  N
  H1       1.0000 0.11680  0.70600  0.41400  Biso   1.000  H
  H2       1.0000 0.88320  0.29400  0.58600  Biso   1.000  H
  H3       1.0000 0.29900  0.69100  0.34820  Biso   1.000  H
  H4       1.0000 0.70100  0.30900  0.65180  Biso   1.000  H
  O1       1.0000 0.54460  0.78420  0.50961  Biso   1.000  O
  O2       1.0000 0.45540  0.21580  0.49039  Biso   1.000  O
  C1       1.0000 0.21180  0.71930  0.09360  Biso   1.000  C
  C2       1.0000 0.78820  0.28070  0.90640  Biso   1.000  C
  C3       1.0000 0.28640  0.43220  0.08670  Biso   1.000  C
  C4       1.0000 0.71360  0.56780  0.91330  Biso   1.000  C
  C5       1.0000 0.98970  0.86500  0.74290  Biso   1.000  C
  C6       1.0000 0.01030  0.13500  0.25710  Biso   1.000  C
  H5       1.0000 0.85100  0.85060  0.74980  Biso   1.000  H
  H6       1.0000 0.14900  0.14940  0.25020  Biso   1.000  H
  C7       1.0000 0.06050  0.81140  0.63350  Biso   1.000  C
  C8       1.0000 0.93950  0.18860  0.36650  Biso   1.000  C
  H7       1.0000 0.97100  0.76070  0.56860  Biso   1.000  H
  H8       1.0000 0.02900  0.23930  0.43140  Biso   1.000  H
  C9       1.0000 0.26670  0.83440  0.62180  Biso   1.000  C
  C10      1.0000 0.73330  0.16560  0.37820  Biso   1.000  C
  C11      1.0000 0.39190  0.91270  0.72070  Biso   1.000  C
  C12      1.0000 0.60810  0.08730  0.27930  Biso   1.000  C
  H9       1.0000 0.53140  0.93350  0.71550  Biso   1.000  H
  H10      1.0000 0.46860  0.06650  0.28450  Biso   1.000  H
  C13      1.0000 0.30970  0.96030  0.82750  Biso   1.000  C
  C14      1.0000 0.69030  0.03970  0.17250  Biso   1.000  C
  H11      1.0000 0.39620  0.01100  0.89370  Biso   1.000  H
  H12      1.0000 0.60380  0.98900  0.10630  Biso   1.000  H
  C15      1.0000 0.36270  0.77380  0.50860  Biso   1.000  C
  C16      1.0000 0.63730  0.22620  0.49140  Biso   1.000  C
  O3       1.0000 0.81600  0.64890  0.37040  Biso   1.000  O
  O4       1.0000 0.18400  0.35110  0.62960  Biso   1.000  O
  H13      1.0000 0.72300  0.68800  0.40700  Biso   1.000  H
  H14      1.0000 0.27700  0.31200  0.59300  Biso   1.000  H
  C17      1.0000 0.75420  0.58160  0.25520  Biso   1.000  C
  C18      1.0000 0.24580  0.41840  0.74480  Biso   1.000  C
  H15      1.0000 0.73580  0.68400  0.21840  Biso   1.000  H
  H16      1.0000 0.26420  0.31600  0.78160  Biso   1.000  H
  H17      1.0000 0.62870  0.48840  0.25070  Biso   1.000  H
  H18      1.0000 0.37130  0.51160  0.74930  Biso   1.000  H
  H19      1.0000 0.85480  0.52490  0.21540  Biso   1.000  H
  H20      1.0000 0.14520  0.47510  0.78460  Biso   1.000  H
