data_image0
_cell_length_a       16.9433
_cell_length_b       13.6986
_cell_length_c       7.8434
_cell_angle_alpha    90
_cell_angle_beta     100.371
_cell_angle_gamma    90

_symmetry_space_group_name_H-M    "P 1"
_symmetry_int_tables_number       1

loop_
  _symmetry_equiv_pos_as_xyz
  'x, y, z'

loop_
  _atom_site_label
  _atom_site_occupancy
  _atom_site_fract_x
  _atom_site_fract_y
  _atom_site_fract_z
  _atom_site_thermal_displace_type
  _atom_site_B_iso_or_equiv
  _atom_site_type_symbol
  Cu1      1.0000 0.00000  0.50000  0.00000  Biso   1.000  Cu
  Cu2      1.0000 0.00000  0.00000  0.50000  Biso   1.000  Cu
  Cu3      1.0000 0.50000  0.50000  0.00000  Biso   1.000  Cu
  Cu4      1.0000 0.50000  0.00000  0.50000  Biso   1.000  Cu
  Cl1      1.0000 0.07534  0.47716  0.26282  Biso   1.000  Cl
  Cl2      1.0000 0.92466  0.97716  0.23718  Biso   1.000  Cl
  Cl3      1.0000 0.92466  0.52284  0.73718  Biso   1.000  Cl
  Cl4      1.0000 0.07534  0.02284  0.76282  Biso   1.000  Cl
  Cl5      1.0000 0.45449  0.52219  0.24632  Biso   1.000  Cl
  Cl6      1.0000 0.54551  0.02219  0.25368  Biso   1.000  Cl
  Cl7      1.0000 0.54551  0.47781  0.75368  Biso   1.000  Cl
  Cl8      1.0000 0.45449  0.97781  0.74632  Biso   1.000  Cl
  S1       1.0000 0.84616  0.53245  0.14739  Biso   1.000  S
  S2       1.0000 0.15384  0.03245  0.35261  Biso   1.000  S
  S3       1.0000 0.15384  0.46755  0.85261  Biso   1.000  S
  S4       1.0000 0.84616  0.96755  0.64739  Biso   1.000  S
  S5       1.0000 0.67628  0.50175  0.20458  Biso   1.000  S
  S6       1.0000 0.32372  0.00175  0.29542  Biso   1.000  S
  S7       1.0000 0.32372  0.49825  0.79542  Biso   1.000  S
  S8       1.0000 0.67628  0.99825  0.70458  Biso   1.000  S
  N1       1.0000 0.92872  0.38861  0.04760  Biso   1.000  N
  N2       1.0000 0.07128  0.88861  0.45240  Biso   1.000  N
  N3       1.0000 0.07128  0.61139  0.95240  Biso   1.000  N
  N4       1.0000 0.92872  0.11139  0.54760  Biso   1.000  N
  N5       1.0000 0.80997  0.34328  0.15150  Biso   1.000  N
  N6       1.0000 0.19003  0.84328  0.34850  Biso   1.000  N
  N7       1.0000 0.19003  0.65672  0.84850  Biso   1.000  N
  N8       1.0000 0.80997  0.15672  0.65150  Biso   1.000  N
  N9       1.0000 0.56717  0.62264  0.05040  Biso   1.000  N
  N10      1.0000 0.43283  0.12264  0.44960  Biso   1.000  N
  N11      1.0000 0.43283  0.37736  0.94960  Biso   1.000  N
  N12      1.0000 0.56717  0.87736  0.55040  Biso   1.000  N
  N13      1.0000 0.69069  0.69529  0.18380  Biso   1.000  N
  N14      1.0000 0.30931  0.19529  0.31620  Biso   1.000  N
  N15      1.0000 0.30931  0.30471  0.81620  Biso   1.000  N
  N16      1.0000 0.69069  0.80471  0.68380  Biso   1.000  N
  C1       1.0000 0.86182  0.40820  0.11290  Biso   1.000  C
  C2       1.0000 0.13818  0.90820  0.38710  Biso   1.000  C
  C3       1.0000 0.13818  0.59180  0.88710  Biso   1.000  C
  C4       1.0000 0.86182  0.09180  0.61290  Biso   1.000  C
  C5       1.0000 0.76401  0.17640  0.16060  Biso   1.000  C
  C6       1.0000 0.23599  0.67640  0.33940  Biso   1.000  C
  C7       1.0000 0.23599  0.82360  0.83940  Biso   1.000  C
  C8       1.0000 0.76401  0.32360  0.66060  Biso   1.000  C
  H1       1.0000 0.73650  0.20220  0.24750  Biso   1.000  H
  H2       1.0000 0.26350  0.70220  0.25250  Biso   1.000  H
  H3       1.0000 0.26350  0.79780  0.75250  Biso   1.000  H
  H4       1.0000 0.73650  0.29780  0.74750  Biso   1.000  H
  H5       1.0000 0.79050  0.11660  0.20150  Biso   1.000  H
  H6       1.0000 0.20950  0.61660  0.29850  Biso   1.000  H
  H7       1.0000 0.20950  0.88340  0.79850  Biso   1.000  H
  H8       1.0000 0.79050  0.38340  0.70150  Biso   1.000  H
  H9       1.0000 0.72600  0.16380  0.05650  Biso   1.000  H
  H10      1.0000 0.27400  0.66380  0.44350  Biso   1.000  H
  H11      1.0000 0.27400  0.83620  0.94350  Biso   1.000  H
  H12      1.0000 0.72600  0.33620  0.55650  Biso   1.000  H
  C9       1.0000 0.82535  0.24930  0.12310  Biso   1.000  C
  C10      1.0000 0.17465  0.74930  0.37690  Biso   1.000  C
  C11      1.0000 0.17465  0.75070  0.87690  Biso   1.000  C
  C12      1.0000 0.82535  0.25070  0.62310  Biso   1.000  C
  C13      1.0000 0.89341  0.22220  0.06080  Biso   1.000  C
  C14      1.0000 0.10659  0.72220  0.43920  Biso   1.000  C
  C15      1.0000 0.10659  0.77780  0.93920  Biso   1.000  C
  C16      1.0000 0.89341  0.27780  0.56080  Biso   1.000  C
  H13      1.0000 0.90410  0.15670  0.04390  Biso   1.000  H
  H14      1.0000 0.09590  0.65670  0.45610  Biso   1.000  H
  H15      1.0000 0.09590  0.84330  0.95610  Biso   1.000  H
  H16      1.0000 0.90410  0.34330  0.54390  Biso   1.000  H
  C17      1.0000 0.94530  0.29350  0.02410  Biso   1.000  C
  C18      1.0000 0.05470  0.79350  0.47590  Biso   1.000  C
  C19      1.0000 0.05470  0.70650  0.97590  Biso   1.000  C
  C20      1.0000 0.94530  0.20650  0.52410  Biso   1.000  C
  C21      1.0000 0.02192  0.27070  0.96420  Biso   1.000  C
  C22      1.0000 0.97808  0.77070  0.53580  Biso   1.000  C
  C23      1.0000 0.97808  0.72930  0.03580  Biso   1.000  C
  C24      1.0000 0.02192  0.22930  0.46420  Biso   1.000  C
  H17      1.0000 0.02530  0.30840  0.86260  Biso   1.000  H
  H18      1.0000 0.97470  0.80840  0.63740  Biso   1.000  H
  H19      1.0000 0.97470  0.69160  0.13740  Biso   1.000  H
  H20      1.0000 0.02530  0.19160  0.36260  Biso   1.000  H
  H21      1.0000 0.02340  0.20240  0.93720  Biso   1.000  H
  H22      1.0000 0.97660  0.70240  0.56280  Biso   1.000  H
  H23      1.0000 0.97660  0.79760  0.06280  Biso   1.000  H
  H24      1.0000 0.02340  0.29760  0.43720  Biso   1.000  H
  H25      1.0000 0.06640  0.28650  0.05420  Biso   1.000  H
  H26      1.0000 0.93360  0.78650  0.44580  Biso   1.000  H
  H27      1.0000 0.93360  0.71350  0.94580  Biso   1.000  H
  H28      1.0000 0.06640  0.21350  0.55420  Biso   1.000  H
  C25      1.0000 0.64272  0.61970  0.14040  Biso   1.000  C
  C26      1.0000 0.35728  0.11970  0.35960  Biso   1.000  C
  C27      1.0000 0.35728  0.38030  0.85960  Biso   1.000  C
  C28      1.0000 0.64272  0.88030  0.64040  Biso   1.000  C
  C29      1.0000 0.71490  0.86900  0.18900  Biso   1.000  C
  C30      1.0000 0.28510  0.36900  0.31100  Biso   1.000  C
  C31      1.0000 0.28510  0.13100  0.81100  Biso   1.000  C
  C32      1.0000 0.71490  0.63100  0.68900  Biso   1.000  C
  H29      1.0000 0.71820  0.87990  0.31100  Biso   1.000  H
  H30      1.0000 0.28180  0.37990  0.18900  Biso   1.000  H
  H31      1.0000 0.28180  0.12010  0.68900  Biso   1.000  H
  H32      1.0000 0.71820  0.62010  0.81100  Biso   1.000  H
  H33      1.0000 0.69350  0.92610  0.12610  Biso   1.000  H
  H34      1.0000 0.30650  0.42610  0.37390  Biso   1.000  H
  H35      1.0000 0.30650  0.07390  0.87390  Biso   1.000  H
  H36      1.0000 0.69350  0.57390  0.62610  Biso   1.000  H
  H37      1.0000 0.76750  0.85560  0.16530  Biso   1.000  H
  H38      1.0000 0.23250  0.35560  0.33470  Biso   1.000  H
  H39      1.0000 0.23250  0.14440  0.83470  Biso   1.000  H
  H40      1.0000 0.76750  0.64440  0.66530  Biso   1.000  H
  C33      1.0000 0.66113  0.78380  0.13390  Biso   1.000  C
  C34      1.0000 0.33887  0.28380  0.36610  Biso   1.000  C
  C35      1.0000 0.33887  0.21620  0.86610  Biso   1.000  C
  C36      1.0000 0.66113  0.71620  0.63390  Biso   1.000  C
  C37      1.0000 0.58447  0.79410  0.04080  Biso   1.000  C
  C38      1.0000 0.41553  0.29410  0.45920  Biso   1.000  C
  C39      1.0000 0.41553  0.20590  0.95920  Biso   1.000  C
  C40      1.0000 0.58447  0.70590  0.54080  Biso   1.000  C
  H41      1.0000 0.56420  0.85570  0.00730  Biso   1.000  H
  H42      1.0000 0.43580  0.35570  0.49270  Biso   1.000  H
  H43      1.0000 0.43580  0.14430  0.99270  Biso   1.000  H
  H44      1.0000 0.56420  0.64430  0.50730  Biso   1.000  H
  C41      1.0000 0.53781  0.71110  0.99770  Biso   1.000  C
  C42      1.0000 0.46219  0.21110  0.50230  Biso   1.000  C
  C43      1.0000 0.46219  0.28890  0.00230  Biso   1.000  C
  C44      1.0000 0.53781  0.78890  0.49770  Biso   1.000  C
  C45      1.0000 0.45419  0.71570  0.89920  Biso   1.000  C
  C46      1.0000 0.54581  0.21570  0.60080  Biso   1.000  C
  C47      1.0000 0.54581  0.28430  0.10080  Biso   1.000  C
  C48      1.0000 0.45419  0.78430  0.39920  Biso   1.000  C
  H45      1.0000 0.44930  0.67410  0.79930  Biso   1.000  H
  H46      1.0000 0.55070  0.17410  0.70070  Biso   1.000  H
  H47      1.0000 0.55070  0.32590  0.20070  Biso   1.000  H
  H48      1.0000 0.44930  0.82590  0.29930  Biso   1.000  H
  H49      1.0000 0.44170  0.78170  0.86270  Biso   1.000  H
  H50      1.0000 0.55830  0.28170  0.63730  Biso   1.000  H
  H51      1.0000 0.55830  0.21830  0.13730  Biso   1.000  H
  H52      1.0000 0.44170  0.71830  0.36270  Biso   1.000  H
  H53      1.0000 0.41770  0.69430  0.97200  Biso   1.000  H
  H54      1.0000 0.58230  0.19430  0.52800  Biso   1.000  H
  H55      1.0000 0.58230  0.30570  0.02800  Biso   1.000  H
  H56      1.0000 0.41770  0.80570  0.47200  Biso   1.000  H
  C49      1.0000 0.77835  0.52580  0.29710  Biso   1.000  C
  C50      1.0000 0.22165  0.02580  0.20290  Biso   1.000  C
  C51      1.0000 0.22165  0.47420  0.70290  Biso   1.000  C
  C52      1.0000 0.77835  0.97420  0.79710  Biso   1.000  C
  H57      1.0000 0.79680  0.47510  0.38110  Biso   1.000  H
  H58      1.0000 0.20320  0.97510  0.11890  Biso   1.000  H
  H59      1.0000 0.20320  0.52490  0.61890  Biso   1.000  H
  H60      1.0000 0.79680  0.02490  0.88110  Biso   1.000  H
  H61      1.0000 0.78070  0.58720  0.35960  Biso   1.000  H
  H62      1.0000 0.21930  0.08720  0.14040  Biso   1.000  H
  H63      1.0000 0.21930  0.41280  0.64040  Biso   1.000  H
  H64      1.0000 0.78070  0.91280  0.85960  Biso   1.000  H
