data_image0
_cell_length_a       10.8052
_cell_length_b       12.2282
_cell_length_c       16.9267
_cell_angle_alpha    85.757
_cell_angle_beta     78.075
_cell_angle_gamma    70.174

_symmetry_space_group_name_H-M    "P 1"
_symmetry_int_tables_number       1

loop_
  _symmetry_equiv_pos_as_xyz
  'x, y, z'

loop_
  _atom_site_label
  _atom_site_occupancy
  _atom_site_fract_x
  _atom_site_fract_y
  _atom_site_fract_z
  _atom_site_thermal_displace_type
  _atom_site_B_iso_or_equiv
  _atom_site_type_symbol
  Cu1      1.0000 0.56528  0.81819  0.33012  Biso   1.000  Cu
  Cu2      1.0000 0.43472  0.18181  0.66988  Biso   1.000  Cu
  Cu3      1.0000 0.75619  0.75021  0.94582  Biso   1.000  Cu
  Cu4      1.0000 0.24381  0.24979  0.05418  Biso   1.000  Cu
  S1       1.0000 0.23762  0.62340  0.02524  Biso   1.000  S
  S2       1.0000 0.76238  0.37660  0.97476  Biso   1.000  S
  S3       1.0000 0.46182  0.58430  0.11862  Biso   1.000  S
  S4       1.0000 0.53818  0.41570  0.88138  Biso   1.000  S
  S5       1.0000 0.45430  0.41887  0.26241  Biso   1.000  S
  S6       1.0000 0.54570  0.58113  0.73759  Biso   1.000  S
  S7       1.0000 0.39627  0.53603  0.42285  Biso   1.000  S
  S8       1.0000 0.60373  0.46397  0.57715  Biso   1.000  S
  S9       1.0000 0.64049  0.14615  0.36502  Biso   1.000  S
  S10      1.0000 0.35951  0.85385  0.63498  Biso   1.000  S
  S11      1.0000 0.82305  0.14374  0.20320  Biso   1.000  S
  S12      1.0000 0.17695  0.85626  0.79680  Biso   1.000  S
  S13      1.0000 0.99164  0.91070  0.12606  Biso   1.000  S
  S14      1.0000 0.00836  0.08930  0.87394  Biso   1.000  S
  S15      1.0000 0.28278  0.87978  0.12130  Biso   1.000  S
  S16      1.0000 0.71722  0.12022  0.87870  Biso   1.000  S
  S17      1.0000 0.98852  0.60316  0.22515  Biso   1.000  S
  S18      1.0000 0.01148  0.39684  0.77485  Biso   1.000  S
  S19      1.0000 0.11708  0.70163  0.33082  Biso   1.000  S
  S20      1.0000 0.88292  0.29837  0.66918  Biso   1.000  S
  S21      1.0000 0.99060  0.95223  0.38761  Biso   1.000  S
  S22      1.0000 0.00940  0.04777  0.61239  Biso   1.000  S
  S23      1.0000 0.16721  0.08582  0.30172  Biso   1.000  S
  S24      1.0000 0.83279  0.91418  0.69828  Biso   1.000  S
  O1       1.0000 0.57168  0.81244  0.47320  Biso   1.000  O
  O2       1.0000 0.42832  0.18756  0.52680  Biso   1.000  O
  O3       1.0000 0.73180  0.66440  0.50290  Biso   1.000  O
  O4       1.0000 0.26820  0.33560  0.49710  Biso   1.000  O
  O5       1.0000 0.72530  0.83780  0.52495  Biso   1.000  O
  O6       1.0000 0.27470  0.16220  0.47505  Biso   1.000  O
  O7       1.0000 0.95353  0.67524  0.93426  Biso   1.000  O
  O8       1.0000 0.04647  0.32476  0.06574  Biso   1.000  O
  O9       1.0000 0.12352  0.58874  0.84182  Biso   1.000  O
  O10      1.0000 0.87648  0.41126  0.15818  Biso   1.000  O
  O11      1.0000 0.93100  0.68285  0.80935  Biso   1.000  O
  O12      1.0000 0.06900  0.31715  0.19065  Biso   1.000  O
  O13      1.0000 0.55967  0.81088  0.96616  Biso   1.000  O
  O14      1.0000 0.44033  0.18912  0.03384  Biso   1.000  O
  O15      1.0000 0.57260  0.80885  0.83699  Biso   1.000  O
  O16      1.0000 0.42740  0.19115  0.16301  Biso   1.000  O
  O17      1.0000 0.39366  0.80058  0.91946  Biso   1.000  O
  O18      1.0000 0.60634  0.19942  0.08054  Biso   1.000  O
  O19      1.0000 0.73781  0.74251  0.08360  Biso   1.000  O
  O20      1.0000 0.26219  0.25749  0.91640  Biso   1.000  O
  O21      1.0000 0.63583  0.92736  0.09534  Biso   1.000  O
  O22      1.0000 0.36417  0.07264  0.90466  Biso   1.000  O
  O23      1.0000 0.56889  0.81092  0.18169  Biso   1.000  O
  O24      1.0000 0.43111  0.18908  0.81831  Biso   1.000  O
  N1       1.0000 0.25535  0.41294  0.05305  Biso   1.000  N
  N2       1.0000 0.74465  0.58706  0.94695  Biso   1.000  N
  N3       1.0000 0.34973  0.42878  0.09035  Biso   1.000  N
  N4       1.0000 0.65027  0.57122  0.90965  Biso   1.000  N
  N5       1.0000 0.52108  0.60327  0.29310  Biso   1.000  N
  N6       1.0000 0.47892  0.39673  0.70690  Biso   1.000  N
  N7       1.0000 0.50981  0.67701  0.35411  Biso   1.000  N
  N8       1.0000 0.49019  0.32299  0.64589  Biso   1.000  N
  N9       1.0000 0.61635  0.96080  0.32558  Biso   1.000  N
  N10      1.0000 0.38365  0.03920  0.67442  Biso   1.000  N
  N11      1.0000 0.70148  0.98622  0.25989  Biso   1.000  N
  N12      1.0000 0.29852  0.01378  0.74011  Biso   1.000  N
  N13      1.0000 0.11105  0.07331  0.09162  Biso   1.000  N
  N14      1.0000 0.88895  0.92669  0.90838  Biso   1.000  N
  N15      1.0000 0.23249  0.09158  0.08222  Biso   1.000  N
  N16      1.0000 0.76751  0.90842  0.91778  Biso   1.000  N
  N17      1.0000 0.76217  0.72472  0.30009  Biso   1.000  N
  N18      1.0000 0.23783  0.27528  0.69991  Biso   1.000  N
  N19      1.0000 0.85228  0.75247  0.33531  Biso   1.000  N
  N20      1.0000 0.14772  0.24753  0.66469  Biso   1.000  N
  N21      1.0000 0.26128  0.88756  0.36745  Biso   1.000  N
  N22      1.0000 0.73872  0.11244  0.63255  Biso   1.000  N
  N23      1.0000 0.36932  0.92245  0.33338  Biso   1.000  N
  N24      1.0000 0.63068  0.07755  0.66662  Biso   1.000  N
  N25      1.0000 0.67850  0.77020  0.50163  Biso   1.000  N
  N26      1.0000 0.32150  0.22980  0.49837  Biso   1.000  N
  N27      1.0000 0.00418  0.64868  0.85938  Biso   1.000  N
  N28      1.0000 0.99582  0.35132  0.14062  Biso   1.000  N
  N29      1.0000 0.50690  0.80686  0.90503  Biso   1.000  N
  N30      1.0000 0.49310  0.19314  0.09497  Biso   1.000  N
  N31      1.0000 0.64722  0.82756  0.12054  Biso   1.000  N
  N32      1.0000 0.35278  0.17244  0.87946  Biso   1.000  N
  C1       1.0000 0.19040  0.50527  0.01712  Biso   1.000  C
  C2       1.0000 0.80960  0.49473  0.98288  Biso   1.000  C
  H1       1.0000 0.12400  0.50720  0.98930  Biso   1.000  H
  H2       1.0000 0.87600  0.49280  0.01070  Biso   1.000  H
  C3       1.0000 0.35250  0.53468  0.08065  Biso   1.000  C
  C4       1.0000 0.64750  0.46532  0.91935  Biso   1.000  C
  C5       1.0000 0.54660  0.45212  0.16791  Biso   1.000  C
  C6       1.0000 0.45340  0.54788  0.83209  Biso   1.000  C
  H3       1.0000 0.56940  0.38780  0.13130  Biso   1.000  H
  H4       1.0000 0.43060  0.61220  0.86870  Biso   1.000  H
  H5       1.0000 0.63000  0.45730  0.17730  Biso   1.000  H
  H6       1.0000 0.37000  0.54270  0.82270  Biso   1.000  H
  C7       1.0000 0.46540  0.52524  0.32101  Biso   1.000  C
  C8       1.0000 0.53460  0.47476  0.67899  Biso   1.000  C
  C9       1.0000 0.44900  0.65260  0.42357  Biso   1.000  C
  C10      1.0000 0.55100  0.34740  0.57643  Biso   1.000  C
  H7       1.0000 0.43520  0.69490  0.47000  Biso   1.000  H
  H8       1.0000 0.56480  0.30510  0.53000  Biso   1.000  H
  C11      1.0000 0.57800  0.03470  0.38377  Biso   1.000  C
  C12      1.0000 0.42200  0.96530  0.61623  Biso   1.000  C
  H9       1.0000 0.52120  0.02760  0.43180  Biso   1.000  H
  H10      1.0000 0.47880  0.97240  0.56820  Biso   1.000  H
  C13      1.0000 0.72200  0.08197  0.27193  Biso   1.000  C
  C14      1.0000 0.27800  0.91803  0.72807  Biso   1.000  C
  C15      1.0000 0.85910  0.04680  0.11999  Biso   1.000  C
  C16      1.0000 0.14090  0.95320  0.88001  Biso   1.000  C
  H11      1.0000 0.88330  0.08590  0.07020  Biso   1.000  H
  H12      1.0000 0.11670  0.91410  0.92980  Biso   1.000  H
  H13      1.0000 0.77810  0.03060  0.11730  Biso   1.000  H
  H14      1.0000 0.22190  0.96940  0.88270  Biso   1.000  H
  C17      1.0000 0.12380  0.96615  0.11055  Biso   1.000  C
  C18      1.0000 0.87620  0.03385  0.88945  Biso   1.000  C
  C19      1.0000 0.33000  0.99921  0.09464  Biso   1.000  C
  C20      1.0000 0.67000  0.00079  0.90536  Biso   1.000  C
  H15      1.0000 0.41780  0.99810  0.08950  Biso   1.000  H
  H16      1.0000 0.58220  0.00190  0.91050  Biso   1.000  H
  C21      1.0000 0.81770  0.64900  0.24308  Biso   1.000  C
  C22      1.0000 0.18230  0.35100  0.75692  Biso   1.000  C
  H17      1.0000 0.76920  0.62210  0.21450  Biso   1.000  H
  H18      1.0000 0.23080  0.37790  0.78550  Biso   1.000  H
  C23      1.0000 0.97430  0.69500  0.30196  Biso   1.000  C
  C24      1.0000 0.02570  0.30500  0.69804  Biso   1.000  C
  C25      1.0000 0.04000  0.80080  0.41486  Biso   1.000  C
  C26      1.0000 0.96000  0.19920  0.58514  Biso   1.000  C
  H19      1.0000 0.96130  0.78380  0.44410  Biso   1.000  H
  H20      1.0000 0.03870  0.21620  0.55590  Biso   1.000  H
  H21      1.0000 0.10240  0.78650  0.45120  Biso   1.000  H
  H22      1.0000 0.89760  0.21350  0.54880  Biso   1.000  H
  C27      1.0000 0.14930  0.96500  0.35592  Biso   1.000  C
  C28      1.0000 0.85070  0.03500  0.64408  Biso   1.000  C
  C29      1.0000 0.33470  0.02290  0.29779  Biso   1.000  C
  C30      1.0000 0.66530  0.97710  0.70221  Biso   1.000  C
  H23      1.0000 0.39680  0.05770  0.27220  Biso   1.000  H
  H24      1.0000 0.60320  0.94230  0.72780  Biso   1.000  H
  N33      1.0000 0.21040  0.67130  0.59670  Biso   1.000  N
  N34      1.0000 0.78960  0.32870  0.40330  Biso   1.000  N
  C31      1.0000 0.12690  0.63820  0.59930  Biso   1.000  C
  C32      1.0000 0.87310  0.36180  0.40070  Biso   1.000  C
  C33      1.0000 0.01730  0.59620  0.60060  Biso   1.000  C
  C34      1.0000 0.98270  0.40380  0.39940  Biso   1.000  C
  H25      1.0000 0.95480  0.64850  0.57070  Biso   1.000  H
  H26      1.0000 0.04520  0.35150  0.42930  Biso   1.000  H
  H27      1.0000 0.97290  0.59140  0.65540  Biso   1.000  H
  H28      1.0000 0.02710  0.40860  0.34460  Biso   1.000  H
  H29      1.0000 0.05090  0.52050  0.57650  Biso   1.000  H
  H30      1.0000 0.94910  0.47950  0.42350  Biso   1.000  H
