data_image0
_cell_length_a       9.6597
_cell_length_b       14.6326
_cell_length_c       14.6675
_cell_angle_alpha    76.538
_cell_angle_beta     87.819
_cell_angle_gamma    70.832

_symmetry_space_group_name_H-M    "P 1"
_symmetry_int_tables_number       1

loop_
  _symmetry_equiv_pos_as_xyz
  'x, y, z'

loop_
  _atom_site_label
  _atom_site_occupancy
  _atom_site_fract_x
  _atom_site_fract_y
  _atom_site_fract_z
  _atom_site_thermal_displace_type
  _atom_site_B_iso_or_equiv
  _atom_site_type_symbol
  C1       1.0000 0.72190  0.02720  0.24920  Biso   1.000  C
  C2       1.0000 0.27810  0.97280  0.75080  Biso   1.000  C
  H1       1.0000 0.78420  0.06220  0.25590  Biso   1.000  H
  H2       1.0000 0.21580  0.93780  0.74410  Biso   1.000  H
  C3       1.0000 0.63090  0.00790  0.32270  Biso   1.000  C
  C4       1.0000 0.36910  0.99210  0.67730  Biso   1.000  C
  H3       1.0000 0.63220  0.02960  0.37730  Biso   1.000  H
  H4       1.0000 0.36780  0.97040  0.62270  Biso   1.000  H
  C5       1.0000 0.54190  0.95710  0.31170  Biso   1.000  C
  C6       1.0000 0.45810  0.04290  0.68830  Biso   1.000  C
  H5       1.0000 0.47860  0.94480  0.35870  Biso   1.000  H
  H6       1.0000 0.52140  0.05520  0.64130  Biso   1.000  H
  C7       1.0000 0.54340  0.92350  0.23260  Biso   1.000  C
  C8       1.0000 0.45660  0.07650  0.76740  Biso   1.000  C
  H7       1.0000 0.48400  0.88650  0.22600  Biso   1.000  H
  H8       1.0000 0.51600  0.11350  0.77400  Biso   1.000  H
  C9       1.0000 0.63410  0.94510  0.16280  Biso   1.000  C
  C10      1.0000 0.36590  0.05490  0.83720  Biso   1.000  C
  C11      1.0000 0.64740  0.91320  0.07500  Biso   1.000  C
  C12      1.0000 0.35260  0.08680  0.92500  Biso   1.000  C
  C13      1.0000 0.57180  0.85470  0.05290  Biso   1.000  C
  C14      1.0000 0.42820  0.14530  0.94710  Biso   1.000  C
  H9       1.0000 0.50520  0.83640  0.09450  Biso   1.000  H
  H10      1.0000 0.49480  0.16360  0.90550  Biso   1.000  H
  C15      1.0000 0.59410  0.82400  0.97150  Biso   1.000  C
  C16      1.0000 0.40590  0.17600  0.02850  Biso   1.000  C
  H11      1.0000 0.54310  0.78510  0.95660  Biso   1.000  H
  H12      1.0000 0.45690  0.21490  0.04340  Biso   1.000  H
  C17      1.0000 0.69340  0.85150  0.91180  Biso   1.000  C
  C18      1.0000 0.30660  0.14850  0.08820  Biso   1.000  C
  H13      1.0000 0.71270  0.83030  0.85620  Biso   1.000  H
  H14      1.0000 0.28730  0.16970  0.14380  Biso   1.000  H
  C19      1.0000 0.76510  0.91180  0.93540  Biso   1.000  C
  C20      1.0000 0.23490  0.08820  0.06460  Biso   1.000  C
  H15      1.0000 0.83100  0.93140  0.89400  Biso   1.000  H
  H16      1.0000 0.16900  0.06860  0.10600  Biso   1.000  H
  C21      1.0000 0.84650  0.12960  0.86090  Biso   1.000  C
  C22      1.0000 0.15350  0.87040  0.13910  Biso   1.000  C
  C23      1.0000 0.93140  0.17740  0.78750  Biso   1.000  C
  C24      1.0000 0.06860  0.82260  0.21250  Biso   1.000  C
  C25      1.0000 0.92950  0.16830  0.69310  Biso   1.000  C
  C26      1.0000 0.07050  0.83170  0.30690  Biso   1.000  C
  C27      1.0000 0.85570  0.11070  0.66290  Biso   1.000  C
  C28      1.0000 0.14430  0.88930  0.33710  Biso   1.000  C
  H17      1.0000 0.80220  0.07930  0.70540  Biso   1.000  H
  H18      1.0000 0.19780  0.92070  0.29460  Biso   1.000  H
  C29      1.0000 0.86170  0.10070  0.57360  Biso   1.000  C
  C30      1.0000 0.13830  0.89930  0.42640  Biso   1.000  C
  H19      1.0000 0.81460  0.06110  0.55570  Biso   1.000  H
  H20      1.0000 0.18540  0.93890  0.44430  Biso   1.000  H
  C31      1.0000 0.93830  0.14950  0.50780  Biso   1.000  C
  C32      1.0000 0.06170  0.85050  0.49220  Biso   1.000  C
  H21      1.0000 0.94020  0.14330  0.44600  Biso   1.000  H
  H22      1.0000 0.05980  0.85670  0.55400  Biso   1.000  H
  C33      1.0000 0.00980  0.20590  0.53390  Biso   1.000  C
  C34      1.0000 0.99020  0.79410  0.46610  Biso   1.000  C
  H23      1.0000 0.05960  0.23830  0.48930  Biso   1.000  H
  H24      1.0000 0.94040  0.76170  0.51070  Biso   1.000  H
  C35      1.0000 0.01050  0.21660  0.62670  Biso   1.000  C
  C36      1.0000 0.98950  0.78340  0.37330  Biso   1.000  C
  C37      1.0000 0.08750  0.27260  0.65560  Biso   1.000  C
  C38      1.0000 0.91250  0.72740  0.34440  Biso   1.000  C
  C39      1.0000 0.16960  0.32660  0.58630  Biso   1.000  C
  C40      1.0000 0.83040  0.67340  0.41370  Biso   1.000  C
  C41      1.0000 0.08830  0.27780  0.74700  Biso   1.000  C
  C42      1.0000 0.91170  0.72220  0.25300  Biso   1.000  C
  H25      1.0000 0.14180  0.31320  0.76580  Biso   1.000  H
  H26      1.0000 0.85820  0.68680  0.23420  Biso   1.000  H
  C43      1.0000 0.00980  0.23080  0.81330  Biso   1.000  C
  C44      1.0000 0.99020  0.76920  0.18670  Biso   1.000  C
  H27      1.0000 0.01110  0.23590  0.87520  Biso   1.000  H
  H28      1.0000 0.98890  0.76410  0.12480  Biso   1.000  H
  C45      1.0000 0.23260  0.54970  0.60560  Biso   1.000  C
  C46      1.0000 0.76740  0.45030  0.39440  Biso   1.000  C
  H29      1.0000 0.17120  0.51590  0.63590  Biso   1.000  H
  H30      1.0000 0.82880  0.48410  0.36410  Biso   1.000  H
  C47      1.0000 0.29650  0.59460  0.65670  Biso   1.000  C
  C48      1.0000 0.70350  0.40540  0.34330  Biso   1.000  C
  H31      1.0000 0.27770  0.59160  0.71980  Biso   1.000  H
  H32      1.0000 0.72230  0.40840  0.28020  Biso   1.000  H
  C49      1.0000 0.38770  0.64330  0.61280  Biso   1.000  C
  C50      1.0000 0.61230  0.35670  0.38720  Biso   1.000  C
  H33      1.0000 0.43330  0.67330  0.64590  Biso   1.000  H
  H34      1.0000 0.56670  0.32670  0.35410  Biso   1.000  H
  C51      1.0000 0.41170  0.64770  0.52010  Biso   1.000  C
  C52      1.0000 0.58830  0.35230  0.47990  Biso   1.000  C
  H35      1.0000 0.47380  0.68090  0.48970  Biso   1.000  H
  H36      1.0000 0.52620  0.31910  0.51030  Biso   1.000  H
  C53      1.0000 0.34370  0.60280  0.47100  Biso   1.000  C
  C54      1.0000 0.65630  0.39720  0.52900  Biso   1.000  C
  C55      1.0000 0.36290  0.60210  0.37130  Biso   1.000  C
  C56      1.0000 0.63710  0.39790  0.62870  Biso   1.000  C
  C57      1.0000 0.45310  0.64510  0.31590  Biso   1.000  C
  C58      1.0000 0.54690  0.35490  0.68410  Biso   1.000  C
  H37      1.0000 0.50290  0.67960  0.33990  Biso   1.000  H
  H38      1.0000 0.49710  0.32040  0.66010  Biso   1.000  H
  C59      1.0000 0.46920  0.63650  0.22390  Biso   1.000  C
  C60      1.0000 0.53080  0.36350  0.77610  Biso   1.000  C
  H39      1.0000 0.53190  0.66340  0.18560  Biso   1.000  H
  H40      1.0000 0.46810  0.33660  0.81440  Biso   1.000  H
  C61      1.0000 0.39200  0.58820  0.19090  Biso   1.000  C
  C62      1.0000 0.60800  0.41180  0.80910  Biso   1.000  C
  H41      1.0000 0.40010  0.58170  0.12920  Biso   1.000  H
  H42      1.0000 0.59990  0.41830  0.87080  Biso   1.000  H
  C63      1.0000 0.30100  0.54870  0.25000  Biso   1.000  C
  C64      1.0000 0.69900  0.45130  0.75000  Biso   1.000  C
  H43      1.0000 0.24730  0.51660  0.22600  Biso   1.000  H
  H44      1.0000 0.75270  0.48340  0.77400  Biso   1.000  H
  C65      1.0000 0.15530  0.37090  0.31570  Biso   1.000  C
  C66      1.0000 0.84470  0.62910  0.68430  Biso   1.000  C
  C67      1.0000 0.06970  0.33360  0.25550  Biso   1.000  C
  C68      1.0000 0.93030  0.66640  0.74450  Biso   1.000  C
  C69      1.0000 0.08620  0.23410  0.28020  Biso   1.000  C
  C70      1.0000 0.91380  0.76590  0.71980  Biso   1.000  C
  H45      1.0000 0.15110  0.19290  0.32970  Biso   1.000  H
  H46      1.0000 0.84890  0.80710  0.67030  Biso   1.000  H
  C71      1.0000 0.00830  0.19390  0.23310  Biso   1.000  C
  C72      1.0000 0.99170  0.80610  0.76690  Biso   1.000  C
  H47      1.0000 0.02230  0.12610  0.25150  Biso   1.000  H
  H48      1.0000 0.97770  0.87390  0.74850  Biso   1.000  H
  C73      1.0000 0.91190  0.25060  0.16070  Biso   1.000  C
  C74      1.0000 0.08810  0.74940  0.83930  Biso   1.000  C
  C75      1.0000 0.89060  0.35460  0.13170  Biso   1.000  C
  C76      1.0000 0.10940  0.64540  0.86830  Biso   1.000  C
  C77      1.0000 0.97080  0.39650  0.18010  Biso   1.000  C
  C78      1.0000 0.02920  0.60350  0.81990  Biso   1.000  C
  C79      1.0000 0.94970  0.49920  0.15060  Biso   1.000  C
  C80      1.0000 0.05030  0.50080  0.84940  Biso   1.000  C
  H49      1.0000 0.00020  0.52740  0.18250  Biso   1.000  H
  H50      1.0000 0.99980  0.47260  0.81750  Biso   1.000  H
  C81      1.0000 0.85680  0.55830  0.07640  Biso   1.000  C
  C82      1.0000 0.14320  0.44170  0.92360  Biso   1.000  C
  H51      1.0000 0.84610  0.62550  0.05670  Biso   1.000  H
  H52      1.0000 0.15390  0.37450  0.94330  Biso   1.000  H
  C83      1.0000 0.77910  0.51700  0.03100  Biso   1.000  C
  C84      1.0000 0.22090  0.48300  0.96900  Biso   1.000  C
  H53      1.0000 0.71330  0.55750  0.98180  Biso   1.000  H
  H54      1.0000 0.28670  0.44250  0.01820  Biso   1.000  H
  C85      1.0000 0.79640  0.41930  0.05640  Biso   1.000  C
  C86      1.0000 0.20360  0.58070  0.94360  Biso   1.000  C
  H55      1.0000 0.74410  0.39380  0.02280  Biso   1.000  H
  H56      1.0000 0.25590  0.60620  0.97720  Biso   1.000  H
  C87      1.0000 0.83430  0.19960  0.11210  Biso   1.000  C
  C88      1.0000 0.16570  0.80040  0.88790  Biso   1.000  C
  N1       1.0000 0.72240  0.99740  0.17030  Biso   1.000  N
  N2       1.0000 0.27760  0.00260  0.82970  Biso   1.000  N
  N3       1.0000 0.74300  0.94220  0.01430  Biso   1.000  N
  N4       1.0000 0.25700  0.05780  0.98570  Biso   1.000  N
  N5       1.0000 0.28580  0.55400  0.33900  Biso   1.000  N
  N6       1.0000 0.71420  0.44600  0.66100  Biso   1.000  N
  N7       1.0000 0.25480  0.55250  0.51490  Biso   1.000  N
  N8       1.0000 0.74520  0.44750  0.48510  Biso   1.000  N
  O1       1.0000 0.92020  0.07810  0.93740  Biso   1.000  O
  O2       1.0000 0.07980  0.92190  0.06260  Biso   1.000  O
  O3       1.0000 0.71710  0.14170  0.84640  Biso   1.000  O
  O4       1.0000 0.28290  0.85830  0.15360  Biso   1.000  O
  O5       1.0000 0.30140  0.29270  0.58140  Biso   1.000  O
  O6       1.0000 0.69860  0.70730  0.41860  Biso   1.000  O
  O7       1.0000 0.08860  0.41080  0.53740  Biso   1.000  O
  O8       1.0000 0.91140  0.58920  0.46260  Biso   1.000  O
  O9       1.0000 0.28750  0.32260  0.33470  Biso   1.000  O
  O10      1.0000 0.71250  0.67740  0.66530  Biso   1.000  O
  O11      1.0000 0.08290  0.44880  0.34320  Biso   1.000  O
  O12      1.0000 0.91710  0.55120  0.65680  Biso   1.000  O
  O13      1.0000 0.70730  0.23930  0.08030  Biso   1.000  O
  O14      1.0000 0.29270  0.76070  0.91970  Biso   1.000  O
  O15      1.0000 0.91170  0.10970  0.11180  Biso   1.000  O
  O16      1.0000 0.08830  0.89030  0.88820  Biso   1.000  O
  Cu1      1.0000 0.16894  0.49092  0.43476  Biso   1.000  Cu
  Cu2      1.0000 0.83106  0.50908  0.56524  Biso   1.000  Cu
  Cu3      1.0000 0.83492  0.02993  0.05551  Biso   1.000  Cu
  Cu4      1.0000 0.16508  0.97007  0.94449  Biso   1.000  Cu
  O17      1.0000 0.43770  0.14960  0.46380  Biso   1.000  O
  O18      1.0000 0.56230  0.85040  0.53620  Biso   1.000  O
  O19      1.0000 0.45140  0.34150  0.16220  Biso   1.000  O
  O20      1.0000 0.54860  0.65850  0.83780  Biso   1.000  O
