data_image0
_cell_length_a       14.8527
_cell_length_b       15.7723
_cell_length_c       17.4004
_cell_angle_alpha    72.343
_cell_angle_beta     66.337
_cell_angle_gamma    63.668

_symmetry_space_group_name_H-M    "P 1"
_symmetry_int_tables_number       1

loop_
  _symmetry_equiv_pos_as_xyz
  'x, y, z'

loop_
  _atom_site_label
  _atom_site_occupancy
  _atom_site_fract_x
  _atom_site_fract_y
  _atom_site_fract_z
  _atom_site_thermal_displace_type
  _atom_site_B_iso_or_equiv
  _atom_site_type_symbol
  Cu1      1.0000 0.16559  0.06763  0.14556  Biso   1.000  Cu
  Cu2      1.0000 0.83441  0.93237  0.85444  Biso   1.000  Cu
  Cu3      1.0000 0.27411  0.46808  0.38195  Biso   1.000  Cu
  Cu4      1.0000 0.72589  0.53192  0.61805  Biso   1.000  Cu
  Mo1      1.0000 0.38838  0.00894  0.47899  Biso   1.000  Mo
  Mo2      1.0000 0.61162  0.99106  0.52101  Biso   1.000  Mo
  Mo3      1.0000 0.52089  0.23359  0.44388  Biso   1.000  Mo
  Mo4      1.0000 0.47911  0.76641  0.55612  Biso   1.000  Mo
  Mo5      1.0000 0.56000  0.08552  0.32650  Biso   1.000  Mo
  Mo6      1.0000 0.44000  0.91448  0.67350  Biso   1.000  Mo
  Mo7      1.0000 0.35017  0.15221  0.59744  Biso   1.000  Mo
  Mo8      1.0000 0.64983  0.84779  0.40256  Biso   1.000  Mo
  Mo9      1.0000 0.76703  0.65690  0.09508  Biso   1.000  Mo
  Mo10     1.0000 0.23297  0.34310  0.90492  Biso   1.000  Mo
  Mo11     1.0000 0.78193  0.43527  0.10477  Biso   1.000  Mo
  Mo12     1.0000 0.21807  0.56473  0.89523  Biso   1.000  Mo
  Mo13     1.0000 0.02817  0.46237  0.10169  Biso   1.000  Mo
  Mo14     1.0000 0.97183  0.53763  0.89831  Biso   1.000  Mo
  Mo15     1.0000 0.01721  0.28387  0.99981  Biso   1.000  Mo
  Mo16     1.0000 0.98279  0.71613  0.00019  Biso   1.000  Mo
  O1       1.0000 0.65760  0.04550  0.23810  Biso   1.000  O
  O2       1.0000 0.34240  0.95450  0.76190  Biso   1.000  O
  O3       1.0000 0.63460  0.09750  0.49730  Biso   1.000  O
  O4       1.0000 0.36540  0.90250  0.50270  Biso   1.000  O
  O5       1.0000 0.29100  0.16210  0.70100  Biso   1.000  O
  O6       1.0000 0.70900  0.83790  0.29900  Biso   1.000  O
  O7       1.0000 0.58810  0.30000  0.43810  Biso   1.000  O
  O8       1.0000 0.41190  0.70000  0.56190  Biso   1.000  O
  O9       1.0000 0.41710  0.31380  0.40710  Biso   1.000  O
  O10      1.0000 0.58290  0.68620  0.59290  Biso   1.000  O
  O11      1.0000 0.45670  0.16290  0.29080  Biso   1.000  O
  O12      1.0000 0.54330  0.83710  0.70920  Biso   1.000  O
  O13      1.0000 0.33560  0.03250  0.59460  Biso   1.000  O
  O14      1.0000 0.66440  0.96750  0.40540  Biso   1.000  O
  O15      1.0000 0.29070  0.09100  0.43780  Biso   1.000  O
  O16      1.0000 0.70930  0.90900  0.56220  Biso   1.000  O
  O17      1.0000 0.60600  0.16880  0.34710  Biso   1.000  O
  O18      1.0000 0.39400  0.83120  0.65290  Biso   1.000  O
  O19      1.0000 0.44370  0.21800  0.56200  Biso   1.000  O
  O20      1.0000 0.55630  0.78200  0.43800  Biso   1.000  O
  O21      1.0000 0.25630  0.23080  0.54930  Biso   1.000  O
  O22      1.0000 0.74370  0.76920  0.45070  Biso   1.000  O
  O23      1.0000 0.47090  0.09700  0.46800  Biso   1.000  O
  O24      1.0000 0.52910  0.90300  0.53200  Biso   1.000  O
  O25      1.0000 0.68740  0.66210  0.19600  Biso   1.000  O
  O26      1.0000 0.31260  0.33790  0.80400  Biso   1.000  O
  O27      1.0000 0.71880  0.40400  0.06240  Biso   1.000  O
  O28      1.0000 0.28120  0.59600  0.93760  Biso   1.000  O
  O29      1.0000 0.07650  0.55480  0.04110  Biso   1.000  O
  O30      1.0000 0.92350  0.44520  0.95890  Biso   1.000  O
  O31      1.0000 0.90950  0.63130  0.96000  Biso   1.000  O
  O32      1.0000 0.09050  0.36870  0.04000  Biso   1.000  O
  O33      1.0000 0.87890  0.68510  0.09950  Biso   1.000  O
  O34      1.0000 0.12110  0.31490  0.90050  Biso   1.000  O
  O35      1.0000 0.73640  0.57000  0.06190  Biso   1.000  O
  O36      1.0000 0.26360  0.43000  0.93810  Biso   1.000  O
  O37      1.0000 0.95600  0.25140  0.95550  Biso   1.000  O
  O38      1.0000 0.04400  0.74860  0.04450  Biso   1.000  O
  O39      1.0000 0.70360  0.76110  0.03960  Biso   1.000  O
  O40      1.0000 0.29640  0.23890  0.96040  Biso   1.000  O
  O41      1.0000 0.09430  0.17930  0.04290  Biso   1.000  O
  O42      1.0000 0.90570  0.82070  0.95710  Biso   1.000  O
  O43      1.0000 0.88740  0.50310  0.12550  Biso   1.000  O
  O44      1.0000 0.11260  0.49690  0.87450  Biso   1.000  O
  O45      1.0000 0.71480  0.42970  0.20950  Biso   1.000  O
  O46      1.0000 0.28520  0.57030  0.79050  Biso   1.000  O
  O47      1.0000 0.05860  0.42280  0.19260  Biso   1.000  O
  O48      1.0000 0.94140  0.57720  0.80740  Biso   1.000  O
  O49      1.0000 0.90990  0.32690  0.10060  Biso   1.000  O
  O50      1.0000 0.09010  0.67310  0.89940  Biso   1.000  O
  O51      1.0000 0.50490  0.97870  0.37600  Biso   1.000  O
  O52      1.0000 0.49510  0.02130  0.62400  Biso   1.000  O
  C1       1.0000 0.02320  0.20510  0.26560  Biso   1.000  C
  C2       1.0000 0.97680  0.79490  0.73440  Biso   1.000  C
  H1       1.0000 0.08250  0.22090  0.25430  Biso   1.000  H
  H2       1.0000 0.91750  0.77910  0.74570  Biso   1.000  H
  C3       1.0000 0.92470  0.25490  0.32010  Biso   1.000  C
  C4       1.0000 0.07530  0.74510  0.67990  Biso   1.000  C
  H3       1.0000 0.91770  0.30440  0.34490  Biso   1.000  H
  H4       1.0000 0.08230  0.69560  0.65510  Biso   1.000  H
  C5       1.0000 0.84070  0.23280  0.33700  Biso   1.000  C
  C6       1.0000 0.15930  0.76720  0.66300  Biso   1.000  C
  H5       1.0000 0.77530  0.26440  0.37630  Biso   1.000  H
  H6       1.0000 0.22470  0.73560  0.62370  Biso   1.000  H
  C7       1.0000 0.84790  0.16470  0.29820  Biso   1.000  C
  C8       1.0000 0.15210  0.83530  0.70180  Biso   1.000  C
  H7       1.0000 0.78790  0.15120  0.30680  Biso   1.000  H
  H8       1.0000 0.21210  0.84880  0.69320  Biso   1.000  H
  C9       1.0000 0.95040  0.11530  0.24410  Biso   1.000  C
  C10      1.0000 0.04960  0.88470  0.75590  Biso   1.000  C
  C11      1.0000 0.96710  0.04100  0.19960  Biso   1.000  C
  C12      1.0000 0.03290  0.95900  0.80040  Biso   1.000  C
  C13      1.0000 0.90410  0.99730  0.20060  Biso   1.000  C
  C14      1.0000 0.09590  0.00270  0.79940  Biso   1.000  C
  H9       1.0000 0.83130  0.01100  0.23200  Biso   1.000  H
  H10      1.0000 0.16870  0.98900  0.76800  Biso   1.000  H
  C15      1.0000 0.96630  0.93120  0.14820  Biso   1.000  C
  C16      1.0000 0.03370  0.06880  0.85180  Biso   1.000  C
  H11      1.0000 0.94540  0.89020  0.13460  Biso   1.000  H
  H12      1.0000 0.05460  0.10980  0.86540  Biso   1.000  H
  C17      1.0000 0.16030  0.87350  0.05960  Biso   1.000  C
  C18      1.0000 0.83970  0.12650  0.94040  Biso   1.000  C
  H13      1.0000 0.19670  0.91430  0.01480  Biso   1.000  H
  H14      1.0000 0.80330  0.08570  0.98520  Biso   1.000  H
  H15      1.0000 0.13780  0.84360  0.03160  Biso   1.000  H
  H16      1.0000 0.86220  0.15640  0.96840  Biso   1.000  H
  C19      1.0000 0.23740  0.79540  0.10390  Biso   1.000  C
  C20      1.0000 0.76260  0.20460  0.89610  Biso   1.000  C
  C21      1.0000 0.22990  0.78690  0.18660  Biso   1.000  C
  C22      1.0000 0.77010  0.21310  0.81340  Biso   1.000  C
  H17      1.0000 0.17230  0.83220  0.22070  Biso   1.000  H
  H18      1.0000 0.82770  0.16780  0.77930  Biso   1.000  H
  C23      1.0000 0.30400  0.71410  0.22140  Biso   1.000  C
  C24      1.0000 0.69600  0.28590  0.77860  Biso   1.000  C
  H19      1.0000 0.29680  0.71090  0.27880  Biso   1.000  H
  H20      1.0000 0.70320  0.28910  0.72120  Biso   1.000  H
  C25      1.0000 0.38860  0.64550  0.17520  Biso   1.000  C
  C26      1.0000 0.61140  0.35450  0.82480  Biso   1.000  C
  C27      1.0000 0.39020  0.65300  0.09250  Biso   1.000  C
  C28      1.0000 0.60980  0.34700  0.90750  Biso   1.000  C
  H21      1.0000 0.44410  0.60510  0.05920  Biso   1.000  H
  H22      1.0000 0.55590  0.39490  0.94080  Biso   1.000  H
  C29      1.0000 0.31880  0.72510  0.05830  Biso   1.000  C
  C30      1.0000 0.68120  0.27490  0.94170  Biso   1.000  C
  H23      1.0000 0.32460  0.72780  0.00130  Biso   1.000  H
  H24      1.0000 0.67540  0.27220  0.99870  Biso   1.000  H
  C31      1.0000 0.47130  0.56760  0.20920  Biso   1.000  C
  C32      1.0000 0.52870  0.43240  0.79080  Biso   1.000  C
  H25      1.0000 0.47770  0.50570  0.20060  Biso   1.000  H
  H26      1.0000 0.52230  0.49430  0.79940  Biso   1.000  H
  H27      1.0000 0.53990  0.57550  0.17680  Biso   1.000  H
  H28      1.0000 0.46010  0.42450  0.82320  Biso   1.000  H
  C33      1.0000 0.49140  0.60120  0.33220  Biso   1.000  C
  C34      1.0000 0.50860  0.39880  0.66780  Biso   1.000  C
  H29      1.0000 0.54170  0.63090  0.30110  Biso   1.000  H
  H30      1.0000 0.45830  0.36910  0.69890  Biso   1.000  H
  C35      1.0000 0.44810  0.58810  0.41660  Biso   1.000  C
  C36      1.0000 0.55190  0.41190  0.58340  Biso   1.000  C
  H31      1.0000 0.46260  0.60520  0.45700  Biso   1.000  H
  H32      1.0000 0.53740  0.39480  0.54300  Biso   1.000  H
  C37      1.0000 0.37970  0.54560  0.43280  Biso   1.000  C
  C38      1.0000 0.62030  0.45440  0.56720  Biso   1.000  C
  C39      1.0000 0.30440  0.51650  0.51110  Biso   1.000  C
  C40      1.0000 0.69560  0.48350  0.48890  Biso   1.000  C
  C41      1.0000 0.29450  0.52850  0.59010  Biso   1.000  C
  C42      1.0000 0.70550  0.47150  0.40990  Biso   1.000  C
  H33      1.0000 0.33640  0.55660  0.59500  Biso   1.000  H
  H34      1.0000 0.66360  0.44340  0.40500  Biso   1.000  H
  C43      1.0000 0.22440  0.49990  0.66050  Biso   1.000  C
  C44      1.0000 0.77560  0.50010  0.33950  Biso   1.000  C
  H35      1.0000 0.21820  0.50510  0.71550  Biso   1.000  H
  H36      1.0000 0.78180  0.49490  0.28450  Biso   1.000  H
  C45      1.0000 0.16250  0.46300  0.64970  Biso   1.000  C
  C46      1.0000 0.83750  0.53700  0.35030  Biso   1.000  C
  H37      1.0000 0.11120  0.44460  0.69790  Biso   1.000  H
  H38      1.0000 0.88880  0.55540  0.30210  Biso   1.000  H
  C47      1.0000 0.17350  0.45210  0.56970  Biso   1.000  C
  C48      1.0000 0.82650  0.54790  0.43030  Biso   1.000  C
  H39      1.0000 0.13110  0.42590  0.56290  Biso   1.000  H
  H40      1.0000 0.86890  0.57410  0.43710  Biso   1.000  H
  C49      1.0000 0.38710  0.38330  0.22720  Biso   1.000  C
  C50      1.0000 0.61290  0.61670  0.77280  Biso   1.000  C
  H41      1.0000 0.43580  0.34070  0.25700  Biso   1.000  H
  H42      1.0000 0.56420  0.65930  0.74300  Biso   1.000  H
  C51      1.0000 0.40340  0.36940  0.14590  Biso   1.000  C
  C52      1.0000 0.59660  0.63060  0.85410  Biso   1.000  C
  H43      1.0000 0.46340  0.31860  0.11990  Biso   1.000  H
  H44      1.0000 0.53660  0.68140  0.88010  Biso   1.000  H
  C53      1.0000 0.33050  0.43100  0.10470  Biso   1.000  C
  C54      1.0000 0.66950  0.56900  0.89530  Biso   1.000  C
  H45      1.0000 0.33920  0.42170  0.05030  Biso   1.000  H
  H46      1.0000 0.66080  0.57830  0.94970  Biso   1.000  H
  C55      1.0000 0.24630  0.50490  0.14110  Biso   1.000  C
  C56      1.0000 0.75370  0.49510  0.85890  Biso   1.000  C
  H47      1.0000 0.19790  0.54840  0.11130  Biso   1.000  H
  H48      1.0000 0.80210  0.45160  0.88870  Biso   1.000  H
  C57      1.0000 0.23070  0.51720  0.22130  Biso   1.000  C
  C58      1.0000 0.76930  0.48280  0.77870  Biso   1.000  C
  C59      1.0000 0.13910  0.58750  0.26720  Biso   1.000  C
  C60      1.0000 0.86090  0.41250  0.73280  Biso   1.000  C
  C61      1.0000 0.05270  0.65270  0.24170  Biso   1.000  C
  C62      1.0000 0.94730  0.34730  0.75830  Biso   1.000  C
  H49      1.0000 0.04090  0.66100  0.18960  Biso   1.000  H
  H50      1.0000 0.95910  0.33900  0.81040  Biso   1.000  H
  C63      1.0000 0.98750  0.70270  0.30860  Biso   1.000  C
  C64      1.0000 0.01250  0.29730  0.69140  Biso   1.000  C
  H51      1.0000 0.92170  0.75440  0.31100  Biso   1.000  H
  H52      1.0000 0.07830  0.24560  0.68900  Biso   1.000  H
  C65      1.0000 0.99720  0.70120  0.44950  Biso   1.000  C
  C66      1.0000 0.00280  0.29880  0.55050  Biso   1.000  C
  H53      1.0000 0.01870  0.64650  0.49340  Biso   1.000  H
  H54      1.0000 0.98130  0.35350  0.50660  Biso   1.000  H
  H55      1.0000 0.91910  0.73130  0.46880  Biso   1.000  H
  H56      1.0000 0.08090  0.26870  0.53120  Biso   1.000  H
  C67      1.0000 0.04420  0.77350  0.43950  Biso   1.000  C
  C68      1.0000 0.95580  0.22650  0.56050  Biso   1.000  C
  C69      1.0000 0.98960  0.87220  0.41790  Biso   1.000  C
  C70      1.0000 0.01040  0.12780  0.58210  Biso   1.000  C
  H57      1.0000 0.92040  0.89550  0.41400  Biso   1.000  H
  H58      1.0000 0.07960  0.10450  0.58600  Biso   1.000  H
  C71      1.0000 0.04110  0.93520  0.40220  Biso   1.000  C
  C72      1.0000 0.95890  0.06480  0.59780  Biso   1.000  C
  H59      1.0000 0.00530  0.00160  0.38650  Biso   1.000  H
  H60      1.0000 0.99470  0.99840  0.61350  Biso   1.000  H
  C73      1.0000 0.13840  0.90640  0.40820  Biso   1.000  C
  C74      1.0000 0.86160  0.09360  0.59180  Biso   1.000  C
  C75      1.0000 0.18270  0.81080  0.43370  Biso   1.000  C
  C76      1.0000 0.81730  0.18920  0.56630  Biso   1.000  C
  H61      1.0000 0.25100  0.78790  0.43940  Biso   1.000  H
  H62      1.0000 0.74900  0.21210  0.56060  Biso   1.000  H
  C77      1.0000 0.13930  0.74650  0.45130  Biso   1.000  C
  C78      1.0000 0.86070  0.25350  0.54870  Biso   1.000  C
  H63      1.0000 0.17450  0.68180  0.47230  Biso   1.000  H
  H64      1.0000 0.82550  0.31820  0.52770  Biso   1.000  H
  C79      1.0000 0.19400  0.97210  0.38010  Biso   1.000  C
  C80      1.0000 0.80600  0.02790  0.61990  Biso   1.000  C
  H65      1.0000 0.14480  0.03800  0.36740  Biso   1.000  H
  H66      1.0000 0.85520  0.96200  0.63260  Biso   1.000  H
  H67      1.0000 0.21730  0.97060  0.42660  Biso   1.000  H
  H68      1.0000 0.78270  0.02940  0.57340  Biso   1.000  H
  C81      1.0000 0.38610  0.89100  0.30050  Biso   1.000  C
  C82      1.0000 0.61390  0.10900  0.69950  Biso   1.000  C
  H69      1.0000 0.41400  0.86570  0.34670  Biso   1.000  H
  H70      1.0000 0.58600  0.13430  0.65330  Biso   1.000  H
  C83      1.0000 0.44110  0.87530  0.21910  Biso   1.000  C
  C84      1.0000 0.55890  0.12470  0.78090  Biso   1.000  C
  H71      1.0000 0.51400  0.83880  0.19610  Biso   1.000  H
  H72      1.0000 0.48600  0.16120  0.80390  Biso   1.000  H
  C85      1.0000 0.36600  0.92530  0.17770  Biso   1.000  C
  C86      1.0000 0.63400  0.07470  0.82230  Biso   1.000  C
  C87      1.0000 0.37840  0.93820  0.08570  Biso   1.000  C
  C88      1.0000 0.62160  0.06180  0.91430  Biso   1.000  C
  C89      1.0000 0.47340  0.88750  0.03020  Biso   1.000  C
  C90      1.0000 0.52660  0.11250  0.96980  Biso   1.000  C
  H73      1.0000 0.53210  0.84180  0.04830  Biso   1.000  H
  H74      1.0000 0.46790  0.15820  0.95170  Biso   1.000  H
  C91      1.0000 0.47550  0.90980  0.94400  Biso   1.000  C
  C92      1.0000 0.52450  0.09020  0.05600  Biso   1.000  C
  H75      1.0000 0.53850  0.87700  0.90350  Biso   1.000  H
  H76      1.0000 0.46150  0.12300  0.09650  Biso   1.000  H
  C93      1.0000 0.39460  0.97390  0.91620  Biso   1.000  C
  C94      1.0000 0.60540  0.02610  0.08380  Biso   1.000  C
  H77      1.0000 0.39870  0.98710  0.85820  Biso   1.000  H
  H78      1.0000 0.60130  0.01290  0.14180  Biso   1.000  H
  C95      1.0000 0.30690  0.01860  0.97610  Biso   1.000  C
  C96      1.0000 0.69310  0.98140  0.02390  Biso   1.000  C
  H79      1.0000 0.24850  0.06500  0.95800  Biso   1.000  H
  H80      1.0000 0.75150  0.93500  0.04200  Biso   1.000  H
  N1       1.0000 0.03460  0.13540  0.22930  Biso   1.000  N
  N2       1.0000 0.96540  0.86460  0.77070  Biso   1.000  N
  N3       1.0000 0.06760  0.00100  0.15040  Biso   1.000  N
  N4       1.0000 0.93240  0.99900  0.84960  Biso   1.000  N
  N5       1.0000 0.06540  0.93440  0.11840  Biso   1.000  N
  N6       1.0000 0.93460  0.06560  0.88160  Biso   1.000  N
  N7       1.0000 0.45030  0.56450  0.29930  Biso   1.000  N
  N8       1.0000 0.54970  0.43550  0.70070  Biso   1.000  N
  N9       1.0000 0.37700  0.53070  0.36110  Biso   1.000  N
  N10      1.0000 0.62300  0.46930  0.63890  Biso   1.000  N
  N11      1.0000 0.24540  0.47940  0.50230  Biso   1.000  N
  N12      1.0000 0.75460  0.52060  0.49770  Biso   1.000  N
  N13      1.0000 0.30250  0.45700  0.26350  Biso   1.000  N
  N14      1.0000 0.69750  0.54300  0.73650  Biso   1.000  N
  N15      1.0000 0.13020  0.59550  0.34440  Biso   1.000  N
  N16      1.0000 0.86980  0.40450  0.65560  Biso   1.000  N
  N17      1.0000 0.03270  0.66610  0.36900  Biso   1.000  N
  N18      1.0000 0.96730  0.33390  0.63100  Biso   1.000  N
  N19      1.0000 0.28580  0.94810  0.30480  Biso   1.000  N
  N20      1.0000 0.71420  0.05190  0.69520  Biso   1.000  N
  N21      1.0000 0.27270  0.96860  0.22650  Biso   1.000  N
  N22      1.0000 0.72730  0.03140  0.77350  Biso   1.000  N
  N23      1.0000 0.29520  0.00260  0.06060  Biso   1.000  N
  N24      1.0000 0.70480  0.99740  0.93940  Biso   1.000  N
  O53      1.0000 0.19360  0.37880  0.42400  Biso   1.000  O
  O54      1.0000 0.80640  0.62120  0.57600  Biso   1.000  O
  O55      1.0000 0.23330  0.16590  0.13110  Biso   1.000  O
  O56      1.0000 0.76670  0.83410  0.86890  Biso   1.000  O
  O57      1.0000 0.12550  0.33260  0.33200  Biso   1.000  O
  O58      1.0000 0.87450  0.66740  0.66800  Biso   1.000  O
  O59      1.0000 0.29050  0.16780  0.26130  Biso   1.000  O
  O60      1.0000 0.70950  0.83220  0.73870  Biso   1.000  O
