data_image0
_cell_length_a       11.4772
_cell_length_b       8.7255
_cell_length_c       15.469
_cell_angle_alpha    90
_cell_angle_beta     107.041
_cell_angle_gamma    90

_symmetry_space_group_name_H-M    "P 1"
_symmetry_int_tables_number       1

loop_
  _symmetry_equiv_pos_as_xyz
  'x, y, z'

loop_
  _atom_site_label
  _atom_site_occupancy
  _atom_site_fract_x
  _atom_site_fract_y
  _atom_site_fract_z
  _atom_site_thermal_displace_type
  _atom_site_B_iso_or_equiv
  _atom_site_type_symbol
  Cu1      1.0000 0.12264  0.14055  0.23020  Biso   1.000  Cu
  Cu2      1.0000 0.37736  0.64055  0.26980  Biso   1.000  Cu
  Cu3      1.0000 0.87736  0.85945  0.76980  Biso   1.000  Cu
  Cu4      1.0000 0.62264  0.35945  0.73020  Biso   1.000  Cu
  O1       1.0000 0.20166  0.34460  0.23416  Biso   1.000  O
  O2       1.0000 0.29834  0.84460  0.26584  Biso   1.000  O
  O3       1.0000 0.79834  0.65540  0.76584  Biso   1.000  O
  O4       1.0000 0.70166  0.15540  0.73416  Biso   1.000  O
  O5       1.0000 0.05451  0.39066  0.10992  Biso   1.000  O
  O6       1.0000 0.44549  0.89066  0.39008  Biso   1.000  O
  O7       1.0000 0.94549  0.60934  0.89008  Biso   1.000  O
  O8       1.0000 0.55451  0.10934  0.60992  Biso   1.000  O
  O9       1.0000 0.19721  0.55988  0.16179  Biso   1.000  O
  O10      1.0000 0.30279  0.05988  0.33821  Biso   1.000  O
  O11      1.0000 0.80279  0.44012  0.83821  Biso   1.000  O
  O12      1.0000 0.69721  0.94012  0.66179  Biso   1.000  O
  O13      1.0000 0.07995  0.18334  0.34233  Biso   1.000  O
  O14      1.0000 0.42005  0.68334  0.15767  Biso   1.000  O
  O15      1.0000 0.92005  0.81666  0.65767  Biso   1.000  O
  O16      1.0000 0.57995  0.31666  0.84233  Biso   1.000  O
  O17      1.0000 0.93053  0.31287  0.25141  Biso   1.000  O
  O18      1.0000 0.56947  0.81287  0.24859  Biso   1.000  O
  O19      1.0000 0.06947  0.68713  0.74859  Biso   1.000  O
  O20      1.0000 0.43053  0.18713  0.75141  Biso   1.000  O
  O21      1.0000 0.95260  0.30917  0.39604  Biso   1.000  O
  O22      1.0000 0.54740  0.80917  0.10396  Biso   1.000  O
  O23      1.0000 0.04740  0.69083  0.60396  Biso   1.000  O
  O24      1.0000 0.45260  0.19083  0.89604  Biso   1.000  O
  N1       1.0000 0.18025  0.06750  0.12822  Biso   1.000  N
  N2       1.0000 0.31975  0.56750  0.37178  Biso   1.000  N
  N3       1.0000 0.81975  0.93250  0.87178  Biso   1.000  N
  N4       1.0000 0.68025  0.43250  0.62822  Biso   1.000  N
  N5       1.0000 0.01422  0.95878  0.19580  Biso   1.000  N
  N6       1.0000 0.48578  0.45878  0.30420  Biso   1.000  N
  N7       1.0000 0.98578  0.04122  0.80420  Biso   1.000  N
  N8       1.0000 0.51422  0.54122  0.69580  Biso   1.000  N
  N9       1.0000 0.14899  0.43328  0.16694  Biso   1.000  N
  N10      1.0000 0.35101  0.93328  0.33306  Biso   1.000  N
  N11      1.0000 0.85101  0.56672  0.83306  Biso   1.000  N
  N12      1.0000 0.64899  0.06672  0.66694  Biso   1.000  N
  N13      1.0000 0.98489  0.27222  0.32967  Biso   1.000  N
  N14      1.0000 0.51511  0.77222  0.17033  Biso   1.000  N
  N15      1.0000 0.01511  0.72778  0.67033  Biso   1.000  N
  N16      1.0000 0.48489  0.22778  0.82967  Biso   1.000  N
  C1       1.0000 0.27508  0.12436  0.10432  Biso   1.000  C
  C2       1.0000 0.22492  0.62436  0.39568  Biso   1.000  C
  C3       1.0000 0.72492  0.87564  0.89568  Biso   1.000  C
  C4       1.0000 0.77508  0.37564  0.60432  Biso   1.000  C
  C5       1.0000 0.31803  0.05620  0.03880  Biso   1.000  C
  C6       1.0000 0.18197  0.55620  0.46120  Biso   1.000  C
  C7       1.0000 0.68197  0.94380  0.96120  Biso   1.000  C
  C8       1.0000 0.81803  0.44380  0.53880  Biso   1.000  C
  C9       1.0000 0.26136  0.92403  0.99468  Biso   1.000  C
  C10      1.0000 0.23864  0.42403  0.50532  Biso   1.000  C
  C11      1.0000 0.73864  0.07597  0.00532  Biso   1.000  C
  C12      1.0000 0.76136  0.57597  0.49468  Biso   1.000  C
  C13      1.0000 0.16353  0.86496  0.02074  Biso   1.000  C
  C14      1.0000 0.33647  0.36496  0.47926  Biso   1.000  C
  C15      1.0000 0.83647  0.13504  0.97926  Biso   1.000  C
  C16      1.0000 0.66353  0.63504  0.52074  Biso   1.000  C
  C17      1.0000 0.12625  0.93756  0.08817  Biso   1.000  C
  C18      1.0000 0.37375  0.43756  0.41183  Biso   1.000  C
  C19      1.0000 0.87375  0.06244  0.91183  Biso   1.000  C
  C20      1.0000 0.62625  0.56244  0.58817  Biso   1.000  C
  C21      1.0000 0.30550  0.84610  0.92367  Biso   1.000  C
  C22      1.0000 0.19450  0.34610  0.57633  Biso   1.000  C
  C23      1.0000 0.69450  0.15390  0.07633  Biso   1.000  C
  C24      1.0000 0.80550  0.65390  0.42367  Biso   1.000  C
  C25      1.0000 0.92816  0.91300  0.23323  Biso   1.000  C
  C26      1.0000 0.57184  0.41300  0.26677  Biso   1.000  C
  C27      1.0000 0.07184  0.08700  0.76677  Biso   1.000  C
  C28      1.0000 0.42816  0.58700  0.73323  Biso   1.000  C
  C29      1.0000 0.85262  0.78930  0.20096  Biso   1.000  C
  C30      1.0000 0.64738  0.28930  0.29904  Biso   1.000  C
  C31      1.0000 0.14738  0.21070  0.79904  Biso   1.000  C
  C32      1.0000 0.35262  0.71070  0.70096  Biso   1.000  C
  C33      1.0000 0.86513  0.70620  0.12700  Biso   1.000  C
  C34      1.0000 0.63487  0.20620  0.37300  Biso   1.000  C
  C35      1.0000 0.13487  0.29380  0.87300  Biso   1.000  C
  C36      1.0000 0.36513  0.79380  0.62700  Biso   1.000  C
  C37      1.0000 0.95592  0.75257  0.08907  Biso   1.000  C
  C38      1.0000 0.54408  0.25257  0.41093  Biso   1.000  C
  C39      1.0000 0.04408  0.24743  0.91093  Biso   1.000  C
  C40      1.0000 0.45592  0.74743  0.58907  Biso   1.000  C
  C41      1.0000 0.02816  0.87903  0.12411  Biso   1.000  C
  C42      1.0000 0.47184  0.37903  0.37589  Biso   1.000  C
  C43      1.0000 0.97184  0.12097  0.87589  Biso   1.000  C
  C44      1.0000 0.52816  0.62097  0.62411  Biso   1.000  C
  C45      1.0000 0.78394  0.57180  0.08891  Biso   1.000  C
  C46      1.0000 0.71606  0.07180  0.41109  Biso   1.000  C
  C47      1.0000 0.21606  0.42820  0.91109  Biso   1.000  C
  C48      1.0000 0.28394  0.92820  0.58891  Biso   1.000  C
  H1       1.0000 0.30990  0.21100  0.13460  Biso   1.000  H
  H2       1.0000 0.19010  0.71100  0.36540  Biso   1.000  H
  H3       1.0000 0.69010  0.78900  0.86540  Biso   1.000  H
  H4       1.0000 0.80990  0.28900  0.63460  Biso   1.000  H
  H5       1.0000 0.38430  0.09700  0.02360  Biso   1.000  H
  H6       1.0000 0.11570  0.59700  0.47640  Biso   1.000  H
  H7       1.0000 0.61570  0.90300  0.97640  Biso   1.000  H
  H8       1.0000 0.88430  0.40300  0.52360  Biso   1.000  H
  H9       1.0000 0.12670  0.77200  0.99550  Biso   1.000  H
  H10      1.0000 0.37330  0.27200  0.50450  Biso   1.000  H
  H11      1.0000 0.87330  0.22800  0.00450  Biso   1.000  H
  H12      1.0000 0.62670  0.72800  0.49550  Biso   1.000  H
  H13      1.0000 0.24000  0.79900  0.87960  Biso   1.000  H
  H14      1.0000 0.26000  0.29900  0.62040  Biso   1.000  H
  H15      1.0000 0.76000  0.20100  0.12040  Biso   1.000  H
  H16      1.0000 0.74000  0.70100  0.37960  Biso   1.000  H
  H17      1.0000 0.36200  0.76500  0.95550  Biso   1.000  H
  H18      1.0000 0.13800  0.26500  0.54450  Biso   1.000  H
  H19      1.0000 0.63800  0.23500  0.04450  Biso   1.000  H
  H20      1.0000 0.86200  0.73500  0.45550  Biso   1.000  H
  H21      1.0000 0.34900  0.91300  0.89600  Biso   1.000  H
  H22      1.0000 0.15100  0.41300  0.60400  Biso   1.000  H
  H23      1.0000 0.65100  0.08700  0.10400  Biso   1.000  H
  H24      1.0000 0.84900  0.58700  0.39600  Biso   1.000  H
  H25      1.0000 0.92200  0.97300  0.28280  Biso   1.000  H
  H26      1.0000 0.57800  0.47300  0.21720  Biso   1.000  H
  H27      1.0000 0.07800  0.02700  0.71720  Biso   1.000  H
  H28      1.0000 0.42200  0.52700  0.78280  Biso   1.000  H
  H29      1.0000 0.79700  0.76800  0.22950  Biso   1.000  H
  H30      1.0000 0.70300  0.26800  0.27050  Biso   1.000  H
  H31      1.0000 0.20300  0.23200  0.77050  Biso   1.000  H
  H32      1.0000 0.29700  0.73200  0.72950  Biso   1.000  H
  H33      1.0000 0.96800  0.70100  0.04290  Biso   1.000  H
  H34      1.0000 0.53200  0.20100  0.45710  Biso   1.000  H
  H35      1.0000 0.03200  0.29900  0.95710  Biso   1.000  H
  H36      1.0000 0.46800  0.79900  0.54290  Biso   1.000  H
  H37      1.0000 0.79700  0.53100  0.03340  Biso   1.000  H
  H38      1.0000 0.70300  0.03100  0.46660  Biso   1.000  H
  H39      1.0000 0.20300  0.46900  0.96660  Biso   1.000  H
  H40      1.0000 0.29700  0.96900  0.53340  Biso   1.000  H
  H41      1.0000 0.69900  0.59800  0.07540  Biso   1.000  H
  H42      1.0000 0.80100  0.09800  0.42460  Biso   1.000  H
  H43      1.0000 0.30100  0.40200  0.92460  Biso   1.000  H
  H44      1.0000 0.19900  0.90200  0.57540  Biso   1.000  H
  H45      1.0000 0.79900  0.49000  0.13200  Biso   1.000  H
  H46      1.0000 0.70100  0.99000  0.36800  Biso   1.000  H
  H47      1.0000 0.20100  0.51000  0.86800  Biso   1.000  H
  H48      1.0000 0.29900  0.01000  0.63200  Biso   1.000  H
