data_image0
_cell_length_a       6.8953
_cell_length_b       16.4266
_cell_length_c       8.6791
_cell_angle_alpha    90
_cell_angle_beta     108.814
_cell_angle_gamma    90

_symmetry_space_group_name_H-M    "P 1"
_symmetry_int_tables_number       1

loop_
  _symmetry_equiv_pos_as_xyz
  'x, y, z'

loop_
  _atom_site_label
  _atom_site_occupancy
  _atom_site_fract_x
  _atom_site_fract_y
  _atom_site_fract_z
  _atom_site_thermal_displace_type
  _atom_site_B_iso_or_equiv
  _atom_site_type_symbol
  Cu1      1.0000 0.00000  0.00000  0.00000  Biso   1.000  Cu
  Cu2      1.0000 0.50000  0.50000  0.50000  Biso   1.000  Cu
  Cu3      1.0000 0.50000  0.00000  0.00000  Biso   1.000  Cu
  Cu4      1.0000 0.00000  0.50000  0.50000  Biso   1.000  Cu
  C1       1.0000 0.73940  0.10136  0.60430  Biso   1.000  C
  C2       1.0000 0.76060  0.60136  0.89570  Biso   1.000  C
  C3       1.0000 0.26060  0.89864  0.39570  Biso   1.000  C
  C4       1.0000 0.23940  0.39864  0.10430  Biso   1.000  C
  H1       1.0000 0.67510  0.08070  0.68070  Biso   1.000  H
  H2       1.0000 0.82490  0.58070  0.81930  Biso   1.000  H
  H3       1.0000 0.32490  0.91930  0.31930  Biso   1.000  H
  H4       1.0000 0.17510  0.41930  0.18070  Biso   1.000  H
  H5       1.0000 0.67910  0.07330  0.50160  Biso   1.000  H
  H6       1.0000 0.82090  0.57330  0.99840  Biso   1.000  H
  H7       1.0000 0.32090  0.92670  0.49840  Biso   1.000  H
  H8       1.0000 0.17910  0.42670  0.00160  Biso   1.000  H
  C5       1.0000 0.69610  0.19286  0.57930  Biso   1.000  C
  C6       1.0000 0.80390  0.69286  0.92070  Biso   1.000  C
  C7       1.0000 0.30390  0.80714  0.42070  Biso   1.000  C
  C8       1.0000 0.19610  0.30714  0.07930  Biso   1.000  C
  H9       1.0000 0.55380  0.20240  0.56920  Biso   1.000  H
  H10      1.0000 0.94620  0.70240  0.93080  Biso   1.000  H
  H11      1.0000 0.44620  0.79760  0.43080  Biso   1.000  H
  H12      1.0000 0.05380  0.29760  0.06920  Biso   1.000  H
  H13      1.0000 0.77960  0.22140  0.67580  Biso   1.000  H
  H14      1.0000 0.72040  0.72140  0.82420  Biso   1.000  H
  H15      1.0000 0.22040  0.77860  0.32420  Biso   1.000  H
  H16      1.0000 0.27960  0.27860  0.17580  Biso   1.000  H
  C9       1.0000 0.73680  0.22927  0.43240  Biso   1.000  C
  C10      1.0000 0.76320  0.72927  0.06760  Biso   1.000  C
  C11      1.0000 0.26320  0.77073  0.56760  Biso   1.000  C
  C12      1.0000 0.23680  0.27073  0.93240  Biso   1.000  C
  H17      1.0000 0.68680  0.28490  0.41950  Biso   1.000  H
  H18      1.0000 0.81320  0.78490  0.08050  Biso   1.000  H
  H19      1.0000 0.31320  0.71510  0.58050  Biso   1.000  H
  H20      1.0000 0.18680  0.21510  0.91950  Biso   1.000  H
  H21      1.0000 0.65730  0.19920  0.33660  Biso   1.000  H
  H22      1.0000 0.84270  0.69920  0.16340  Biso   1.000  H
  H23      1.0000 0.34270  0.80080  0.66340  Biso   1.000  H
  H24      1.0000 0.15730  0.30080  0.83660  Biso   1.000  H
  C13      1.0000 0.95880  0.23004  0.43700  Biso   1.000  C
  C14      1.0000 0.54120  0.73004  0.06300  Biso   1.000  C
  C15      1.0000 0.04120  0.76996  0.56300  Biso   1.000  C
  C16      1.0000 0.45880  0.26996  0.93700  Biso   1.000  C
  H25      1.0000 0.96790  0.26090  0.34430  Biso   1.000  H
  H26      1.0000 0.53210  0.76090  0.15570  Biso   1.000  H
  H27      1.0000 0.03210  0.73910  0.65570  Biso   1.000  H
  H28      1.0000 0.46790  0.23910  0.84430  Biso   1.000  H
  H29      1.0000 0.03950  0.25840  0.53460  Biso   1.000  H
  H30      1.0000 0.46050  0.75840  0.96540  Biso   1.000  H
  H31      1.0000 0.96050  0.74160  0.46540  Biso   1.000  H
  H32      1.0000 0.53950  0.24160  0.03460  Biso   1.000  H
  C17      1.0000 0.05310  0.14715  0.43460  Biso   1.000  C
  C18      1.0000 0.44690  0.64715  0.06540  Biso   1.000  C
  C19      1.0000 0.94690  0.85285  0.56540  Biso   1.000  C
  C20      1.0000 0.55310  0.35285  0.93460  Biso   1.000  C
  H33      1.0000 0.96100  0.11450  0.34880  Biso   1.000  H
  H34      1.0000 0.53900  0.61450  0.15120  Biso   1.000  H
  H35      1.0000 0.03900  0.88550  0.65120  Biso   1.000  H
  H36      1.0000 0.46100  0.38550  0.84880  Biso   1.000  H
  H37      1.0000 0.18050  0.15340  0.41090  Biso   1.000  H
  H38      1.0000 0.31950  0.65340  0.08910  Biso   1.000  H
  H39      1.0000 0.81950  0.84660  0.58910  Biso   1.000  H
  H40      1.0000 0.68050  0.34660  0.91090  Biso   1.000  H
  C21      1.0000 0.96170  0.08343  0.66670  Biso   1.000  C
  C22      1.0000 0.53830  0.58343  0.83330  Biso   1.000  C
  C23      1.0000 0.03830  0.91657  0.33330  Biso   1.000  C
  C24      1.0000 0.46170  0.41657  0.16670  Biso   1.000  C
  N1       1.0000 0.06700  0.04761  0.80630  Biso   1.000  N
  N2       1.0000 0.43300  0.54761  0.69370  Biso   1.000  N
  N3       1.0000 0.93300  0.95239  0.19370  Biso   1.000  N
  N4       1.0000 0.56700  0.45239  0.30630  Biso   1.000  N
  N5       1.0000 0.26600  0.04763  0.80880  Biso   1.000  N
  N6       1.0000 0.23400  0.54763  0.69120  Biso   1.000  N
  N7       1.0000 0.73400  0.95237  0.19120  Biso   1.000  N
  N8       1.0000 0.76600  0.45237  0.30880  Biso   1.000  N
  N9       1.0000 0.28470  0.08226  0.68180  Biso   1.000  N
  N10      1.0000 0.21530  0.58226  0.81820  Biso   1.000  N
  N11      1.0000 0.71530  0.91774  0.31820  Biso   1.000  N
  N12      1.0000 0.78470  0.41774  0.18180  Biso   1.000  N
  N13      1.0000 0.09380  0.10469  0.59220  Biso   1.000  N
  N14      1.0000 0.40620  0.60469  0.90780  Biso   1.000  N
  N15      1.0000 0.90620  0.89531  0.40780  Biso   1.000  N
  N16      1.0000 0.59380  0.39531  0.09220  Biso   1.000  N
  Cl1      1.0000 0.37780  0.07096  0.17296  Biso   1.000  Cl
  Cl2      1.0000 0.12220  0.57096  0.32704  Biso   1.000  Cl
  Cl3      1.0000 0.62220  0.92904  0.82704  Biso   1.000  Cl
  Cl4      1.0000 0.87780  0.42904  0.67296  Biso   1.000  Cl
  Cl5      1.0000 0.81739  0.11304  0.01499  Biso   1.000  Cl
  Cl6      1.0000 0.68261  0.61304  0.48501  Biso   1.000  Cl
  Cl7      1.0000 0.18261  0.88696  0.98501  Biso   1.000  Cl
  Cl8      1.0000 0.31739  0.38696  0.51499  Biso   1.000  Cl
