data_image0
_cell_length_a       15.981
_cell_length_b       7.6739
_cell_length_c       18.172
_cell_angle_alpha    90
_cell_angle_beta     98.917
_cell_angle_gamma    90

_symmetry_space_group_name_H-M    "P 1"
_symmetry_int_tables_number       1

loop_
  _symmetry_equiv_pos_as_xyz
  'x, y, z'

loop_
  _atom_site_label
  _atom_site_occupancy
  _atom_site_fract_x
  _atom_site_fract_y
  _atom_site_fract_z
  _atom_site_thermal_displace_type
  _atom_site_B_iso_or_equiv
  _atom_site_type_symbol
  Cu1      1.0000 0.34127  0.32629  0.32395  Biso   1.000  Cu
  Cu2      1.0000 0.65873  0.82629  0.17605  Biso   1.000  Cu
  Cu3      1.0000 0.65873  0.67371  0.67605  Biso   1.000  Cu
  Cu4      1.0000 0.34127  0.17371  0.82395  Biso   1.000  Cu
  C1       1.0000 0.20990  0.14270  0.24860  Biso   1.000  C
  C2       1.0000 0.79010  0.64270  0.25140  Biso   1.000  C
  C3       1.0000 0.79010  0.85730  0.75140  Biso   1.000  C
  C4       1.0000 0.20990  0.35730  0.74860  Biso   1.000  C
  C5       1.0000 0.11740  0.10970  0.21970  Biso   1.000  C
  C6       1.0000 0.88260  0.60970  0.28030  Biso   1.000  C
  C7       1.0000 0.88260  0.89030  0.78030  Biso   1.000  C
  C8       1.0000 0.11740  0.39030  0.71970  Biso   1.000  C
  C9       1.0000 0.06200  0.11260  0.27120  Biso   1.000  C
  C10      1.0000 0.93800  0.61260  0.22880  Biso   1.000  C
  C11      1.0000 0.93800  0.88740  0.72880  Biso   1.000  C
  C12      1.0000 0.06200  0.38740  0.77120  Biso   1.000  C
  H1       1.0000 0.08260  0.13530  0.32100  Biso   1.000  H
  H2       1.0000 0.91740  0.63530  0.17900  Biso   1.000  H
  H3       1.0000 0.91740  0.86470  0.67900  Biso   1.000  H
  H4       1.0000 0.08260  0.36470  0.82100  Biso   1.000  H
  C13      1.0000 0.97630  0.08200  0.24940  Biso   1.000  C
  C14      1.0000 0.02370  0.58200  0.25060  Biso   1.000  C
  C15      1.0000 0.02370  0.91800  0.75060  Biso   1.000  C
  C16      1.0000 0.97630  0.41800  0.74940  Biso   1.000  C
  H5       1.0000 0.93980  0.08240  0.28450  Biso   1.000  H
  H6       1.0000 0.06020  0.58240  0.21550  Biso   1.000  H
  H7       1.0000 0.06020  0.91760  0.71550  Biso   1.000  H
  H8       1.0000 0.93980  0.41760  0.78450  Biso   1.000  H
  C17      1.0000 0.94570  0.05140  0.17620  Biso   1.000  C
  C18      1.0000 0.05430  0.55140  0.32380  Biso   1.000  C
  C19      1.0000 0.05430  0.94860  0.82380  Biso   1.000  C
  C20      1.0000 0.94570  0.44860  0.67620  Biso   1.000  C
  H9       1.0000 0.88820  0.03160  0.16150  Biso   1.000  H
  H10      1.0000 0.11180  0.53160  0.33850  Biso   1.000  H
  H11      1.0000 0.11180  0.96840  0.83850  Biso   1.000  H
  H12      1.0000 0.88820  0.46840  0.66150  Biso   1.000  H
  C21      1.0000 0.99940  0.04970  0.12470  Biso   1.000  C
  C22      1.0000 0.00060  0.54970  0.37530  Biso   1.000  C
  C23      1.0000 0.00060  0.95030  0.87530  Biso   1.000  C
  C24      1.0000 0.99940  0.45030  0.62470  Biso   1.000  C
  H13      1.0000 0.97790  0.02820  0.07500  Biso   1.000  H
  H14      1.0000 0.02210  0.52820  0.42500  Biso   1.000  H
  H15      1.0000 0.02210  0.97180  0.92500  Biso   1.000  H
  H16      1.0000 0.97790  0.47180  0.57500  Biso   1.000  H
  C25      1.0000 0.08560  0.07960  0.14500  Biso   1.000  C
  C26      1.0000 0.91440  0.57960  0.35500  Biso   1.000  C
  C27      1.0000 0.91440  0.92040  0.85500  Biso   1.000  C
  C28      1.0000 0.08560  0.42040  0.64500  Biso   1.000  C
  C29      1.0000 0.15110  0.28890  0.04090  Biso   1.000  C
  C30      1.0000 0.84890  0.78890  0.45910  Biso   1.000  C
  C31      1.0000 0.84890  0.71110  0.95910  Biso   1.000  C
  C32      1.0000 0.15110  0.21110  0.54090  Biso   1.000  C
  C33      1.0000 0.10450  0.41790  0.07080  Biso   1.000  C
  C34      1.0000 0.89550  0.91790  0.42920  Biso   1.000  C
  C35      1.0000 0.89550  0.58210  0.92920  Biso   1.000  C
  C36      1.0000 0.10450  0.08210  0.57080  Biso   1.000  C
  H17      1.0000 0.07290  0.38970  0.10800  Biso   1.000  H
  H18      1.0000 0.92710  0.88970  0.39200  Biso   1.000  H
  H19      1.0000 0.92710  0.61030  0.89200  Biso   1.000  H
  H20      1.0000 0.07290  0.11030  0.60800  Biso   1.000  H
  C37      1.0000 0.10520  0.58730  0.04520  Biso   1.000  C
  C38      1.0000 0.89480  0.08730  0.45480  Biso   1.000  C
  C39      1.0000 0.89480  0.41270  0.95480  Biso   1.000  C
  C40      1.0000 0.10520  0.91270  0.54520  Biso   1.000  C
  H21      1.0000 0.07320  0.67160  0.06480  Biso   1.000  H
  H22      1.0000 0.92680  0.17160  0.43520  Biso   1.000  H
  H23      1.0000 0.92680  0.32840  0.93520  Biso   1.000  H
  H24      1.0000 0.07320  0.82840  0.56480  Biso   1.000  H
  C41      1.0000 0.15250  0.63330  0.99110  Biso   1.000  C
  C42      1.0000 0.84750  0.13330  0.50890  Biso   1.000  C
  C43      1.0000 0.84750  0.36670  0.00890  Biso   1.000  C
  C44      1.0000 0.15250  0.86670  0.49110  Biso   1.000  C
  H25      1.0000 0.15350  0.74810  0.97490  Biso   1.000  H
  H26      1.0000 0.84650  0.24810  0.52510  Biso   1.000  H
  H27      1.0000 0.84650  0.25190  0.02510  Biso   1.000  H
  H28      1.0000 0.15350  0.75190  0.47490  Biso   1.000  H
  C45      1.0000 0.19830  0.50650  0.96150  Biso   1.000  C
  C46      1.0000 0.80170  0.00650  0.53850  Biso   1.000  C
  C47      1.0000 0.80170  0.49350  0.03850  Biso   1.000  C
  C48      1.0000 0.19830  0.99350  0.46150  Biso   1.000  C
  H29      1.0000 0.22990  0.53720  0.92460  Biso   1.000  H
  H30      1.0000 0.77010  0.03720  0.57540  Biso   1.000  H
  H31      1.0000 0.77010  0.46280  0.07540  Biso   1.000  H
  H32      1.0000 0.22990  0.96280  0.42460  Biso   1.000  H
  C49      1.0000 0.19880  0.33430  0.98490  Biso   1.000  C
  C50      1.0000 0.80120  0.83430  0.51510  Biso   1.000  C
  C51      1.0000 0.80120  0.66570  0.01510  Biso   1.000  C
  C52      1.0000 0.19880  0.16570  0.48490  Biso   1.000  C
  C53      1.0000 0.24720  0.20440  0.94650  Biso   1.000  C
  C54      1.0000 0.75280  0.70440  0.55350  Biso   1.000  C
  C55      1.0000 0.75280  0.79560  0.05350  Biso   1.000  C
  C56      1.0000 0.24720  0.29560  0.44650  Biso   1.000  C
  C57      1.0000 0.35720  0.37890  0.16290  Biso   1.000  C
  C58      1.0000 0.64280  0.87890  0.33710  Biso   1.000  C
  C59      1.0000 0.64280  0.62110  0.83710  Biso   1.000  C
  C60      1.0000 0.35720  0.12110  0.66290  Biso   1.000  C
  H33      1.0000 0.29850  0.37110  0.15370  Biso   1.000  H
  H34      1.0000 0.70150  0.87110  0.34630  Biso   1.000  H
  H35      1.0000 0.70150  0.62890  0.84630  Biso   1.000  H
  H36      1.0000 0.29850  0.12890  0.65370  Biso   1.000  H
  C61      1.0000 0.40000  0.40200  0.10390  Biso   1.000  C
  C62      1.0000 0.60000  0.90200  0.39610  Biso   1.000  C
  C63      1.0000 0.60000  0.59800  0.89610  Biso   1.000  C
  C64      1.0000 0.40000  0.09800  0.60390  Biso   1.000  C
  H37      1.0000 0.37080  0.40910  0.05560  Biso   1.000  H
  H38      1.0000 0.62920  0.90910  0.44440  Biso   1.000  H
  H39      1.0000 0.62920  0.59090  0.94440  Biso   1.000  H
  H40      1.0000 0.37080  0.09090  0.55560  Biso   1.000  H
  C65      1.0000 0.48660  0.41450  0.11740  Biso   1.000  C
  C66      1.0000 0.51340  0.91450  0.38260  Biso   1.000  C
  C67      1.0000 0.51340  0.58550  0.88260  Biso   1.000  C
  C68      1.0000 0.48660  0.08550  0.61740  Biso   1.000  C
  H41      1.0000 0.51700  0.42960  0.07820  Biso   1.000  H
  H42      1.0000 0.48300  0.92960  0.42180  Biso   1.000  H
  H43      1.0000 0.48300  0.57040  0.92180  Biso   1.000  H
  H44      1.0000 0.51700  0.07040  0.57820  Biso   1.000  H
  C69      1.0000 0.52830  0.40440  0.18960  Biso   1.000  C
  C70      1.0000 0.47170  0.90440  0.31040  Biso   1.000  C
  C71      1.0000 0.47170  0.59560  0.81040  Biso   1.000  C
  C72      1.0000 0.52830  0.09560  0.68960  Biso   1.000  C
  H45      1.0000 0.58690  0.41320  0.19990  Biso   1.000  H
  H46      1.0000 0.41310  0.91320  0.30010  Biso   1.000  H
  H47      1.0000 0.41310  0.58680  0.80010  Biso   1.000  H
  H48      1.0000 0.58690  0.08680  0.69990  Biso   1.000  H
  C73      1.0000 0.48130  0.38100  0.24590  Biso   1.000  C
  C74      1.0000 0.51870  0.88100  0.25410  Biso   1.000  C
  C75      1.0000 0.51870  0.61900  0.75410  Biso   1.000  C
  C76      1.0000 0.48130  0.11900  0.74590  Biso   1.000  C
  C77      1.0000 0.51890  0.36740  0.32550  Biso   1.000  C
  C78      1.0000 0.48110  0.86740  0.17450  Biso   1.000  C
  C79      1.0000 0.48110  0.63260  0.67450  Biso   1.000  C
  C80      1.0000 0.51890  0.13260  0.82550  Biso   1.000  C
  C81      1.0000 0.60450  0.38350  0.35240  Biso   1.000  C
  C82      1.0000 0.39550  0.88350  0.14760  Biso   1.000  C
  C83      1.0000 0.39550  0.61650  0.64760  Biso   1.000  C
  C84      1.0000 0.60450  0.11650  0.85240  Biso   1.000  C
  H49      1.0000 0.64290  0.40550  0.32000  Biso   1.000  H
  H50      1.0000 0.35710  0.90550  0.18000  Biso   1.000  H
  H51      1.0000 0.35710  0.59450  0.68000  Biso   1.000  H
  H52      1.0000 0.64290  0.09450  0.82000  Biso   1.000  H
  C85      1.0000 0.63180  0.36680  0.42660  Biso   1.000  C
  C86      1.0000 0.36820  0.86680  0.07340  Biso   1.000  C
  C87      1.0000 0.36820  0.63320  0.57340  Biso   1.000  C
  C88      1.0000 0.63180  0.13320  0.92660  Biso   1.000  C
  H53      1.0000 0.68910  0.37780  0.44530  Biso   1.000  H
  H54      1.0000 0.31090  0.87780  0.05470  Biso   1.000  H
  H55      1.0000 0.31090  0.62220  0.55470  Biso   1.000  H
  H56      1.0000 0.68910  0.12220  0.94530  Biso   1.000  H
  C89      1.0000 0.57540  0.33410  0.47370  Biso   1.000  C
  C90      1.0000 0.42460  0.83410  0.02630  Biso   1.000  C
  C91      1.0000 0.42460  0.66590  0.52630  Biso   1.000  C
  C92      1.0000 0.57540  0.16590  0.97370  Biso   1.000  C
  H57      1.0000 0.59330  0.32200  0.52460  Biso   1.000  H
  H58      1.0000 0.40670  0.82200  0.97540  Biso   1.000  H
  H59      1.0000 0.40670  0.67800  0.47540  Biso   1.000  H
  H60      1.0000 0.59330  0.17800  0.02460  Biso   1.000  H
  C93      1.0000 0.49140  0.31940  0.44440  Biso   1.000  C
  C94      1.0000 0.50860  0.81940  0.05560  Biso   1.000  C
  C95      1.0000 0.50860  0.68060  0.55560  Biso   1.000  C
  C96      1.0000 0.49140  0.18060  0.94440  Biso   1.000  C
  H61      1.0000 0.45260  0.29660  0.47650  Biso   1.000  H
  H62      1.0000 0.54740  0.79660  0.02350  Biso   1.000  H
  H63      1.0000 0.54740  0.70340  0.52350  Biso   1.000  H
  H64      1.0000 0.45260  0.20340  0.97650  Biso   1.000  H
  N1       1.0000 0.39620  0.36720  0.23260  Biso   1.000  N
  N2       1.0000 0.60380  0.86720  0.26740  Biso   1.000  N
  N3       1.0000 0.60380  0.63280  0.76740  Biso   1.000  N
  N4       1.0000 0.39620  0.13280  0.73260  Biso   1.000  N
  N5       1.0000 0.46290  0.33630  0.37190  Biso   1.000  N
  N6       1.0000 0.53710  0.83630  0.12810  Biso   1.000  N
  N7       1.0000 0.53710  0.66370  0.62810  Biso   1.000  N
  N8       1.0000 0.46290  0.16370  0.87190  Biso   1.000  N
  O1       1.0000 0.22820  0.29810  0.26870  Biso   1.000  O
  O2       1.0000 0.77180  0.79810  0.23130  Biso   1.000  O
  O3       1.0000 0.77180  0.70190  0.73130  Biso   1.000  O
  O4       1.0000 0.22820  0.20190  0.76870  Biso   1.000  O
  O5       1.0000 0.26060  0.02190  0.25380  Biso   1.000  O
  O6       1.0000 0.73940  0.52190  0.24620  Biso   1.000  O
  O7       1.0000 0.73940  0.97810  0.74620  Biso   1.000  O
  O8       1.0000 0.26060  0.47810  0.75380  Biso   1.000  O
  O9       1.0000 0.30580  0.26890  0.91410  Biso   1.000  O
  O10      1.0000 0.69420  0.76890  0.58590  Biso   1.000  O
  O11      1.0000 0.69420  0.73110  0.08590  Biso   1.000  O
  O12      1.0000 0.30580  0.23110  0.41410  Biso   1.000  O
  O13      1.0000 0.22930  0.04870  0.94760  Biso   1.000  O
  O14      1.0000 0.77070  0.54870  0.55240  Biso   1.000  O
  O15      1.0000 0.77070  0.95130  0.05240  Biso   1.000  O
  O16      1.0000 0.22930  0.45130  0.44760  Biso   1.000  O
  O17      1.0000 0.31590  0.61740  0.35040  Biso   1.000  O
  O18      1.0000 0.68410  0.11740  0.14960  Biso   1.000  O
  O19      1.0000 0.68410  0.38260  0.64960  Biso   1.000  O
  O20      1.0000 0.31590  0.88260  0.85040  Biso   1.000  O
  H65      1.0000 0.28280  0.62260  0.38070  Biso   1.000  H
  H66      1.0000 0.71720  0.12260  0.11930  Biso   1.000  H
  H67      1.0000 0.71720  0.37740  0.61930  Biso   1.000  H
  H68      1.0000 0.28280  0.87740  0.88070  Biso   1.000  H
  H69      1.0000 0.28570  0.66170  0.31470  Biso   1.000  H
  H70      1.0000 0.71430  0.16170  0.18530  Biso   1.000  H
  H71      1.0000 0.71430  0.33830  0.68530  Biso   1.000  H
  H72      1.0000 0.28570  0.83830  0.81470  Biso   1.000  H
  S1       1.0000 0.15212  0.07007  0.07487  Biso   1.000  S
  S2       1.0000 0.84788  0.57007  0.42513  Biso   1.000  S
  S3       1.0000 0.84788  0.92993  0.92513  Biso   1.000  S
  S4       1.0000 0.15212  0.42993  0.57487  Biso   1.000  S
  O21      1.0000 0.23060  0.70730  0.21540  Biso   1.000  O
  O22      1.0000 0.76940  0.20730  0.28460  Biso   1.000  O
  O23      1.0000 0.76940  0.29270  0.78460  Biso   1.000  O
  O24      1.0000 0.23060  0.79270  0.71540  Biso   1.000  O
  H73      1.0000 0.20770  0.60210  0.21050  Biso   1.000  H
  H74      1.0000 0.79230  0.10210  0.28950  Biso   1.000  H
  H75      1.0000 0.79230  0.39790  0.78950  Biso   1.000  H
  H76      1.0000 0.20770  0.89790  0.71050  Biso   1.000  H
  H77      1.0000 0.23230  0.82600  0.21780  Biso   1.000  H
  H78      1.0000 0.76770  0.32600  0.28220  Biso   1.000  H
  H79      1.0000 0.76770  0.17400  0.78220  Biso   1.000  H
  H80      1.0000 0.23230  0.67400  0.71780  Biso   1.000  H
