data_image0
_cell_length_a       31.688
_cell_length_b       13.773
_cell_length_c       9.719
_cell_angle_alpha    90
_cell_angle_beta     96.09
_cell_angle_gamma    90

_symmetry_space_group_name_H-M    "P 1"
_symmetry_int_tables_number       1

loop_
  _symmetry_equiv_pos_as_xyz
  'x, y, z'

loop_
  _atom_site_label
  _atom_site_occupancy
  _atom_site_fract_x
  _atom_site_fract_y
  _atom_site_fract_z
  _atom_site_thermal_displace_type
  _atom_site_B_iso_or_equiv
  _atom_site_type_symbol
  Cu1      1.0000 0.00000  0.50000  0.50000  Biso   1.000  Cu
  Cu2      1.0000 0.00000  0.50000  0.00000  Biso   1.000  Cu
  Cu3      1.0000 0.50000  0.00000  0.50000  Biso   1.000  Cu
  Cu4      1.0000 0.50000  0.00000  0.00000  Biso   1.000  Cu
  O1       1.0000 0.00833  0.36410  0.52250  Biso   1.000  O
  O2       1.0000 0.99167  0.36410  0.97750  Biso   1.000  O
  O3       1.0000 0.50833  0.86410  0.52250  Biso   1.000  O
  O4       1.0000 0.49167  0.86410  0.97750  Biso   1.000  O
  O5       1.0000 0.99167  0.63590  0.47750  Biso   1.000  O
  O6       1.0000 0.00833  0.63590  0.02250  Biso   1.000  O
  O7       1.0000 0.49167  0.13590  0.47750  Biso   1.000  O
  O8       1.0000 0.50833  0.13590  0.02250  Biso   1.000  O
  O9       1.0000 0.04628  0.52730  0.63330  Biso   1.000  O
  O10      1.0000 0.95372  0.52730  0.86670  Biso   1.000  O
  O11      1.0000 0.54628  0.02730  0.63330  Biso   1.000  O
  O12      1.0000 0.45372  0.02730  0.86670  Biso   1.000  O
  O13      1.0000 0.95372  0.47270  0.36670  Biso   1.000  O
  O14      1.0000 0.04628  0.47270  0.13330  Biso   1.000  O
  O15      1.0000 0.45372  0.97270  0.36670  Biso   1.000  O
  O16      1.0000 0.54628  0.97270  0.13330  Biso   1.000  O
  C1       1.0000 0.10470  0.51760  0.79760  Biso   1.000  C
  C2       1.0000 0.89530  0.51760  0.70240  Biso   1.000  C
  C3       1.0000 0.60470  0.01760  0.79760  Biso   1.000  C
  C4       1.0000 0.39530  0.01760  0.70240  Biso   1.000  C
  C5       1.0000 0.89530  0.48240  0.20240  Biso   1.000  C
  C6       1.0000 0.10470  0.48240  0.29760  Biso   1.000  C
  C7       1.0000 0.39530  0.98240  0.20240  Biso   1.000  C
  C8       1.0000 0.60470  0.98240  0.29760  Biso   1.000  C
  H1       1.0000 0.11080  0.58000  0.76030  Biso   1.000  H
  H2       1.0000 0.88920  0.58000  0.73970  Biso   1.000  H
  H3       1.0000 0.61080  0.08000  0.76030  Biso   1.000  H
  H4       1.0000 0.38920  0.08000  0.73970  Biso   1.000  H
  H5       1.0000 0.88920  0.42000  0.23970  Biso   1.000  H
  H6       1.0000 0.11080  0.42000  0.26030  Biso   1.000  H
  H7       1.0000 0.38920  0.92000  0.23970  Biso   1.000  H
  H8       1.0000 0.61080  0.92000  0.26030  Biso   1.000  H
  H9       1.0000 0.12980  0.47820  0.80430  Biso   1.000  H
  H10      1.0000 0.87020  0.47820  0.69570  Biso   1.000  H
  H11      1.0000 0.62980  0.97820  0.80430  Biso   1.000  H
  H12      1.0000 0.37020  0.97820  0.69570  Biso   1.000  H
  H13      1.0000 0.87020  0.52180  0.19570  Biso   1.000  H
  H14      1.0000 0.12980  0.52180  0.30430  Biso   1.000  H
  H15      1.0000 0.37020  0.02180  0.19570  Biso   1.000  H
  H16      1.0000 0.62980  0.02180  0.30430  Biso   1.000  H
  H17      1.0000 0.09550  0.52570  0.88780  Biso   1.000  H
  H18      1.0000 0.90450  0.52570  0.61220  Biso   1.000  H
  H19      1.0000 0.59550  0.02570  0.88780  Biso   1.000  H
  H20      1.0000 0.40450  0.02570  0.61220  Biso   1.000  H
  H21      1.0000 0.90450  0.47430  0.11220  Biso   1.000  H
  H22      1.0000 0.09550  0.47430  0.38780  Biso   1.000  H
  H23      1.0000 0.40450  0.97430  0.11220  Biso   1.000  H
  H24      1.0000 0.59550  0.97430  0.38780  Biso   1.000  H
  C9       1.0000 0.07060  0.46950  0.70510  Biso   1.000  C
  C10      1.0000 0.92940  0.46950  0.79490  Biso   1.000  C
  C11      1.0000 0.57060  0.96950  0.70510  Biso   1.000  C
  C12      1.0000 0.42940  0.96950  0.79490  Biso   1.000  C
  C13      1.0000 0.92940  0.53050  0.29490  Biso   1.000  C
  C14      1.0000 0.07060  0.53050  0.20510  Biso   1.000  C
  C15      1.0000 0.42940  0.03050  0.29490  Biso   1.000  C
  C16      1.0000 0.57060  0.03050  0.20510  Biso   1.000  C
  C17      1.0000 0.06638  0.36670  0.69670  Biso   1.000  C
  C18      1.0000 0.93362  0.36670  0.80330  Biso   1.000  C
  C19      1.0000 0.56638  0.86670  0.69670  Biso   1.000  C
  C20      1.0000 0.43362  0.86670  0.80330  Biso   1.000  C
  C21      1.0000 0.93362  0.63330  0.30330  Biso   1.000  C
  C22      1.0000 0.06638  0.63330  0.19670  Biso   1.000  C
  C23      1.0000 0.43362  0.13330  0.30330  Biso   1.000  C
  C24      1.0000 0.56638  0.13330  0.19670  Biso   1.000  C
  C25      1.0000 0.03610  0.32220  0.60500  Biso   1.000  C
  C26      1.0000 0.96390  0.32220  0.89500  Biso   1.000  C
  C27      1.0000 0.53610  0.82220  0.60500  Biso   1.000  C
  C28      1.0000 0.46390  0.82220  0.89500  Biso   1.000  C
  C29      1.0000 0.96390  0.67780  0.39500  Biso   1.000  C
  C30      1.0000 0.03610  0.67780  0.10500  Biso   1.000  C
  C31      1.0000 0.46390  0.17780  0.39500  Biso   1.000  C
  C32      1.0000 0.53610  0.17780  0.10500  Biso   1.000  C
  C33      1.0000 0.03310  0.21280  0.59330  Biso   1.000  C
  C34      1.0000 0.96690  0.21280  0.90670  Biso   1.000  C
  C35      1.0000 0.53310  0.71280  0.59330  Biso   1.000  C
  C36      1.0000 0.46690  0.71280  0.90670  Biso   1.000  C
  C37      1.0000 0.96690  0.78720  0.40670  Biso   1.000  C
  C38      1.0000 0.03310  0.78720  0.09330  Biso   1.000  C
  C39      1.0000 0.46690  0.28720  0.40670  Biso   1.000  C
  C40      1.0000 0.53310  0.28720  0.09330  Biso   1.000  C
  H25      1.0000 0.00580  0.19510  0.54810  Biso   1.000  H
  H26      1.0000 0.99420  0.19510  0.95190  Biso   1.000  H
  H27      1.0000 0.50580  0.69510  0.54810  Biso   1.000  H
  H28      1.0000 0.49420  0.69510  0.95190  Biso   1.000  H
  H29      1.0000 0.99420  0.80490  0.45190  Biso   1.000  H
  H30      1.0000 0.00580  0.80490  0.04810  Biso   1.000  H
  H31      1.0000 0.49420  0.30490  0.45190  Biso   1.000  H
  H32      1.0000 0.50580  0.30490  0.04810  Biso   1.000  H
  H33      1.0000 0.03680  0.18460  0.68410  Biso   1.000  H
  H34      1.0000 0.96320  0.18460  0.81590  Biso   1.000  H
  H35      1.0000 0.53680  0.68460  0.68410  Biso   1.000  H
  H36      1.0000 0.46320  0.68460  0.81590  Biso   1.000  H
  H37      1.0000 0.96320  0.81540  0.31590  Biso   1.000  H
  H38      1.0000 0.03680  0.81540  0.18410  Biso   1.000  H
  H39      1.0000 0.46320  0.31540  0.31590  Biso   1.000  H
  H40      1.0000 0.53680  0.31540  0.18410  Biso   1.000  H
  H41      1.0000 0.05490  0.18930  0.54030  Biso   1.000  H
  H42      1.0000 0.94510  0.18930  0.95970  Biso   1.000  H
  H43      1.0000 0.55490  0.68930  0.54030  Biso   1.000  H
  H44      1.0000 0.44510  0.68930  0.95970  Biso   1.000  H
  H45      1.0000 0.94510  0.81070  0.45970  Biso   1.000  H
  H46      1.0000 0.05490  0.81070  0.04030  Biso   1.000  H
  H47      1.0000 0.44510  0.31070  0.45970  Biso   1.000  H
  H48      1.0000 0.55490  0.31070  0.04030  Biso   1.000  H
  C41      1.0000 0.09765  0.30730  0.78750  Biso   1.000  C
  C42      1.0000 0.90235  0.30730  0.71250  Biso   1.000  C
  C43      1.0000 0.59765  0.80730  0.78750  Biso   1.000  C
  C44      1.0000 0.40235  0.80730  0.71250  Biso   1.000  C
  C45      1.0000 0.90235  0.69270  0.21250  Biso   1.000  C
  C46      1.0000 0.09765  0.69270  0.28750  Biso   1.000  C
  C47      1.0000 0.40235  0.19270  0.21250  Biso   1.000  C
  C48      1.0000 0.59765  0.19270  0.28750  Biso   1.000  C
  C49      1.0000 0.12922  0.25250  0.73490  Biso   1.000  C
  C50      1.0000 0.87078  0.25250  0.76510  Biso   1.000  C
  C51      1.0000 0.62922  0.75250  0.73490  Biso   1.000  C
  C52      1.0000 0.37078  0.75250  0.76510  Biso   1.000  C
  C53      1.0000 0.87078  0.74750  0.26510  Biso   1.000  C
  C54      1.0000 0.12922  0.74750  0.23490  Biso   1.000  C
  C55      1.0000 0.37078  0.24750  0.26510  Biso   1.000  C
  C56      1.0000 0.62922  0.24750  0.23490  Biso   1.000  C
  H49      1.0000 0.12950  0.24620  0.63970  Biso   1.000  H
  H50      1.0000 0.87050  0.24620  0.86030  Biso   1.000  H
  H51      1.0000 0.62950  0.74620  0.63970  Biso   1.000  H
  H52      1.0000 0.37050  0.74620  0.86030  Biso   1.000  H
  H53      1.0000 0.87050  0.75380  0.36030  Biso   1.000  H
  H54      1.0000 0.12950  0.75380  0.13970  Biso   1.000  H
  H55      1.0000 0.37050  0.25380  0.36030  Biso   1.000  H
  H56      1.0000 0.62950  0.25380  0.13970  Biso   1.000  H
  C57      1.0000 0.15991  0.20770  0.82360  Biso   1.000  C
  C58      1.0000 0.84009  0.20770  0.67640  Biso   1.000  C
  C59      1.0000 0.65991  0.70770  0.82360  Biso   1.000  C
  C60      1.0000 0.34009  0.70770  0.67640  Biso   1.000  C
  C61      1.0000 0.84009  0.79230  0.17640  Biso   1.000  C
  C62      1.0000 0.15991  0.79230  0.32360  Biso   1.000  C
  C63      1.0000 0.34009  0.29230  0.17640  Biso   1.000  C
  C64      1.0000 0.65991  0.29230  0.32360  Biso   1.000  C
  H57      1.0000 0.18070  0.17140  0.78610  Biso   1.000  H
  H58      1.0000 0.81930  0.17140  0.71390  Biso   1.000  H
  H59      1.0000 0.68070  0.67140  0.78610  Biso   1.000  H
  H60      1.0000 0.31930  0.67140  0.71390  Biso   1.000  H
  H61      1.0000 0.81930  0.82860  0.21390  Biso   1.000  H
  H62      1.0000 0.18070  0.82860  0.28610  Biso   1.000  H
  H63      1.0000 0.31930  0.32860  0.21390  Biso   1.000  H
  H64      1.0000 0.68070  0.32860  0.28610  Biso   1.000  H
  C65      1.0000 0.09719  0.30520  0.92830  Biso   1.000  C
  C66      1.0000 0.90281  0.30520  0.57170  Biso   1.000  C
  C67      1.0000 0.59719  0.80520  0.92830  Biso   1.000  C
  C68      1.0000 0.40281  0.80520  0.57170  Biso   1.000  C
  C69      1.0000 0.90281  0.69480  0.07170  Biso   1.000  C
  C70      1.0000 0.09719  0.69480  0.42830  Biso   1.000  C
  C71      1.0000 0.40281  0.19480  0.07170  Biso   1.000  C
  C72      1.0000 0.59719  0.19480  0.42830  Biso   1.000  C
  H65      1.0000 0.07500  0.33450  0.96800  Biso   1.000  H
  H66      1.0000 0.92500  0.33450  0.53200  Biso   1.000  H
  H67      1.0000 0.57500  0.83450  0.96800  Biso   1.000  H
  H68      1.0000 0.42500  0.83450  0.53200  Biso   1.000  H
  H69      1.0000 0.92500  0.66550  0.03200  Biso   1.000  H
  H70      1.0000 0.07500  0.66550  0.46800  Biso   1.000  H
  H71      1.0000 0.42500  0.16550  0.03200  Biso   1.000  H
  H72      1.0000 0.57500  0.16550  0.46800  Biso   1.000  H
  C73      1.0000 0.12939  0.25990  0.01200  Biso   1.000  C
  C74      1.0000 0.87061  0.25990  0.48800  Biso   1.000  C
  C75      1.0000 0.62939  0.75990  0.01200  Biso   1.000  C
  C76      1.0000 0.37061  0.75990  0.48800  Biso   1.000  C
  C77      1.0000 0.87061  0.74010  0.98800  Biso   1.000  C
  C78      1.0000 0.12939  0.74010  0.51200  Biso   1.000  C
  C79      1.0000 0.37061  0.24010  0.98800  Biso   1.000  C
  C80      1.0000 0.62939  0.24010  0.51200  Biso   1.000  C
  H73      1.0000 0.12890  0.26160  0.10750  Biso   1.000  H
  H74      1.0000 0.87110  0.26160  0.39250  Biso   1.000  H
  H75      1.0000 0.62890  0.76160  0.10750  Biso   1.000  H
  H76      1.0000 0.37110  0.76160  0.39250  Biso   1.000  H
  H77      1.0000 0.87110  0.73840  0.89250  Biso   1.000  H
  H78      1.0000 0.12890  0.73840  0.60750  Biso   1.000  H
  H79      1.0000 0.37110  0.23840  0.89250  Biso   1.000  H
  H80      1.0000 0.62890  0.23840  0.60750  Biso   1.000  H
  N1       1.0000 0.16122  0.21380  0.95920  Biso   1.000  N
  N2       1.0000 0.83878  0.21380  0.54080  Biso   1.000  N
  N3       1.0000 0.66122  0.71380  0.95920  Biso   1.000  N
  N4       1.0000 0.33878  0.71380  0.54080  Biso   1.000  N
  N5       1.0000 0.83878  0.78620  0.04080  Biso   1.000  N
  N6       1.0000 0.16122  0.78620  0.45920  Biso   1.000  N
  N7       1.0000 0.33878  0.28620  0.04080  Biso   1.000  N
  N8       1.0000 0.66122  0.28620  0.45920  Biso   1.000  N
  Cu5      1.0000 0.21368  0.17052  0.07626  Biso   1.000  Cu
  Cu6      1.0000 0.78632  0.17052  0.42374  Biso   1.000  Cu
  Cu7      1.0000 0.71368  0.67052  0.07626  Biso   1.000  Cu
  Cu8      1.0000 0.28632  0.67052  0.42374  Biso   1.000  Cu
  Cu9      1.0000 0.78632  0.82948  0.92374  Biso   1.000  Cu
  Cu10     1.0000 0.21368  0.82948  0.57626  Biso   1.000  Cu
  Cu11     1.0000 0.28632  0.32948  0.92374  Biso   1.000  Cu
  Cu12     1.0000 0.71368  0.32948  0.57626  Biso   1.000  Cu
  N9       1.0000 0.25052  0.11300  0.23560  Biso   1.000  N
  N10      1.0000 0.74948  0.11300  0.26440  Biso   1.000  N
  N11      1.0000 0.75052  0.61300  0.23560  Biso   1.000  N
  N12      1.0000 0.24948  0.61300  0.26440  Biso   1.000  N
  N13      1.0000 0.74948  0.88700  0.76440  Biso   1.000  N
  N14      1.0000 0.25052  0.88700  0.73560  Biso   1.000  N
  N15      1.0000 0.24948  0.38700  0.76440  Biso   1.000  N
  N16      1.0000 0.75052  0.38700  0.73560  Biso   1.000  N
  N17      1.0000 0.30240  0.00560  0.42480  Biso   1.000  N
  N18      1.0000 0.69760  0.00560  0.07520  Biso   1.000  N
  N19      1.0000 0.80240  0.50560  0.42480  Biso   1.000  N
  N20      1.0000 0.19760  0.50560  0.07520  Biso   1.000  N
  N21      1.0000 0.69760  0.99440  0.57520  Biso   1.000  N
  N22      1.0000 0.30240  0.99440  0.92480  Biso   1.000  N
  N23      1.0000 0.19760  0.49440  0.57520  Biso   1.000  N
  N24      1.0000 0.80240  0.49440  0.92480  Biso   1.000  N
  C81      1.0000 0.27327  0.15680  0.34050  Biso   1.000  C
  C82      1.0000 0.72673  0.15680  0.15950  Biso   1.000  C
  C83      1.0000 0.77327  0.65680  0.34050  Biso   1.000  C
  C84      1.0000 0.22673  0.65680  0.15950  Biso   1.000  C
  C85      1.0000 0.72673  0.84320  0.65950  Biso   1.000  C
  C86      1.0000 0.27327  0.84320  0.84050  Biso   1.000  C
  C87      1.0000 0.22673  0.34320  0.65950  Biso   1.000  C
  C88      1.0000 0.77327  0.34320  0.84050  Biso   1.000  C
  H81      1.0000 0.27190  0.22380  0.35070  Biso   1.000  H
  H82      1.0000 0.72810  0.22380  0.14930  Biso   1.000  H
  H83      1.0000 0.77190  0.72380  0.35070  Biso   1.000  H
  H84      1.0000 0.22810  0.72380  0.14930  Biso   1.000  H
  H85      1.0000 0.72810  0.77620  0.64930  Biso   1.000  H
  H86      1.0000 0.27190  0.77620  0.85070  Biso   1.000  H
  H87      1.0000 0.22810  0.27620  0.64930  Biso   1.000  H
  H88      1.0000 0.77190  0.27620  0.85070  Biso   1.000  H
  C89      1.0000 0.29909  0.10170  0.43440  Biso   1.000  C
  C90      1.0000 0.70091  0.10170  0.06560  Biso   1.000  C
  C91      1.0000 0.79909  0.60170  0.43440  Biso   1.000  C
  C92      1.0000 0.20091  0.60170  0.06560  Biso   1.000  C
  C93      1.0000 0.70091  0.89830  0.56560  Biso   1.000  C
  C94      1.0000 0.29909  0.89830  0.93440  Biso   1.000  C
  C95      1.0000 0.20091  0.39830  0.56560  Biso   1.000  C
  C96      1.0000 0.79909  0.39830  0.93440  Biso   1.000  C
  H89      1.0000 0.31480  0.13320  0.50740  Biso   1.000  H
  H90      1.0000 0.68520  0.13320  0.99260  Biso   1.000  H
  H91      1.0000 0.81480  0.63320  0.50740  Biso   1.000  H
  H92      1.0000 0.18520  0.63320  0.99260  Biso   1.000  H
  H93      1.0000 0.68520  0.86680  0.49260  Biso   1.000  H
  H94      1.0000 0.31480  0.86680  0.00740  Biso   1.000  H
  H95      1.0000 0.18520  0.36680  0.49260  Biso   1.000  H
  H96      1.0000 0.81480  0.36680  0.00740  Biso   1.000  H
  C97      1.0000 0.25146  0.01550  0.22610  Biso   1.000  C
  C98      1.0000 0.74854  0.01550  0.27390  Biso   1.000  C
  C99      1.0000 0.75146  0.51550  0.22610  Biso   1.000  C
  C100     1.0000 0.24854  0.51550  0.27390  Biso   1.000  C
  C101     1.0000 0.74854  0.98450  0.77390  Biso   1.000  C
  C102     1.0000 0.25146  0.98450  0.72610  Biso   1.000  C
  C103     1.0000 0.24854  0.48450  0.77390  Biso   1.000  C
  C104     1.0000 0.75146  0.48450  0.72610  Biso   1.000  C
  C105     1.0000 0.27789  0.96290  0.31970  Biso   1.000  C
  C106     1.0000 0.72211  0.96290  0.18030  Biso   1.000  C
  C107     1.0000 0.77789  0.46290  0.31970  Biso   1.000  C
  C108     1.0000 0.22211  0.46290  0.18030  Biso   1.000  C
  C109     1.0000 0.72211  0.03710  0.68030  Biso   1.000  C
  C110     1.0000 0.27789  0.03710  0.81970  Biso   1.000  C
  C111     1.0000 0.22211  0.53710  0.68030  Biso   1.000  C
  C112     1.0000 0.77789  0.53710  0.81970  Biso   1.000  C
  O17      1.0000 0.20159  0.03624  0.03220  Biso   1.000  O
  O18      1.0000 0.79841  0.03624  0.46780  Biso   1.000  O
  O19      1.0000 0.70159  0.53624  0.03220  Biso   1.000  O
  O20      1.0000 0.29841  0.53624  0.46780  Biso   1.000  O
  O21      1.0000 0.79841  0.96376  0.96780  Biso   1.000  O
  O22      1.0000 0.20159  0.96376  0.53220  Biso   1.000  O
  O23      1.0000 0.29841  0.46376  0.96780  Biso   1.000  O
  O24      1.0000 0.70159  0.46376  0.53220  Biso   1.000  O
  C113     1.0000 0.22098  0.97340  0.11170  Biso   1.000  C
  C114     1.0000 0.77902  0.97340  0.38830  Biso   1.000  C
  C115     1.0000 0.72098  0.47340  0.11170  Biso   1.000  C
  C116     1.0000 0.27902  0.47340  0.38830  Biso   1.000  C
  C117     1.0000 0.77902  0.02660  0.88830  Biso   1.000  C
  C118     1.0000 0.22098  0.02660  0.61170  Biso   1.000  C
  C119     1.0000 0.27902  0.52660  0.88830  Biso   1.000  C
  C120     1.0000 0.72098  0.52660  0.61170  Biso   1.000  C
  O25      1.0000 0.21701  0.88527  0.10080  Biso   1.000  O
  O26      1.0000 0.78299  0.88527  0.39920  Biso   1.000  O
  O27      1.0000 0.71701  0.38527  0.10080  Biso   1.000  O
  O28      1.0000 0.28299  0.38527  0.39920  Biso   1.000  O
  O29      1.0000 0.78299  0.11473  0.89920  Biso   1.000  O
  O30      1.0000 0.21701  0.11473  0.60080  Biso   1.000  O
  O31      1.0000 0.28299  0.61473  0.89920  Biso   1.000  O
  O32      1.0000 0.71701  0.61473  0.60080  Biso   1.000  O
  O33      1.0000 0.30892  0.81970  0.24130  Biso   1.000  O
  O34      1.0000 0.69108  0.81970  0.25870  Biso   1.000  O
  O35      1.0000 0.80892  0.31970  0.24130  Biso   1.000  O
  O36      1.0000 0.19108  0.31970  0.25870  Biso   1.000  O
  O37      1.0000 0.69108  0.18030  0.75870  Biso   1.000  O
  O38      1.0000 0.30892  0.18030  0.74130  Biso   1.000  O
  O39      1.0000 0.19108  0.68030  0.75870  Biso   1.000  O
  O40      1.0000 0.80892  0.68030  0.74130  Biso   1.000  O
  C121     1.0000 0.28403  0.85350  0.31520  Biso   1.000  C
  C122     1.0000 0.71597  0.85350  0.18480  Biso   1.000  C
  C123     1.0000 0.78403  0.35350  0.31520  Biso   1.000  C
  C124     1.0000 0.21597  0.35350  0.18480  Biso   1.000  C
  C125     1.0000 0.71597  0.14650  0.68480  Biso   1.000  C
  C126     1.0000 0.28403  0.14650  0.81520  Biso   1.000  C
  C127     1.0000 0.21597  0.64650  0.68480  Biso   1.000  C
  C128     1.0000 0.78403  0.64650  0.81520  Biso   1.000  C
  O41      1.0000 0.26428  0.80426  0.40070  Biso   1.000  O
  O42      1.0000 0.73572  0.80426  0.09930  Biso   1.000  O
  O43      1.0000 0.76428  0.30426  0.40070  Biso   1.000  O
  O44      1.0000 0.23572  0.30426  0.09930  Biso   1.000  O
  O45      1.0000 0.73572  0.19574  0.59930  Biso   1.000  O
  O46      1.0000 0.26428  0.19574  0.90070  Biso   1.000  O
  O47      1.0000 0.23572  0.69574  0.59930  Biso   1.000  O
  O48      1.0000 0.76428  0.69574  0.90070  Biso   1.000  O
