data_image0
_cell_length_a       14.7685
_cell_length_b       10.8176
_cell_length_c       9.0272
_cell_angle_alpha    90
_cell_angle_beta     90
_cell_angle_gamma    90

_symmetry_space_group_name_H-M    "P 1"
_symmetry_int_tables_number       1

loop_
  _symmetry_equiv_pos_as_xyz
  'x, y, z'

loop_
  _atom_site_label
  _atom_site_occupancy
  _atom_site_fract_x
  _atom_site_fract_y
  _atom_site_fract_z
  _atom_site_thermal_displace_type
  _atom_site_B_iso_or_equiv
  _atom_site_type_symbol
  Cu1      1.0000 0.33224  0.25000  0.75000  Biso   1.000  Cu
  Cu2      1.0000 0.83224  0.25000  0.25000  Biso   1.000  Cu
  Cu3      1.0000 0.66776  0.75000  0.25000  Biso   1.000  Cu
  Cu4      1.0000 0.16776  0.75000  0.75000  Biso   1.000  Cu
  N1       1.0000 0.22900  0.19870  0.62000  Biso   1.000  N
  N2       1.0000 0.72900  0.19870  0.38000  Biso   1.000  N
  N3       1.0000 0.72900  0.30130  0.12000  Biso   1.000  N
  N4       1.0000 0.77100  0.69870  0.12000  Biso   1.000  N
  N5       1.0000 0.77100  0.80130  0.38000  Biso   1.000  N
  N6       1.0000 0.27100  0.80130  0.62000  Biso   1.000  N
  N7       1.0000 0.27100  0.69870  0.88000  Biso   1.000  N
  N8       1.0000 0.22900  0.30130  0.88000  Biso   1.000  N
  C1       1.0000 0.14570  0.22430  0.67300  Biso   1.000  C
  C2       1.0000 0.64570  0.22430  0.32700  Biso   1.000  C
  C3       1.0000 0.64570  0.27570  0.17300  Biso   1.000  C
  C4       1.0000 0.85430  0.72430  0.17300  Biso   1.000  C
  C5       1.0000 0.85430  0.77570  0.32700  Biso   1.000  C
  C6       1.0000 0.35430  0.77570  0.67300  Biso   1.000  C
  C7       1.0000 0.35430  0.72430  0.82700  Biso   1.000  C
  C8       1.0000 0.14570  0.27570  0.82700  Biso   1.000  C
  C9       1.0000 0.06870  0.20480  0.59080  Biso   1.000  C
  C10      1.0000 0.56870  0.20480  0.40920  Biso   1.000  C
  C11      1.0000 0.56870  0.29520  0.09080  Biso   1.000  C
  C12      1.0000 0.93130  0.70480  0.09080  Biso   1.000  C
  C13      1.0000 0.93130  0.79520  0.40920  Biso   1.000  C
  C14      1.0000 0.43130  0.79520  0.59080  Biso   1.000  C
  C15      1.0000 0.43130  0.70480  0.90920  Biso   1.000  C
  C16      1.0000 0.06870  0.29520  0.90920  Biso   1.000  C
  H1       1.0000 0.01070  0.22490  0.62940  Biso   1.000  H
  H2       1.0000 0.51070  0.22490  0.37060  Biso   1.000  H
  H3       1.0000 0.51070  0.27510  0.12940  Biso   1.000  H
  H4       1.0000 0.98930  0.72490  0.12940  Biso   1.000  H
  H5       1.0000 0.98930  0.77510  0.37060  Biso   1.000  H
  H6       1.0000 0.48930  0.77510  0.62940  Biso   1.000  H
  H7       1.0000 0.48930  0.72490  0.87060  Biso   1.000  H
  H8       1.0000 0.01070  0.27510  0.87060  Biso   1.000  H
  C17      1.0000 0.07800  0.15440  0.44850  Biso   1.000  C
  C18      1.0000 0.57800  0.15440  0.55150  Biso   1.000  C
  C19      1.0000 0.57800  0.34560  0.94850  Biso   1.000  C
  C20      1.0000 0.92200  0.65440  0.94850  Biso   1.000  C
  C21      1.0000 0.92200  0.84560  0.55150  Biso   1.000  C
  C22      1.0000 0.42200  0.84560  0.44850  Biso   1.000  C
  C23      1.0000 0.42200  0.65440  0.05150  Biso   1.000  C
  C24      1.0000 0.07800  0.34560  0.05150  Biso   1.000  C
  C25      1.0000 0.16320  0.12910  0.39460  Biso   1.000  C
  C26      1.0000 0.66320  0.12910  0.60540  Biso   1.000  C
  C27      1.0000 0.66320  0.37090  0.89460  Biso   1.000  C
  C28      1.0000 0.83680  0.62910  0.89460  Biso   1.000  C
  C29      1.0000 0.83680  0.87090  0.60540  Biso   1.000  C
  C30      1.0000 0.33680  0.87090  0.39460  Biso   1.000  C
  C31      1.0000 0.33680  0.62910  0.10540  Biso   1.000  C
  C32      1.0000 0.16320  0.37090  0.10540  Biso   1.000  C
  H9       1.0000 0.17100  0.09550  0.29820  Biso   1.000  H
  H10      1.0000 0.67100  0.09550  0.70180  Biso   1.000  H
  H11      1.0000 0.67100  0.40450  0.79820  Biso   1.000  H
  H12      1.0000 0.82900  0.59550  0.79820  Biso   1.000  H
  H13      1.0000 0.82900  0.90450  0.70180  Biso   1.000  H
  H14      1.0000 0.32900  0.90450  0.29820  Biso   1.000  H
  H15      1.0000 0.32900  0.59550  0.20180  Biso   1.000  H
  H16      1.0000 0.17100  0.40450  0.20180  Biso   1.000  H
  C33      1.0000 0.23760  0.15390  0.48440  Biso   1.000  C
  C34      1.0000 0.73760  0.15390  0.51560  Biso   1.000  C
  C35      1.0000 0.73760  0.34610  0.98440  Biso   1.000  C
  C36      1.0000 0.76240  0.65390  0.98440  Biso   1.000  C
  C37      1.0000 0.76240  0.84610  0.51560  Biso   1.000  C
  C38      1.0000 0.26240  0.84610  0.48440  Biso   1.000  C
  C39      1.0000 0.26240  0.65390  0.01560  Biso   1.000  C
  C40      1.0000 0.23760  0.34610  0.01560  Biso   1.000  C
  H17      1.0000 0.29660  0.13810  0.44700  Biso   1.000  H
  H18      1.0000 0.79660  0.13810  0.55300  Biso   1.000  H
  H19      1.0000 0.79660  0.36190  0.94700  Biso   1.000  H
  H20      1.0000 0.70340  0.63810  0.94700  Biso   1.000  H
  H21      1.0000 0.70340  0.86190  0.55300  Biso   1.000  H
  H22      1.0000 0.20340  0.86190  0.44700  Biso   1.000  H
  H23      1.0000 0.20340  0.63810  0.05300  Biso   1.000  H
  H24      1.0000 0.29660  0.36190  0.05300  Biso   1.000  H
  C41      1.0000 0.99370  0.12810  0.35510  Biso   1.000  C
  C42      1.0000 0.49370  0.12810  0.64490  Biso   1.000  C
  C43      1.0000 0.49370  0.37190  0.85510  Biso   1.000  C
  C44      1.0000 0.00630  0.62810  0.85510  Biso   1.000  C
  C45      1.0000 0.00630  0.87190  0.64490  Biso   1.000  C
  C46      1.0000 0.50630  0.87190  0.35510  Biso   1.000  C
  C47      1.0000 0.50630  0.62810  0.14490  Biso   1.000  C
  C48      1.0000 0.99370  0.37190  0.14490  Biso   1.000  C
  O1       1.0000 0.33410  0.05910  0.89460  Biso   1.000  O
  O2       1.0000 0.83410  0.05910  0.10540  Biso   1.000  O
  O3       1.0000 0.83410  0.44090  0.39460  Biso   1.000  O
  O4       1.0000 0.66590  0.55910  0.39460  Biso   1.000  O
  O5       1.0000 0.66590  0.94090  0.10540  Biso   1.000  O
  O6       1.0000 0.16590  0.94090  0.89460  Biso   1.000  O
  O7       1.0000 0.16590  0.55910  0.60540  Biso   1.000  O
  O8       1.0000 0.33410  0.44090  0.60540  Biso   1.000  O
  H25      1.0000 0.38300  0.03800  0.85600  Biso   1.000  H
  H26      1.0000 0.88300  0.03800  0.14400  Biso   1.000  H
  H27      1.0000 0.88300  0.46200  0.35600  Biso   1.000  H
  H28      1.0000 0.61700  0.53800  0.35600  Biso   1.000  H
  H29      1.0000 0.61700  0.96200  0.14400  Biso   1.000  H
  H30      1.0000 0.11700  0.96200  0.85600  Biso   1.000  H
  H31      1.0000 0.11700  0.53800  0.64400  Biso   1.000  H
  H32      1.0000 0.38300  0.46200  0.64400  Biso   1.000  H
  H33      1.0000 0.28300  0.02800  0.87600  Biso   1.000  H
  H34      1.0000 0.78300  0.02800  0.12400  Biso   1.000  H
  H35      1.0000 0.78300  0.47200  0.37600  Biso   1.000  H
  H36      1.0000 0.71700  0.52800  0.37600  Biso   1.000  H
  H37      1.0000 0.71700  0.97200  0.12400  Biso   1.000  H
  H38      1.0000 0.21700  0.97200  0.87600  Biso   1.000  H
  H39      1.0000 0.21700  0.52800  0.62400  Biso   1.000  H
  H40      1.0000 0.28300  0.47200  0.62400  Biso   1.000  H
  H41      1.0000 0.34300  0.06500  0.98600  Biso   1.000  H
  H42      1.0000 0.84300  0.06500  0.01400  Biso   1.000  H
  H43      1.0000 0.84300  0.43500  0.48600  Biso   1.000  H
  H44      1.0000 0.65700  0.56500  0.48600  Biso   1.000  H
  H45      1.0000 0.65700  0.93500  0.01400  Biso   1.000  H
  H46      1.0000 0.15700  0.93500  0.98600  Biso   1.000  H
  H47      1.0000 0.15700  0.56500  0.51400  Biso   1.000  H
  H48      1.0000 0.34300  0.43500  0.51400  Biso   1.000  H
  O9       1.0000 0.92480  0.19240  0.38950  Biso   1.000  O
  O10      1.0000 0.42480  0.19240  0.61050  Biso   1.000  O
  O11      1.0000 0.42480  0.30760  0.88950  Biso   1.000  O
  O12      1.0000 0.07520  0.69240  0.88950  Biso   1.000  O
  O13      1.0000 0.07520  0.80760  0.61050  Biso   1.000  O
  O14      1.0000 0.57520  0.80760  0.38950  Biso   1.000  O
  O15      1.0000 0.57520  0.69240  0.11050  Biso   1.000  O
  O16      1.0000 0.92480  0.30760  0.11050  Biso   1.000  O
  O17      1.0000 0.99910  0.04930  0.25560  Biso   1.000  O
  O18      1.0000 0.49910  0.04930  0.74440  Biso   1.000  O
  O19      1.0000 0.49910  0.45070  0.75560  Biso   1.000  O
  O20      1.0000 0.00090  0.54930  0.75560  Biso   1.000  O
  O21      1.0000 0.00090  0.95070  0.74440  Biso   1.000  O
  O22      1.0000 0.50090  0.95070  0.25560  Biso   1.000  O
  O23      1.0000 0.50090  0.54930  0.24440  Biso   1.000  O
  O24      1.0000 0.99910  0.45070  0.24440  Biso   1.000  O
  O25      1.0000 0.13060  0.87070  0.18830  Biso   1.000  O
  O26      1.0000 0.63060  0.87070  0.81170  Biso   1.000  O
  O27      1.0000 0.63060  0.62930  0.68830  Biso   1.000  O
  O28      1.0000 0.86940  0.37070  0.68830  Biso   1.000  O
  O29      1.0000 0.86940  0.12930  0.81170  Biso   1.000  O
  O30      1.0000 0.36940  0.12930  0.18830  Biso   1.000  O
  O31      1.0000 0.36940  0.37070  0.31170  Biso   1.000  O
  O32      1.0000 0.13060  0.62930  0.31170  Biso   1.000  O
  H49      1.0000 0.09200  0.92400  0.21000  Biso   1.000  H
  H50      1.0000 0.59200  0.92400  0.79000  Biso   1.000  H
  H51      1.0000 0.59200  0.57600  0.71000  Biso   1.000  H
  H52      1.0000 0.90800  0.42400  0.71000  Biso   1.000  H
  H53      1.0000 0.90800  0.07600  0.79000  Biso   1.000  H
  H54      1.0000 0.40800  0.07600  0.21000  Biso   1.000  H
  H55      1.0000 0.40800  0.42400  0.29000  Biso   1.000  H
  H56      1.0000 0.09200  0.57600  0.29000  Biso   1.000  H
  H57      1.0000 0.13100  0.80400  0.23400  Biso   1.000  H
  H58      1.0000 0.63100  0.80400  0.76600  Biso   1.000  H
  H59      1.0000 0.63100  0.69600  0.73400  Biso   1.000  H
  H60      1.0000 0.86900  0.30400  0.73400  Biso   1.000  H
  H61      1.0000 0.86900  0.19600  0.76600  Biso   1.000  H
  H62      1.0000 0.36900  0.19600  0.23400  Biso   1.000  H
  H63      1.0000 0.36900  0.30400  0.26600  Biso   1.000  H
  H64      1.0000 0.13100  0.69600  0.26600  Biso   1.000  H
  H65      1.0000 0.13400  0.88000  0.09700  Biso   1.000  H
  H66      1.0000 0.63400  0.88000  0.90300  Biso   1.000  H
  H67      1.0000 0.63400  0.62000  0.59700  Biso   1.000  H
  H68      1.0000 0.86600  0.38000  0.59700  Biso   1.000  H
  H69      1.0000 0.86600  0.12000  0.90300  Biso   1.000  H
  H70      1.0000 0.36600  0.12000  0.09700  Biso   1.000  H
  H71      1.0000 0.36600  0.38000  0.40300  Biso   1.000  H
  H72      1.0000 0.13400  0.62000  0.40300  Biso   1.000  H
