data_image0
_cell_length_a       8.9821
_cell_length_b       9.748
_cell_length_c       12.446
_cell_angle_alpha    106.254
_cell_angle_beta     95.127
_cell_angle_gamma    109.531

_symmetry_space_group_name_H-M    "P 1"
_symmetry_int_tables_number       1

loop_
  _symmetry_equiv_pos_as_xyz
  'x, y, z'

loop_
  _atom_site_label
  _atom_site_occupancy
  _atom_site_fract_x
  _atom_site_fract_y
  _atom_site_fract_z
  _atom_site_thermal_displace_type
  _atom_site_B_iso_or_equiv
  _atom_site_type_symbol
  O1       1.0000 0.99340  0.98220  0.14320  Biso   1.000  O
  O2       1.0000 0.00660  0.01780  0.85680  Biso   1.000  O
  Cu1      1.0000 0.48870  0.13690  0.45600  Biso   1.000  Cu
  Cu2      1.0000 0.51130  0.86310  0.54400  Biso   1.000  Cu
  O3       1.0000 0.53180  0.05820  0.30490  Biso   1.000  O
  O4       1.0000 0.46820  0.94180  0.69510  Biso   1.000  O
  O5       1.0000 0.31630  0.10160  0.24760  Biso   1.000  O
  O6       1.0000 0.68370  0.89840  0.75240  Biso   1.000  O
  C1       1.0000 0.60060  0.99450  0.08770  Biso   1.000  C
  C2       1.0000 0.39940  0.00550  0.91230  Biso   1.000  C
  C3       1.0000 0.36600  0.03320  0.02120  Biso   1.000  C
  C4       1.0000 0.63400  0.96680  0.97880  Biso   1.000  C
  N1       1.0000 0.44450  0.25350  0.60270  Biso   1.000  N
  N2       1.0000 0.55550  0.74650  0.39730  Biso   1.000  N
  N3       1.0000 0.64710  0.35070  0.47900  Biso   1.000  N
  N4       1.0000 0.35290  0.64930  0.52100  Biso   1.000  N
  N5       1.0000 0.32300  0.93750  0.44850  Biso   1.000  N
  N6       1.0000 0.67700  0.06250  0.55150  Biso   1.000  N
  N7       1.0000 0.24080  0.83990  0.36260  Biso   1.000  N
  N8       1.0000 0.75920  0.16010  0.63740  Biso   1.000  N
  N9       1.0000 0.15750  0.74030  0.28310  Biso   1.000  N
  N10      1.0000 0.84250  0.25970  0.71690  Biso   1.000  N
  C5       1.0000 0.43250  0.06420  0.22850  Biso   1.000  C
  C6       1.0000 0.56750  0.93580  0.77150  Biso   1.000  C
  C7       1.0000 0.46710  0.02860  0.10960  Biso   1.000  C
  C8       1.0000 0.53290  0.97140  0.89040  Biso   1.000  C
  C9       1.0000 0.33580  0.19450  0.66080  Biso   1.000  C
  C10      1.0000 0.66420  0.80550  0.33920  Biso   1.000  C
  C11      1.0000 0.30750  0.28370  0.75780  Biso   1.000  C
  C12      1.0000 0.69250  0.71630  0.24220  Biso   1.000  C
  C13      1.0000 0.39470  0.44110  0.79970  Biso   1.000  C
  C14      1.0000 0.60530  0.55890  0.20030  Biso   1.000  C
  C15      1.0000 0.51080  0.50130  0.74100  Biso   1.000  C
  C16      1.0000 0.48920  0.49870  0.25900  Biso   1.000  C
  C17      1.0000 0.53310  0.40620  0.64360  Biso   1.000  C
  C18      1.0000 0.46690  0.59380  0.35640  Biso   1.000  C
  C19      1.0000 0.64990  0.46120  0.57340  Biso   1.000  C
  C20      1.0000 0.35010  0.53880  0.42660  Biso   1.000  C
  C21      1.0000 0.75240  0.61210  0.60050  Biso   1.000  C
  C22      1.0000 0.24760  0.38790  0.39950  Biso   1.000  C
  C23      1.0000 0.85770  0.65590  0.52990  Biso   1.000  C
  C24      1.0000 0.14230  0.34410  0.47010  Biso   1.000  C
  C25      1.0000 0.85360  0.54100  0.43320  Biso   1.000  C
  C26      1.0000 0.14640  0.45900  0.56680  Biso   1.000  C
  C27      1.0000 0.74780  0.39140  0.41030  Biso   1.000  C
  C28      1.0000 0.25220  0.60860  0.58970  Biso   1.000  C
  C29      1.0000 0.96860  0.82080  0.55890  Biso   1.000  C
  C30      1.0000 0.03140  0.17920  0.44110  Biso   1.000  C
  C31      1.0000 0.36220  0.54440  0.90290  Biso   1.000  C
  C32      1.0000 0.63780  0.45560  0.09710  Biso   1.000  C
  O7       1.0000 0.91370  0.75850  0.93560  Biso   1.000  O
  O8       1.0000 0.08630  0.24150  0.06440  Biso   1.000  O
  C33      1.0000 0.98920  0.64290  0.90100  Biso   1.000  C
  C34      1.0000 0.01080  0.35710  0.09900  Biso   1.000  C
