data_image0
_cell_length_a       6.7599
_cell_length_b       18.485
_cell_length_c       22.236
_cell_angle_alpha    90
_cell_angle_beta     90
_cell_angle_gamma    90

_symmetry_space_group_name_H-M    "P 1"
_symmetry_int_tables_number       1

loop_
  _symmetry_equiv_pos_as_xyz
  'x, y, z'

loop_
  _atom_site_label
  _atom_site_occupancy
  _atom_site_fract_x
  _atom_site_fract_y
  _atom_site_fract_z
  _atom_site_thermal_displace_type
  _atom_site_B_iso_or_equiv
  _atom_site_type_symbol
  Cu1      1.0000 0.19986  0.36376  0.54128  Biso   1.000  Cu
  Cu2      1.0000 0.30014  0.63624  0.04128  Biso   1.000  Cu
  Cu3      1.0000 0.80014  0.86376  0.95872  Biso   1.000  Cu
  Cu4      1.0000 0.69986  0.13624  0.45872  Biso   1.000  Cu
  Cu5      1.0000 0.80014  0.63624  0.45872  Biso   1.000  Cu
  Cu6      1.0000 0.69986  0.36376  0.95872  Biso   1.000  Cu
  Cu7      1.0000 0.19986  0.13624  0.04128  Biso   1.000  Cu
  Cu8      1.0000 0.30014  0.86376  0.54128  Biso   1.000  Cu
  N1       1.0000 0.23370  0.32704  0.62798  Biso   1.000  N
  N2       1.0000 0.26630  0.67296  0.12798  Biso   1.000  N
  N3       1.0000 0.76630  0.82704  0.87202  Biso   1.000  N
  N4       1.0000 0.73370  0.17296  0.37202  Biso   1.000  N
  N5       1.0000 0.76630  0.67296  0.37202  Biso   1.000  N
  N6       1.0000 0.73370  0.32704  0.87202  Biso   1.000  N
  N7       1.0000 0.23370  0.17296  0.12798  Biso   1.000  N
  N8       1.0000 0.26630  0.82704  0.62798  Biso   1.000  N
  N9       1.0000 0.27480  0.30346  0.75257  Biso   1.000  N
  N10      1.0000 0.22520  0.69654  0.25257  Biso   1.000  N
  N11      1.0000 0.72520  0.80346  0.74743  Biso   1.000  N
  N12      1.0000 0.77480  0.19654  0.24743  Biso   1.000  N
  N13      1.0000 0.72520  0.69654  0.24743  Biso   1.000  N
  N14      1.0000 0.77480  0.30346  0.74743  Biso   1.000  N
  N15      1.0000 0.27480  0.19654  0.25257  Biso   1.000  N
  N16      1.0000 0.22520  0.80346  0.75257  Biso   1.000  N
  N17      1.0000 0.29440  0.45670  0.58074  Biso   1.000  N
  N18      1.0000 0.20560  0.54330  0.08074  Biso   1.000  N
  N19      1.0000 0.70560  0.95670  0.91926  Biso   1.000  N
  N20      1.0000 0.79440  0.04330  0.41926  Biso   1.000  N
  N21      1.0000 0.70560  0.54330  0.41926  Biso   1.000  N
  N22      1.0000 0.79440  0.45670  0.91926  Biso   1.000  N
  N23      1.0000 0.29440  0.04330  0.08074  Biso   1.000  N
  N24      1.0000 0.20560  0.95670  0.58074  Biso   1.000  N
  N25      1.0000 0.38640  0.57647  0.65353  Biso   1.000  N
  N26      1.0000 0.11360  0.42353  0.15353  Biso   1.000  N
  N27      1.0000 0.61360  0.07647  0.84647  Biso   1.000  N
  N28      1.0000 0.88640  0.92353  0.34647  Biso   1.000  N
  N29      1.0000 0.61360  0.42353  0.34647  Biso   1.000  N
  N30      1.0000 0.88640  0.57647  0.84647  Biso   1.000  N
  N31      1.0000 0.38640  0.92353  0.15353  Biso   1.000  N
  N32      1.0000 0.11360  0.07647  0.65353  Biso   1.000  N
  O1       1.0000 0.05600  0.16900  0.46907  Biso   1.000  O
  O2       1.0000 0.44400  0.83100  0.96907  Biso   1.000  O
  O3       1.0000 0.94400  0.66900  0.03093  Biso   1.000  O
  O4       1.0000 0.55600  0.33100  0.53093  Biso   1.000  O
  O5       1.0000 0.94400  0.83100  0.53093  Biso   1.000  O
  O6       1.0000 0.55600  0.16900  0.03093  Biso   1.000  O
  O7       1.0000 0.05600  0.33100  0.96907  Biso   1.000  O
  O8       1.0000 0.44400  0.66900  0.46907  Biso   1.000  O
  O9       1.0000 0.10000  0.27173  0.51689  Biso   1.000  O
  O10      1.0000 0.40000  0.72827  0.01689  Biso   1.000  O
  O11      1.0000 0.90000  0.77173  0.98311  Biso   1.000  O
  O12      1.0000 0.60000  0.22827  0.48311  Biso   1.000  O
  O13      1.0000 0.90000  0.72827  0.48311  Biso   1.000  O
  O14      1.0000 0.60000  0.27173  0.98311  Biso   1.000  O
  O15      1.0000 0.10000  0.22827  0.01689  Biso   1.000  O
  O16      1.0000 0.40000  0.77173  0.51689  Biso   1.000  O
  O17      1.0000 0.16130  0.41541  0.46829  Biso   1.000  O
  O18      1.0000 0.33870  0.58459  0.96829  Biso   1.000  O
  O19      1.0000 0.83870  0.91541  0.03171  Biso   1.000  O
  O20      1.0000 0.66130  0.08459  0.53171  Biso   1.000  O
  O21      1.0000 0.83870  0.58459  0.53171  Biso   1.000  O
  O22      1.0000 0.66130  0.41541  0.03171  Biso   1.000  O
  O23      1.0000 0.16130  0.08459  0.96829  Biso   1.000  O
  O24      1.0000 0.33870  0.91541  0.46829  Biso   1.000  O
  O25      1.0000 0.10560  0.44766  0.37605  Biso   1.000  O
  O26      1.0000 0.39440  0.55234  0.87605  Biso   1.000  O
  O27      1.0000 0.89440  0.94766  0.12395  Biso   1.000  O
  O28      1.0000 0.60560  0.05234  0.62395  Biso   1.000  O
  O29      1.0000 0.89440  0.55234  0.62395  Biso   1.000  O
  O30      1.0000 0.60560  0.44766  0.12395  Biso   1.000  O
  O31      1.0000 0.10560  0.05234  0.87605  Biso   1.000  O
  O32      1.0000 0.39440  0.94766  0.37605  Biso   1.000  O
  O33      1.0000 0.88040  0.40833  0.58273  Biso   1.000  O
  O34      1.0000 0.61960  0.59167  0.08273  Biso   1.000  O
  O35      1.0000 0.11960  0.90833  0.91727  Biso   1.000  O
  O36      1.0000 0.38040  0.09167  0.41727  Biso   1.000  O
  O37      1.0000 0.11960  0.59167  0.41727  Biso   1.000  O
  O38      1.0000 0.38040  0.40833  0.91727  Biso   1.000  O
  O39      1.0000 0.88040  0.09167  0.08273  Biso   1.000  O
  O40      1.0000 0.61960  0.90833  0.58273  Biso   1.000  O
  C1       1.0000 0.20530  0.26309  0.65239  Biso   1.000  C
  C2       1.0000 0.29470  0.73691  0.15239  Biso   1.000  C
  C3       1.0000 0.79470  0.76309  0.84761  Biso   1.000  C
  C4       1.0000 0.70530  0.23691  0.34761  Biso   1.000  C
  C5       1.0000 0.79470  0.73691  0.34761  Biso   1.000  C
  C6       1.0000 0.70530  0.26309  0.84761  Biso   1.000  C
  C7       1.0000 0.20530  0.23691  0.15239  Biso   1.000  C
  C8       1.0000 0.29470  0.76309  0.65239  Biso   1.000  C
  H1       1.0000 0.16920  0.22440  0.62810  Biso   1.000  H
  H2       1.0000 0.33080  0.77560  0.12810  Biso   1.000  H
  H3       1.0000 0.83080  0.72440  0.87190  Biso   1.000  H
  H4       1.0000 0.66920  0.27560  0.37190  Biso   1.000  H
  H5       1.0000 0.83080  0.77560  0.37190  Biso   1.000  H
  H6       1.0000 0.66920  0.22440  0.87190  Biso   1.000  H
  H7       1.0000 0.16920  0.27560  0.12810  Biso   1.000  H
  H8       1.0000 0.33080  0.72440  0.62810  Biso   1.000  H
  C9       1.0000 0.22820  0.25219  0.71401  Biso   1.000  C
  C10      1.0000 0.27180  0.74781  0.21401  Biso   1.000  C
  C11      1.0000 0.77180  0.75219  0.78599  Biso   1.000  C
  C12      1.0000 0.72820  0.24781  0.28599  Biso   1.000  C
  C13      1.0000 0.77180  0.74781  0.28599  Biso   1.000  C
  C14      1.0000 0.72820  0.25219  0.78599  Biso   1.000  C
  C15      1.0000 0.22820  0.24781  0.21401  Biso   1.000  C
  C16      1.0000 0.27180  0.75219  0.71401  Biso   1.000  C
  H9       1.0000 0.20930  0.20570  0.72890  Biso   1.000  H
  H10      1.0000 0.29070  0.79430  0.22890  Biso   1.000  H
  H11      1.0000 0.79070  0.70570  0.77110  Biso   1.000  H
  H12      1.0000 0.70930  0.29430  0.27110  Biso   1.000  H
  H13      1.0000 0.79070  0.79430  0.27110  Biso   1.000  H
  H14      1.0000 0.70930  0.20570  0.77110  Biso   1.000  H
  H15      1.0000 0.20930  0.29430  0.22890  Biso   1.000  H
  H16      1.0000 0.29070  0.70570  0.72890  Biso   1.000  H
  C17      1.0000 0.30330  0.37026  0.72823  Biso   1.000  C
  C18      1.0000 0.19670  0.62974  0.22823  Biso   1.000  C
  C19      1.0000 0.69670  0.87026  0.77177  Biso   1.000  C
  C20      1.0000 0.80330  0.12974  0.27177  Biso   1.000  C
  C21      1.0000 0.69670  0.62974  0.27177  Biso   1.000  C
  C22      1.0000 0.80330  0.37026  0.77177  Biso   1.000  C
  C23      1.0000 0.30330  0.12974  0.22823  Biso   1.000  C
  C24      1.0000 0.19670  0.87026  0.72823  Biso   1.000  C
  C25      1.0000 0.28530  0.38053  0.66617  Biso   1.000  C
  C26      1.0000 0.21470  0.61947  0.16617  Biso   1.000  C
  C27      1.0000 0.71470  0.88053  0.83383  Biso   1.000  C
  C28      1.0000 0.78530  0.11947  0.33383  Biso   1.000  C
  C29      1.0000 0.71470  0.61947  0.33383  Biso   1.000  C
  C30      1.0000 0.78530  0.38053  0.83383  Biso   1.000  C
  C31      1.0000 0.28530  0.11947  0.16617  Biso   1.000  C
  C32      1.0000 0.21470  0.88053  0.66617  Biso   1.000  C
  C33      1.0000 0.31510  0.45055  0.64094  Biso   1.000  C
  C34      1.0000 0.18490  0.54945  0.14094  Biso   1.000  C
  C35      1.0000 0.68490  0.95055  0.85906  Biso   1.000  C
  C36      1.0000 0.81510  0.04945  0.35906  Biso   1.000  C
  C37      1.0000 0.68490  0.54945  0.35906  Biso   1.000  C
  C38      1.0000 0.81510  0.45055  0.85906  Biso   1.000  C
  C39      1.0000 0.31510  0.04945  0.14094  Biso   1.000  C
  C40      1.0000 0.18490  0.95055  0.64094  Biso   1.000  C
  C41      1.0000 0.35910  0.50961  0.67804  Biso   1.000  C
  C42      1.0000 0.14090  0.49039  0.17804  Biso   1.000  C
  C43      1.0000 0.64090  0.00961  0.82196  Biso   1.000  C
  C44      1.0000 0.85910  0.99039  0.32196  Biso   1.000  C
  C45      1.0000 0.64090  0.49039  0.32196  Biso   1.000  C
  C46      1.0000 0.85910  0.50961  0.82196  Biso   1.000  C
  C47      1.0000 0.35910  0.99039  0.17804  Biso   1.000  C
  C48      1.0000 0.14090  0.00961  0.67804  Biso   1.000  C
  C49      1.0000 0.37270  0.49790  0.74126  Biso   1.000  C
  C50      1.0000 0.12730  0.50210  0.24126  Biso   1.000  C
  C51      1.0000 0.62730  0.99790  0.75874  Biso   1.000  C
  C52      1.0000 0.87270  0.00210  0.25874  Biso   1.000  C
  C53      1.0000 0.62730  0.50210  0.25874  Biso   1.000  C
  C54      1.0000 0.87270  0.49790  0.75874  Biso   1.000  C
  C55      1.0000 0.37270  0.00210  0.24126  Biso   1.000  C
  C56      1.0000 0.12730  0.99790  0.74126  Biso   1.000  C
  H17      1.0000 0.40030  0.53680  0.76650  Biso   1.000  H
  H18      1.0000 0.09970  0.46320  0.26650  Biso   1.000  H
  H19      1.0000 0.59970  0.03680  0.73350  Biso   1.000  H
  H20      1.0000 0.90030  0.96320  0.23350  Biso   1.000  H
  H21      1.0000 0.59970  0.46320  0.23350  Biso   1.000  H
  H22      1.0000 0.90030  0.53680  0.73350  Biso   1.000  H
  H23      1.0000 0.40030  0.96320  0.26650  Biso   1.000  H
  H24      1.0000 0.09970  0.03680  0.76650  Biso   1.000  H
  C57      1.0000 0.34630  0.43154  0.76526  Biso   1.000  C
  C58      1.0000 0.15370  0.56846  0.26526  Biso   1.000  C
  C59      1.0000 0.65370  0.93154  0.73474  Biso   1.000  C
  C60      1.0000 0.84630  0.06846  0.23474  Biso   1.000  C
  C61      1.0000 0.65370  0.56846  0.23474  Biso   1.000  C
  C62      1.0000 0.84630  0.43154  0.73474  Biso   1.000  C
  C63      1.0000 0.34630  0.06846  0.26526  Biso   1.000  C
  C64      1.0000 0.15370  0.93154  0.76526  Biso   1.000  C
  H25      1.0000 0.35630  0.42550  0.80670  Biso   1.000  H
  H26      1.0000 0.14370  0.57450  0.30670  Biso   1.000  H
  H27      1.0000 0.64370  0.92550  0.69330  Biso   1.000  H
  H28      1.0000 0.85630  0.07450  0.19330  Biso   1.000  H
  H29      1.0000 0.64370  0.57450  0.19330  Biso   1.000  H
  H30      1.0000 0.85630  0.42550  0.69330  Biso   1.000  H
  H31      1.0000 0.35630  0.07450  0.30670  Biso   1.000  H
  H32      1.0000 0.14370  0.92550  0.80670  Biso   1.000  H
  C65      1.0000 0.36800  0.58044  0.59483  Biso   1.000  C
  C66      1.0000 0.13200  0.41956  0.09483  Biso   1.000  C
  C67      1.0000 0.63200  0.08044  0.90517  Biso   1.000  C
  C68      1.0000 0.86800  0.91956  0.40517  Biso   1.000  C
  C69      1.0000 0.63200  0.41956  0.40517  Biso   1.000  C
  C70      1.0000 0.86800  0.58044  0.90517  Biso   1.000  C
  C71      1.0000 0.36800  0.91956  0.09483  Biso   1.000  C
  C72      1.0000 0.13200  0.08044  0.59483  Biso   1.000  C
  H33      1.0000 0.38840  0.62510  0.57660  Biso   1.000  H
  H34      1.0000 0.11160  0.37490  0.07660  Biso   1.000  H
  H35      1.0000 0.61160  0.12510  0.92340  Biso   1.000  H
  H36      1.0000 0.88840  0.87490  0.42340  Biso   1.000  H
  H37      1.0000 0.61160  0.37490  0.42340  Biso   1.000  H
  H38      1.0000 0.88840  0.62510  0.92340  Biso   1.000  H
  H39      1.0000 0.38840  0.87490  0.07660  Biso   1.000  H
  H40      1.0000 0.11160  0.12510  0.57660  Biso   1.000  H
  C73      1.0000 0.31970  0.52182  0.55792  Biso   1.000  C
  C74      1.0000 0.18030  0.47818  0.05792  Biso   1.000  C
  C75      1.0000 0.68030  0.02182  0.94208  Biso   1.000  C
  C76      1.0000 0.81970  0.97818  0.44208  Biso   1.000  C
  C77      1.0000 0.68030  0.47818  0.44208  Biso   1.000  C
  C78      1.0000 0.81970  0.52182  0.94208  Biso   1.000  C
  C79      1.0000 0.31970  0.97818  0.05792  Biso   1.000  C
  C80      1.0000 0.18030  0.02182  0.55792  Biso   1.000  C
  H41      1.0000 0.30520  0.52890  0.51670  Biso   1.000  H
  H42      1.0000 0.19480  0.47110  0.01670  Biso   1.000  H
  H43      1.0000 0.69480  0.02890  0.98330  Biso   1.000  H
  H44      1.0000 0.80520  0.97110  0.48330  Biso   1.000  H
  H45      1.0000 0.69480  0.47110  0.48330  Biso   1.000  H
  H46      1.0000 0.80520  0.52890  0.98330  Biso   1.000  H
  H47      1.0000 0.30520  0.97110  0.01670  Biso   1.000  H
  H48      1.0000 0.19480  0.02890  0.51670  Biso   1.000  H
  C81      1.0000 0.14980  0.40133  0.41319  Biso   1.000  C
  C82      1.0000 0.35020  0.59867  0.91319  Biso   1.000  C
  C83      1.0000 0.85020  0.90133  0.08681  Biso   1.000  C
  C84      1.0000 0.64980  0.09867  0.58681  Biso   1.000  C
  C85      1.0000 0.85020  0.59867  0.58681  Biso   1.000  C
  C86      1.0000 0.64980  0.40133  0.08681  Biso   1.000  C
  C87      1.0000 0.14980  0.09867  0.91319  Biso   1.000  C
  C88      1.0000 0.35020  0.90133  0.41319  Biso   1.000  C
  C89      1.0000 0.20050  0.32834  0.38858  Biso   1.000  C
  C90      1.0000 0.29950  0.67166  0.88858  Biso   1.000  C
  C91      1.0000 0.79950  0.82834  0.11142  Biso   1.000  C
  C92      1.0000 0.70050  0.17166  0.61142  Biso   1.000  C
  C93      1.0000 0.79950  0.67166  0.61142  Biso   1.000  C
  C94      1.0000 0.70050  0.32834  0.11142  Biso   1.000  C
  C95      1.0000 0.20050  0.17166  0.88858  Biso   1.000  C
  C96      1.0000 0.29950  0.82834  0.38858  Biso   1.000  C
  H49      1.0000 0.25020  0.32960  0.34960  Biso   1.000  H
  H50      1.0000 0.24980  0.67040  0.84960  Biso   1.000  H
  H51      1.0000 0.74980  0.82960  0.15040  Biso   1.000  H
  H52      1.0000 0.75020  0.17040  0.65040  Biso   1.000  H
  H53      1.0000 0.74980  0.67040  0.65040  Biso   1.000  H
  H54      1.0000 0.75020  0.32960  0.15040  Biso   1.000  H
  H55      1.0000 0.25020  0.17040  0.84960  Biso   1.000  H
  H56      1.0000 0.24980  0.82960  0.34960  Biso   1.000  H
  C97      1.0000 0.18860  0.26201  0.41153  Biso   1.000  C
  C98      1.0000 0.31140  0.73799  0.91153  Biso   1.000  C
  C99      1.0000 0.81140  0.76201  0.08847  Biso   1.000  C
  C100     1.0000 0.68860  0.23799  0.58847  Biso   1.000  C
  C101     1.0000 0.81140  0.73799  0.58847  Biso   1.000  C
  C102     1.0000 0.68860  0.26201  0.08847  Biso   1.000  C
  C103     1.0000 0.18860  0.23799  0.91153  Biso   1.000  C
  C104     1.0000 0.31140  0.76201  0.41153  Biso   1.000  C
  H57      1.0000 0.23810  0.22630  0.38630  Biso   1.000  H
  H58      1.0000 0.26190  0.77370  0.88630  Biso   1.000  H
  H59      1.0000 0.76190  0.72630  0.11370  Biso   1.000  H
  H60      1.0000 0.73810  0.27370  0.61370  Biso   1.000  H
  H61      1.0000 0.76190  0.77370  0.61370  Biso   1.000  H
  H62      1.0000 0.73810  0.22630  0.11370  Biso   1.000  H
  H63      1.0000 0.23810  0.27370  0.88630  Biso   1.000  H
  H64      1.0000 0.26190  0.72630  0.38630  Biso   1.000  H
  C105     1.0000 0.11130  0.23368  0.46981  Biso   1.000  C
  C106     1.0000 0.38870  0.76632  0.96981  Biso   1.000  C
  C107     1.0000 0.88870  0.73368  0.03019  Biso   1.000  C
  C108     1.0000 0.61130  0.26632  0.53019  Biso   1.000  C
  C109     1.0000 0.88870  0.76632  0.53019  Biso   1.000  C
  C110     1.0000 0.61130  0.23368  0.03019  Biso   1.000  C
  C111     1.0000 0.11130  0.26632  0.96981  Biso   1.000  C
  C112     1.0000 0.38870  0.73368  0.46981  Biso   1.000  C
  H65      1.0000 0.86500  0.45350  0.58370  Biso   1.000  H
  H66      1.0000 0.63500  0.54650  0.08370  Biso   1.000  H
  H67      1.0000 0.13500  0.95350  0.91630  Biso   1.000  H
  H68      1.0000 0.36500  0.04650  0.41630  Biso   1.000  H
  H69      1.0000 0.13500  0.54650  0.41630  Biso   1.000  H
  H70      1.0000 0.36500  0.45350  0.91630  Biso   1.000  H
  H71      1.0000 0.86500  0.04650  0.08370  Biso   1.000  H
  H72      1.0000 0.63500  0.95350  0.58370  Biso   1.000  H
  H73      1.0000 0.77200  0.39460  0.56860  Biso   1.000  H
  H74      1.0000 0.72800  0.60540  0.06860  Biso   1.000  H
  H75      1.0000 0.22800  0.89460  0.93140  Biso   1.000  H
  H76      1.0000 0.27200  0.10540  0.43140  Biso   1.000  H
  H77      1.0000 0.22800  0.60540  0.43140  Biso   1.000  H
  H78      1.0000 0.27200  0.39460  0.93140  Biso   1.000  H
  H79      1.0000 0.77200  0.10540  0.06860  Biso   1.000  H
  H80      1.0000 0.72800  0.89460  0.56860  Biso   1.000  H
