data_image0
_cell_length_a       10.6036
_cell_length_b       11.125
_cell_length_c       19.675
_cell_angle_alpha    90
_cell_angle_beta     97.909
_cell_angle_gamma    90

_symmetry_space_group_name_H-M    "P 1"
_symmetry_int_tables_number       1

loop_
  _symmetry_equiv_pos_as_xyz
  'x, y, z'

loop_
  _atom_site_label
  _atom_site_occupancy
  _atom_site_fract_x
  _atom_site_fract_y
  _atom_site_fract_z
  _atom_site_thermal_displace_type
  _atom_site_B_iso_or_equiv
  _atom_site_type_symbol
  Cu1      1.0000 0.50000  0.85204  0.75000  Biso   1.000  Cu
  Cu2      1.0000 0.00000  0.35204  0.75000  Biso   1.000  Cu
  Cu3      1.0000 0.50000  0.14796  0.25000  Biso   1.000  Cu
  Cu4      1.0000 0.00000  0.64796  0.25000  Biso   1.000  Cu
  O1       1.0000 0.35182  0.84171  0.67770  Biso   1.000  O
  O2       1.0000 0.85182  0.34171  0.67770  Biso   1.000  O
  O3       1.0000 0.64818  0.84171  0.82230  Biso   1.000  O
  O4       1.0000 0.14818  0.34171  0.82230  Biso   1.000  O
  O5       1.0000 0.64818  0.15829  0.32230  Biso   1.000  O
  O6       1.0000 0.14818  0.65829  0.32230  Biso   1.000  O
  O7       1.0000 0.35182  0.15829  0.17770  Biso   1.000  O
  O8       1.0000 0.85182  0.65829  0.17770  Biso   1.000  O
  O9       1.0000 0.52314  0.83653  0.62652  Biso   1.000  O
  O10      1.0000 0.02314  0.33653  0.62652  Biso   1.000  O
  O11      1.0000 0.47686  0.83653  0.87348  Biso   1.000  O
  O12      1.0000 0.97686  0.33653  0.87348  Biso   1.000  O
  O13      1.0000 0.47686  0.16347  0.37348  Biso   1.000  O
  O14      1.0000 0.97686  0.66347  0.37348  Biso   1.000  O
  O15      1.0000 0.52314  0.16347  0.12652  Biso   1.000  O
  O16      1.0000 0.02314  0.66347  0.12652  Biso   1.000  O
  N1       1.0000 0.50000  0.03440  0.75000  Biso   1.000  N
  N2       1.0000 0.00000  0.53440  0.75000  Biso   1.000  N
  N3       1.0000 0.50000  0.96560  0.25000  Biso   1.000  N
  N4       1.0000 0.00000  0.46560  0.25000  Biso   1.000  N
  N5       1.0000 0.50000  0.66872  0.75000  Biso   1.000  N
  N6       1.0000 0.00000  0.16872  0.75000  Biso   1.000  N
  N7       1.0000 0.50000  0.33128  0.25000  Biso   1.000  N
  N8       1.0000 0.00000  0.83128  0.25000  Biso   1.000  N
  C1       1.0000 0.40574  0.82531  0.62403  Biso   1.000  C
  C2       1.0000 0.90574  0.32531  0.62403  Biso   1.000  C
  C3       1.0000 0.59426  0.82531  0.87597  Biso   1.000  C
  C4       1.0000 0.09426  0.32531  0.87597  Biso   1.000  C
  C5       1.0000 0.59426  0.17469  0.37597  Biso   1.000  C
  C6       1.0000 0.09426  0.67469  0.37597  Biso   1.000  C
  C7       1.0000 0.40574  0.17469  0.12403  Biso   1.000  C
  C8       1.0000 0.90574  0.67469  0.12403  Biso   1.000  C
  C9       1.0000 0.32419  0.78822  0.55962  Biso   1.000  C
  C10      1.0000 0.82419  0.28822  0.55962  Biso   1.000  C
  C11      1.0000 0.67581  0.78822  0.94038  Biso   1.000  C
  C12      1.0000 0.17581  0.28822  0.94038  Biso   1.000  C
  C13      1.0000 0.67581  0.21178  0.44038  Biso   1.000  C
  C14      1.0000 0.17581  0.71178  0.44038  Biso   1.000  C
  C15      1.0000 0.32419  0.21178  0.05962  Biso   1.000  C
  C16      1.0000 0.82419  0.71178  0.05962  Biso   1.000  C
  C17      1.0000 0.37310  0.79208  0.49740  Biso   1.000  C
  C18      1.0000 0.87310  0.29208  0.49740  Biso   1.000  C
  C19      1.0000 0.62690  0.79208  0.00260  Biso   1.000  C
  C20      1.0000 0.12690  0.29208  0.00260  Biso   1.000  C
  C21      1.0000 0.62690  0.20792  0.50260  Biso   1.000  C
  C22      1.0000 0.12690  0.70792  0.50260  Biso   1.000  C
  C23      1.0000 0.37310  0.20792  0.99740  Biso   1.000  C
  C24      1.0000 0.87310  0.70792  0.99740  Biso   1.000  C
  C25      1.0000 0.20160  0.74664  0.56183  Biso   1.000  C
  C26      1.0000 0.70160  0.24664  0.56183  Biso   1.000  C
  C27      1.0000 0.79840  0.74664  0.93817  Biso   1.000  C
  C28      1.0000 0.29840  0.24664  0.93817  Biso   1.000  C
  C29      1.0000 0.79840  0.25336  0.43817  Biso   1.000  C
  C30      1.0000 0.29840  0.75336  0.43817  Biso   1.000  C
  C31      1.0000 0.20160  0.25336  0.06183  Biso   1.000  C
  C32      1.0000 0.70160  0.75336  0.06183  Biso   1.000  C
  C33      1.0000 0.44330  0.09687  0.69629  Biso   1.000  C
  C34      1.0000 0.94330  0.59687  0.69629  Biso   1.000  C
  C35      1.0000 0.55670  0.09687  0.80371  Biso   1.000  C
  C36      1.0000 0.05670  0.59687  0.80371  Biso   1.000  C
  C37      1.0000 0.55670  0.90313  0.30371  Biso   1.000  C
  C38      1.0000 0.05670  0.40313  0.30371  Biso   1.000  C
  C39      1.0000 0.44330  0.90313  0.19629  Biso   1.000  C
  C40      1.0000 0.94330  0.40313  0.19629  Biso   1.000  C
  C41      1.0000 0.43940  0.22101  0.69484  Biso   1.000  C
  C42      1.0000 0.93940  0.72101  0.69484  Biso   1.000  C
  C43      1.0000 0.56060  0.22101  0.80516  Biso   1.000  C
  C44      1.0000 0.06060  0.72101  0.80516  Biso   1.000  C
  C45      1.0000 0.56060  0.77899  0.30516  Biso   1.000  C
  C46      1.0000 0.06060  0.27899  0.30516  Biso   1.000  C
  C47      1.0000 0.43940  0.77899  0.19484  Biso   1.000  C
  C48      1.0000 0.93940  0.27899  0.19484  Biso   1.000  C
  C49      1.0000 0.50000  0.28510  0.75000  Biso   1.000  C
  C50      1.0000 0.00000  0.78510  0.75000  Biso   1.000  C
  C51      1.0000 0.50000  0.71490  0.25000  Biso   1.000  C
  C52      1.0000 0.00000  0.21490  0.25000  Biso   1.000  C
  C53      1.0000 0.50000  0.41910  0.75000  Biso   1.000  C
  C54      1.0000 0.00000  0.91910  0.75000  Biso   1.000  C
  C55      1.0000 0.50000  0.58090  0.25000  Biso   1.000  C
  C56      1.0000 0.00000  0.08090  0.25000  Biso   1.000  C
  C57      1.0000 0.38860  0.48287  0.75016  Biso   1.000  C
  C58      1.0000 0.88860  0.98287  0.75016  Biso   1.000  C
  C59      1.0000 0.61140  0.48287  0.74984  Biso   1.000  C
  C60      1.0000 0.11140  0.98287  0.74984  Biso   1.000  C
  C61      1.0000 0.61140  0.51713  0.24984  Biso   1.000  C
  C62      1.0000 0.11140  0.01713  0.24984  Biso   1.000  C
  C63      1.0000 0.38860  0.51713  0.25016  Biso   1.000  C
  C64      1.0000 0.88860  0.01713  0.25016  Biso   1.000  C
  C65      1.0000 0.39190  0.60652  0.74982  Biso   1.000  C
  C66      1.0000 0.89190  0.10652  0.74982  Biso   1.000  C
  C67      1.0000 0.60810  0.60652  0.75018  Biso   1.000  C
  C68      1.0000 0.10810  0.10652  0.75018  Biso   1.000  C
  C69      1.0000 0.60810  0.39348  0.25018  Biso   1.000  C
  C70      1.0000 0.10810  0.89348  0.25018  Biso   1.000  C
  C71      1.0000 0.39190  0.39348  0.24982  Biso   1.000  C
  C72      1.0000 0.89190  0.89348  0.24982  Biso   1.000  C
  H1       1.0000 0.44800  0.81900  0.49610  Biso   1.000  H
  H2       1.0000 0.94800  0.31900  0.49610  Biso   1.000  H
  H3       1.0000 0.55200  0.81900  0.00390  Biso   1.000  H
  H4       1.0000 0.05200  0.31900  0.00390  Biso   1.000  H
  H5       1.0000 0.55200  0.18100  0.50390  Biso   1.000  H
  H6       1.0000 0.05200  0.68100  0.50390  Biso   1.000  H
  H7       1.0000 0.44800  0.18100  0.99610  Biso   1.000  H
  H8       1.0000 0.94800  0.68100  0.99610  Biso   1.000  H
  H9       1.0000 0.17200  0.74200  0.60340  Biso   1.000  H
  H10      1.0000 0.67200  0.24200  0.60340  Biso   1.000  H
  H11      1.0000 0.82800  0.74200  0.89660  Biso   1.000  H
  H12      1.0000 0.32800  0.24200  0.89660  Biso   1.000  H
  H13      1.0000 0.82800  0.25800  0.39660  Biso   1.000  H
  H14      1.0000 0.32800  0.75800  0.39660  Biso   1.000  H
  H15      1.0000 0.17200  0.25800  0.10340  Biso   1.000  H
  H16      1.0000 0.67200  0.75800  0.10340  Biso   1.000  H
  H17      1.0000 0.41000  0.05200  0.66060  Biso   1.000  H
  H18      1.0000 0.91000  0.55200  0.66060  Biso   1.000  H
  H19      1.0000 0.59000  0.05200  0.83940  Biso   1.000  H
  H20      1.0000 0.09000  0.55200  0.83940  Biso   1.000  H
  H21      1.0000 0.59000  0.94800  0.33940  Biso   1.000  H
  H22      1.0000 0.09000  0.44800  0.33940  Biso   1.000  H
  H23      1.0000 0.41000  0.94800  0.16060  Biso   1.000  H
  H24      1.0000 0.91000  0.44800  0.16060  Biso   1.000  H
  H25      1.0000 0.40000  0.25900  0.65630  Biso   1.000  H
  H26      1.0000 0.90000  0.75900  0.65630  Biso   1.000  H
  H27      1.0000 0.60000  0.25900  0.84370  Biso   1.000  H
  H28      1.0000 0.10000  0.75900  0.84370  Biso   1.000  H
  H29      1.0000 0.60000  0.74100  0.34370  Biso   1.000  H
  H30      1.0000 0.10000  0.24100  0.34370  Biso   1.000  H
  H31      1.0000 0.40000  0.74100  0.15630  Biso   1.000  H
  H32      1.0000 0.90000  0.24100  0.15630  Biso   1.000  H
  H33      1.0000 0.31400  0.44500  0.75140  Biso   1.000  H
  H34      1.0000 0.81400  0.94500  0.75140  Biso   1.000  H
  H35      1.0000 0.68600  0.44500  0.74860  Biso   1.000  H
  H36      1.0000 0.18600  0.94500  0.74860  Biso   1.000  H
  H37      1.0000 0.68600  0.55500  0.24860  Biso   1.000  H
  H38      1.0000 0.18600  0.05500  0.24860  Biso   1.000  H
  H39      1.0000 0.31400  0.55500  0.25140  Biso   1.000  H
  H40      1.0000 0.81400  0.05500  0.25140  Biso   1.000  H
  H41      1.0000 0.32100  0.65600  0.74770  Biso   1.000  H
  H42      1.0000 0.82100  0.15600  0.74770  Biso   1.000  H
  H43      1.0000 0.67900  0.65600  0.75230  Biso   1.000  H
  H44      1.0000 0.17900  0.15600  0.75230  Biso   1.000  H
  H45      1.0000 0.67900  0.34400  0.25230  Biso   1.000  H
  H46      1.0000 0.17900  0.84400  0.25230  Biso   1.000  H
  H47      1.0000 0.32100  0.34400  0.24770  Biso   1.000  H
  H48      1.0000 0.82100  0.84400  0.24770  Biso   1.000  H
  O17      1.0000 0.32723  0.11821  0.53062  Biso   1.000  O
  O18      1.0000 0.82723  0.61821  0.53062  Biso   1.000  O
  O19      1.0000 0.67277  0.11821  0.96938  Biso   1.000  O
  O20      1.0000 0.17277  0.61821  0.96938  Biso   1.000  O
  O21      1.0000 0.67277  0.88179  0.46938  Biso   1.000  O
  O22      1.0000 0.17277  0.38179  0.46938  Biso   1.000  O
  O23      1.0000 0.32723  0.88179  0.03062  Biso   1.000  O
  O24      1.0000 0.82723  0.38179  0.03062  Biso   1.000  O
  O25      1.0000 0.26783  0.09429  0.41806  Biso   1.000  O
  O26      1.0000 0.76783  0.59429  0.41806  Biso   1.000  O
  O27      1.0000 0.73217  0.09429  0.08194  Biso   1.000  O
  O28      1.0000 0.23217  0.59429  0.08194  Biso   1.000  O
  O29      1.0000 0.73217  0.90571  0.58194  Biso   1.000  O
  O30      1.0000 0.23217  0.40571  0.58194  Biso   1.000  O
  O31      1.0000 0.26783  0.90571  0.91806  Biso   1.000  O
  O32      1.0000 0.76783  0.40571  0.91806  Biso   1.000  O
  C73      1.0000 0.24870  0.08930  0.48327  Biso   1.000  C
  C74      1.0000 0.74870  0.58930  0.48327  Biso   1.000  C
  C75      1.0000 0.75130  0.08930  0.01673  Biso   1.000  C
  C76      1.0000 0.25130  0.58930  0.01673  Biso   1.000  C
  C77      1.0000 0.75130  0.91070  0.51673  Biso   1.000  C
  C78      1.0000 0.25130  0.41070  0.51673  Biso   1.000  C
  C79      1.0000 0.24870  0.91070  0.98327  Biso   1.000  C
  C80      1.0000 0.74870  0.41070  0.98327  Biso   1.000  C
  C81      1.0000 0.11935  0.04346  0.49110  Biso   1.000  C
  C82      1.0000 0.61935  0.54346  0.49110  Biso   1.000  C
  C83      1.0000 0.88065  0.04346  0.00890  Biso   1.000  C
  C84      1.0000 0.38065  0.54346  0.00890  Biso   1.000  C
  C85      1.0000 0.88065  0.95654  0.50890  Biso   1.000  C
  C86      1.0000 0.38065  0.45654  0.50890  Biso   1.000  C
  C87      1.0000 0.11935  0.95654  0.99110  Biso   1.000  C
  C88      1.0000 0.61935  0.45654  0.99110  Biso   1.000  C
  C89      1.0000 0.03870  0.99560  0.43604  Biso   1.000  C
  C90      1.0000 0.53870  0.49560  0.43604  Biso   1.000  C
  C91      1.0000 0.96130  0.99560  0.06396  Biso   1.000  C
  C92      1.0000 0.46130  0.49560  0.06396  Biso   1.000  C
  C93      1.0000 0.96130  0.00440  0.56396  Biso   1.000  C
  C94      1.0000 0.46130  0.50440  0.56396  Biso   1.000  C
  C95      1.0000 0.03870  0.00440  0.93604  Biso   1.000  C
  C96      1.0000 0.53870  0.50440  0.93604  Biso   1.000  C
  C97      1.0000 0.07950  0.04700  0.55521  Biso   1.000  C
  C98      1.0000 0.57950  0.54700  0.55521  Biso   1.000  C
  C99      1.0000 0.92050  0.04700  0.94479  Biso   1.000  C
  C100     1.0000 0.42050  0.54700  0.94479  Biso   1.000  C
  C101     1.0000 0.92050  0.95300  0.44479  Biso   1.000  C
  C102     1.0000 0.42050  0.45300  0.44479  Biso   1.000  C
  C103     1.0000 0.07950  0.95300  0.05521  Biso   1.000  C
  C104     1.0000 0.57950  0.45300  0.05521  Biso   1.000  C
  H49      1.0000 0.33600  0.12500  0.41300  Biso   1.000  H
  H50      1.0000 0.83600  0.62500  0.41300  Biso   1.000  H
  H51      1.0000 0.66400  0.12500  0.08700  Biso   1.000  H
  H52      1.0000 0.16400  0.62500  0.08700  Biso   1.000  H
  H53      1.0000 0.66400  0.87500  0.58700  Biso   1.000  H
  H54      1.0000 0.16400  0.37500  0.58700  Biso   1.000  H
  H55      1.0000 0.33600  0.87500  0.91300  Biso   1.000  H
  H56      1.0000 0.83600  0.37500  0.91300  Biso   1.000  H
  H57      1.0000 0.06900  0.98500  0.39540  Biso   1.000  H
  H58      1.0000 0.56900  0.48500  0.39540  Biso   1.000  H
  H59      1.0000 0.93100  0.98500  0.10460  Biso   1.000  H
  H60      1.0000 0.43100  0.48500  0.10460  Biso   1.000  H
  H61      1.0000 0.93100  0.01500  0.60460  Biso   1.000  H
  H62      1.0000 0.43100  0.51500  0.60460  Biso   1.000  H
  H63      1.0000 0.06900  0.01500  0.89540  Biso   1.000  H
  H64      1.0000 0.56900  0.51500  0.89540  Biso   1.000  H
  H65      1.0000 0.13600  0.07700  0.59080  Biso   1.000  H
  H66      1.0000 0.63600  0.57700  0.59080  Biso   1.000  H
  H67      1.0000 0.86400  0.07700  0.90920  Biso   1.000  H
  H68      1.0000 0.36400  0.57700  0.90920  Biso   1.000  H
  H69      1.0000 0.86400  0.92300  0.40920  Biso   1.000  H
  H70      1.0000 0.36400  0.42300  0.40920  Biso   1.000  H
  H71      1.0000 0.13600  0.92300  0.09080  Biso   1.000  H
  H72      1.0000 0.63600  0.42300  0.09080  Biso   1.000  H
