data_image0
_cell_length_a       13.389
_cell_length_b       16.3111
_cell_length_c       10.999
_cell_angle_alpha    90
_cell_angle_beta     91.352
_cell_angle_gamma    90

_symmetry_space_group_name_H-M    "P 1"
_symmetry_int_tables_number       1

loop_
  _symmetry_equiv_pos_as_xyz
  'x, y, z'

loop_
  _atom_site_label
  _atom_site_occupancy
  _atom_site_fract_x
  _atom_site_fract_y
  _atom_site_fract_z
  _atom_site_thermal_displace_type
  _atom_site_B_iso_or_equiv
  _atom_site_type_symbol
  Cu1      1.0000 0.49386  0.24003  0.80452  Biso   1.000  Cu
  Cu2      1.0000 0.49386  0.25997  0.30452  Biso   1.000  Cu
  Cu3      1.0000 0.50614  0.75997  0.19548  Biso   1.000  Cu
  Cu4      1.0000 0.50614  0.74003  0.69548  Biso   1.000  Cu
  Cu5      1.0000 0.50000  0.50000  0.00000  Biso   1.000  Cu
  Cu6      1.0000 0.50000  0.00000  0.50000  Biso   1.000  Cu
  N1       1.0000 0.64630  0.24343  0.80590  Biso   1.000  N
  N2       1.0000 0.64630  0.25657  0.30590  Biso   1.000  N
  N3       1.0000 0.35370  0.75657  0.19410  Biso   1.000  N
  N4       1.0000 0.35370  0.74343  0.69410  Biso   1.000  N
  N5       1.0000 0.34180  0.23397  0.78970  Biso   1.000  N
  N6       1.0000 0.34180  0.26603  0.28970  Biso   1.000  N
  N7       1.0000 0.65820  0.76603  0.21030  Biso   1.000  N
  N8       1.0000 0.65820  0.73397  0.71030  Biso   1.000  N
  O1       1.0000 0.49081  0.34345  0.71120  Biso   1.000  O
  O2       1.0000 0.49081  0.15655  0.21120  Biso   1.000  O
  O3       1.0000 0.50919  0.65655  0.28880  Biso   1.000  O
  O4       1.0000 0.50919  0.84345  0.78880  Biso   1.000  O
  O5       1.0000 0.50100  0.41238  0.87810  Biso   1.000  O
  O6       1.0000 0.50100  0.08762  0.37810  Biso   1.000  O
  O7       1.0000 0.49900  0.58762  0.12190  Biso   1.000  O
  O8       1.0000 0.49900  0.91238  0.62190  Biso   1.000  O
  O9       1.0000 0.50460  0.58980  0.84310  Biso   1.000  O
  O10      1.0000 0.50460  0.91020  0.34310  Biso   1.000  O
  O11      1.0000 0.49540  0.41020  0.15690  Biso   1.000  O
  O12      1.0000 0.49540  0.08980  0.65690  Biso   1.000  O
  O13      1.0000 0.50129  0.62442  0.65020  Biso   1.000  O
  O14      1.0000 0.50129  0.87558  0.15020  Biso   1.000  O
  O15      1.0000 0.49871  0.37558  0.34980  Biso   1.000  O
  O16      1.0000 0.49871  0.12442  0.84980  Biso   1.000  O
  O17      1.0000 0.48920  0.26054  0.00670  Biso   1.000  O
  O18      1.0000 0.48920  0.23946  0.50670  Biso   1.000  O
  O19      1.0000 0.51080  0.73946  0.99330  Biso   1.000  O
  O20      1.0000 0.51080  0.76054  0.49330  Biso   1.000  O
  H1       1.0000 0.47900  0.21650  0.05830  Biso   1.000  H
  H2       1.0000 0.47900  0.28350  0.55830  Biso   1.000  H
  H3       1.0000 0.52100  0.78350  0.94170  Biso   1.000  H
  H4       1.0000 0.52100  0.71650  0.44170  Biso   1.000  H
  H5       1.0000 0.48680  0.29420  0.05560  Biso   1.000  H
  H6       1.0000 0.48680  0.20580  0.55560  Biso   1.000  H
  H7       1.0000 0.51320  0.70580  0.94440  Biso   1.000  H
  H8       1.0000 0.51320  0.79420  0.44440  Biso   1.000  H
  C1       1.0000 0.69810  0.19680  0.88550  Biso   1.000  C
  C2       1.0000 0.69810  0.30320  0.38550  Biso   1.000  C
  C3       1.0000 0.30190  0.80320  0.11450  Biso   1.000  C
  C4       1.0000 0.30190  0.69680  0.61450  Biso   1.000  C
  H9       1.0000 0.66110  0.15830  0.93680  Biso   1.000  H
  H10      1.0000 0.66110  0.34170  0.43680  Biso   1.000  H
  H11      1.0000 0.33890  0.84170  0.06320  Biso   1.000  H
  H12      1.0000 0.33890  0.65830  0.56320  Biso   1.000  H
  C5       1.0000 0.80020  0.20030  0.90110  Biso   1.000  C
  C6       1.0000 0.80020  0.29970  0.40110  Biso   1.000  C
  C7       1.0000 0.19980  0.79970  0.09890  Biso   1.000  C
  C8       1.0000 0.19980  0.70030  0.59890  Biso   1.000  C
  H13      1.0000 0.83730  0.14770  0.94940  Biso   1.000  H
  H14      1.0000 0.83730  0.35230  0.44940  Biso   1.000  H
  H15      1.0000 0.16270  0.85230  0.05060  Biso   1.000  H
  H16      1.0000 0.16270  0.64770  0.55060  Biso   1.000  H
  C9       1.0000 0.85510  0.25360  0.83350  Biso   1.000  C
  C10      1.0000 0.85510  0.24640  0.33350  Biso   1.000  C
  C11      1.0000 0.14490  0.74640  0.16650  Biso   1.000  C
  C12      1.0000 0.14490  0.75360  0.66650  Biso   1.000  C
  C13      1.0000 0.80220  0.30100  0.74870  Biso   1.000  C
  C14      1.0000 0.80220  0.19900  0.24870  Biso   1.000  C
  C15      1.0000 0.19780  0.69900  0.25130  Biso   1.000  C
  C16      1.0000 0.19780  0.80100  0.75130  Biso   1.000  C
  H17      1.0000 0.83770  0.33610  0.68260  Biso   1.000  H
  H18      1.0000 0.83770  0.16390  0.18260  Biso   1.000  H
  H19      1.0000 0.16230  0.66390  0.31740  Biso   1.000  H
  H20      1.0000 0.16230  0.83610  0.81740  Biso   1.000  H
  C17      1.0000 0.70070  0.29420  0.73860  Biso   1.000  C
  C18      1.0000 0.70070  0.20580  0.23860  Biso   1.000  C
  C19      1.0000 0.29930  0.70580  0.26140  Biso   1.000  C
  C20      1.0000 0.29930  0.79420  0.76140  Biso   1.000  C
  H21      1.0000 0.66560  0.32390  0.67560  Biso   1.000  H
  H22      1.0000 0.66560  0.17610  0.17560  Biso   1.000  H
  H23      1.0000 0.33440  0.67610  0.32440  Biso   1.000  H
  H24      1.0000 0.33440  0.82390  0.82440  Biso   1.000  H
  C21      1.0000 0.96800  0.26150  0.84920  Biso   1.000  C
  C22      1.0000 0.96800  0.23850  0.34920  Biso   1.000  C
  C23      1.0000 0.03200  0.73850  0.15080  Biso   1.000  C
  C24      1.0000 0.03200  0.76150  0.65080  Biso   1.000  C
  H25      1.0000 0.99560  0.23330  0.91500  Biso   1.000  H
  H26      1.0000 0.99560  0.26670  0.41500  Biso   1.000  H
  H27      1.0000 0.00440  0.76670  0.08500  Biso   1.000  H
  H28      1.0000 0.00440  0.73330  0.58500  Biso   1.000  H
  H29      1.0000 0.98730  0.32940  0.82660  Biso   1.000  H
  H30      1.0000 0.98730  0.17060  0.32660  Biso   1.000  H
  H31      1.0000 0.01270  0.67060  0.17340  Biso   1.000  H
  H32      1.0000 0.01270  0.82940  0.67340  Biso   1.000  H
  C25      1.0000 0.01820  0.20820  0.75830  Biso   1.000  C
  C26      1.0000 0.01820  0.29180  0.25830  Biso   1.000  C
  C27      1.0000 0.98180  0.79180  0.24170  Biso   1.000  C
  C28      1.0000 0.98180  0.70820  0.74170  Biso   1.000  C
  H33      1.0000 0.00250  0.14360  0.78060  Biso   1.000  H
  H34      1.0000 0.00250  0.35640  0.28060  Biso   1.000  H
  H35      1.0000 0.99750  0.85640  0.21940  Biso   1.000  H
  H36      1.0000 0.99750  0.64360  0.71940  Biso   1.000  H
  H37      1.0000 0.99600  0.22400  0.66290  Biso   1.000  H
  H38      1.0000 0.99600  0.27600  0.16290  Biso   1.000  H
  H39      1.0000 0.00400  0.77600  0.33710  Biso   1.000  H
  H40      1.0000 0.00400  0.72400  0.83710  Biso   1.000  H
  C29      1.0000 0.13250  0.21770  0.76980  Biso   1.000  C
  C30      1.0000 0.13250  0.28230  0.26980  Biso   1.000  C
  C31      1.0000 0.86750  0.78230  0.23020  Biso   1.000  C
  C32      1.0000 0.86750  0.71770  0.73020  Biso   1.000  C
  C33      1.0000 0.18380  0.27460  0.70380  Biso   1.000  C
  C34      1.0000 0.18380  0.22540  0.20380  Biso   1.000  C
  C35      1.0000 0.81620  0.72540  0.29620  Biso   1.000  C
  C36      1.0000 0.81620  0.77460  0.79620  Biso   1.000  C
  H41      1.0000 0.14510  0.30780  0.64290  Biso   1.000  H
  H42      1.0000 0.14510  0.19220  0.14290  Biso   1.000  H
  H43      1.0000 0.85490  0.69220  0.35710  Biso   1.000  H
  H44      1.0000 0.85490  0.80780  0.85710  Biso   1.000  H
  C37      1.0000 0.28590  0.28070  0.71380  Biso   1.000  C
  C38      1.0000 0.28590  0.21930  0.21380  Biso   1.000  C
  C39      1.0000 0.71410  0.71930  0.28620  Biso   1.000  C
  C40      1.0000 0.71410  0.78070  0.78620  Biso   1.000  C
  H45      1.0000 0.32310  0.31940  0.65710  Biso   1.000  H
  H46      1.0000 0.32310  0.18060  0.15710  Biso   1.000  H
  H47      1.0000 0.67690  0.68060  0.34290  Biso   1.000  H
  H48      1.0000 0.67690  0.81940  0.84290  Biso   1.000  H
  C41      1.0000 0.29210  0.18000  0.85820  Biso   1.000  C
  C42      1.0000 0.29210  0.32000  0.35820  Biso   1.000  C
  C43      1.0000 0.70790  0.82000  0.14180  Biso   1.000  C
  C44      1.0000 0.70790  0.68000  0.64180  Biso   1.000  C
  H49      1.0000 0.33310  0.14850  0.94160  Biso   1.000  H
  H50      1.0000 0.33310  0.35150  0.44160  Biso   1.000  H
  H51      1.0000 0.66690  0.85150  0.05840  Biso   1.000  H
  H52      1.0000 0.66690  0.64850  0.55840  Biso   1.000  H
  C45      1.0000 0.18920  0.17100  0.85070  Biso   1.000  C
  C46      1.0000 0.18920  0.32900  0.35070  Biso   1.000  C
  C47      1.0000 0.81080  0.82900  0.14930  Biso   1.000  C
  C48      1.0000 0.81080  0.67100  0.64930  Biso   1.000  C
  H53      1.0000 0.16010  0.13460  0.91850  Biso   1.000  H
  H54      1.0000 0.16010  0.36540  0.41850  Biso   1.000  H
  H55      1.0000 0.83990  0.86540  0.08150  Biso   1.000  H
  H56      1.0000 0.83990  0.63460  0.58150  Biso   1.000  H
  C49      1.0000 0.49700  0.41060  0.76740  Biso   1.000  C
  C50      1.0000 0.49700  0.08940  0.26740  Biso   1.000  C
  C51      1.0000 0.50300  0.58940  0.23260  Biso   1.000  C
  C52      1.0000 0.50300  0.91060  0.73260  Biso   1.000  C
  C53      1.0000 0.50020  0.48470  0.68590  Biso   1.000  C
  C54      1.0000 0.50020  0.01530  0.18590  Biso   1.000  C
  C55      1.0000 0.49980  0.51530  0.31410  Biso   1.000  C
  C56      1.0000 0.49980  0.98470  0.81410  Biso   1.000  C
  H57      1.0000 0.44510  0.49470  0.59930  Biso   1.000  H
  H58      1.0000 0.44510  0.00530  0.09930  Biso   1.000  H
  H59      1.0000 0.55490  0.50530  0.40070  Biso   1.000  H
  H60      1.0000 0.55490  0.99470  0.90070  Biso   1.000  H
  H61      1.0000 0.58630  0.48040  0.64070  Biso   1.000  H
  H62      1.0000 0.58630  0.01960  0.14070  Biso   1.000  H
  H63      1.0000 0.41370  0.51960  0.35930  Biso   1.000  H
  H64      1.0000 0.41370  0.98040  0.85930  Biso   1.000  H
  C57      1.0000 0.50240  0.57160  0.73420  Biso   1.000  C
  C58      1.0000 0.50240  0.92840  0.23420  Biso   1.000  C
  C59      1.0000 0.49760  0.42840  0.26580  Biso   1.000  C
  C60      1.0000 0.49760  0.07160  0.76580  Biso   1.000  C
  N9       1.0000 0.36060  0.50190  0.98730  Biso   1.000  N
  N10      1.0000 0.36060  0.99810  0.48730  Biso   1.000  N
  N11      1.0000 0.63940  0.49810  0.01270  Biso   1.000  N
  N12      1.0000 0.63940  0.00190  0.51270  Biso   1.000  N
  C61      1.0000 0.31210  0.57630  0.96790  Biso   1.000  C
  C62      1.0000 0.31210  0.92370  0.46790  Biso   1.000  C
  C63      1.0000 0.68790  0.42370  0.03210  Biso   1.000  C
  C64      1.0000 0.68790  0.07630  0.53210  Biso   1.000  C
  H65      1.0000 0.34880  0.62460  0.96490  Biso   1.000  H
  H66      1.0000 0.34880  0.87540  0.46490  Biso   1.000  H
  H67      1.0000 0.65120  0.37540  0.03510  Biso   1.000  H
  H68      1.0000 0.65120  0.12460  0.53510  Biso   1.000  H
  C65      1.0000 0.20880  0.57840  0.95290  Biso   1.000  C
  C66      1.0000 0.20880  0.92160  0.45290  Biso   1.000  C
  C67      1.0000 0.79120  0.42160  0.04710  Biso   1.000  C
  C68      1.0000 0.79120  0.07840  0.54710  Biso   1.000  C
  H69      1.0000 0.17630  0.62820  0.94000  Biso   1.000  H
  H70      1.0000 0.17630  0.87180  0.44000  Biso   1.000  H
  H71      1.0000 0.82370  0.37180  0.06000  Biso   1.000  H
  H72      1.0000 0.82370  0.12820  0.56000  Biso   1.000  H
  C69      1.0000 0.15390  0.50620  0.95740  Biso   1.000  C
  C70      1.0000 0.15390  0.99380  0.45740  Biso   1.000  C
  C71      1.0000 0.84610  0.49380  0.04260  Biso   1.000  C
  C72      1.0000 0.84610  0.00620  0.54260  Biso   1.000  C
  C73      1.0000 0.20240  0.43180  0.97680  Biso   1.000  C
  C74      1.0000 0.20240  0.06820  0.47680  Biso   1.000  C
  C75      1.0000 0.79760  0.56820  0.02320  Biso   1.000  C
  C76      1.0000 0.79760  0.93180  0.52320  Biso   1.000  C
  H73      1.0000 0.16570  0.38350  0.97980  Biso   1.000  H
  H74      1.0000 0.16570  0.11650  0.47980  Biso   1.000  H
  H75      1.0000 0.83430  0.61650  0.02020  Biso   1.000  H
  H76      1.0000 0.83430  0.88350  0.52020  Biso   1.000  H
  C77      1.0000 0.30570  0.42970  0.99180  Biso   1.000  C
  C78      1.0000 0.30570  0.07030  0.49180  Biso   1.000  C
  C79      1.0000 0.69430  0.57030  0.00820  Biso   1.000  C
  C80      1.0000 0.69430  0.92970  0.50820  Biso   1.000  C
  H77      1.0000 0.33810  0.37990  0.00480  Biso   1.000  H
  H78      1.0000 0.33810  0.12010  0.50480  Biso   1.000  H
  H79      1.0000 0.66190  0.62010  0.99520  Biso   1.000  H
  H80      1.0000 0.66190  0.87990  0.49520  Biso   1.000  H
  C81      1.0000 0.03440  0.50740  0.93640  Biso   1.000  C
  C82      1.0000 0.03440  0.99260  0.43640  Biso   1.000  C
  C83      1.0000 0.96560  0.49260  0.06360  Biso   1.000  C
  C84      1.0000 0.96560  0.00740  0.56360  Biso   1.000  C
  H81      1.0000 0.01660  0.46520  0.87770  Biso   1.000  H
  H82      1.0000 0.01660  0.03480  0.37770  Biso   1.000  H
  H83      1.0000 0.98340  0.53480  0.12230  Biso   1.000  H
  H84      1.0000 0.98340  0.96520  0.62230  Biso   1.000  H
  H85      1.0000 0.01570  0.55980  0.90080  Biso   1.000  H
  H86      1.0000 0.01570  0.94020  0.40080  Biso   1.000  H
  H87      1.0000 0.98430  0.44020  0.09920  Biso   1.000  H
  H88      1.0000 0.98430  0.05980  0.59920  Biso   1.000  H
  N13      1.0000 0.32640  0.50340  0.99250  Biso   1.000  N
  N14      1.0000 0.32640  0.99660  0.49250  Biso   1.000  N
  N15      1.0000 0.67360  0.49660  0.00750  Biso   1.000  N
  N16      1.0000 0.67360  0.00340  0.50750  Biso   1.000  N
  C85      1.0000 0.27430  0.50240  0.10030  Biso   1.000  C
  C86      1.0000 0.27430  0.99760  0.60030  Biso   1.000  C
  C87      1.0000 0.72570  0.49760  0.89970  Biso   1.000  C
  C88      1.0000 0.72570  0.00240  0.39970  Biso   1.000  C
  H89      1.0000 0.30890  0.50010  0.17460  Biso   1.000  H
  H90      1.0000 0.30890  0.99990  0.67460  Biso   1.000  H
  H91      1.0000 0.69110  0.49990  0.82540  Biso   1.000  H
  H92      1.0000 0.69110  0.00010  0.32540  Biso   1.000  H
  C89      1.0000 0.17050  0.50500  0.09710  Biso   1.000  C
  C90      1.0000 0.17050  0.99500  0.59710  Biso   1.000  C
  C91      1.0000 0.82950  0.49500  0.90290  Biso   1.000  C
  C92      1.0000 0.82950  0.00500  0.40290  Biso   1.000  C
  H93      1.0000 0.13560  0.50430  0.16930  Biso   1.000  H
  H94      1.0000 0.13560  0.99570  0.66930  Biso   1.000  H
  H95      1.0000 0.86440  0.49570  0.83070  Biso   1.000  H
  H96      1.0000 0.86440  0.00430  0.33070  Biso   1.000  H
  C93      1.0000 0.11880  0.50850  0.98620  Biso   1.000  C
  C94      1.0000 0.11880  0.99150  0.48620  Biso   1.000  C
  C95      1.0000 0.88120  0.49150  0.01380  Biso   1.000  C
  C96      1.0000 0.88120  0.00850  0.51380  Biso   1.000  C
  C97      1.0000 0.17090  0.50950  0.87840  Biso   1.000  C
  C98      1.0000 0.17090  0.99050  0.37840  Biso   1.000  C
  C99      1.0000 0.82910  0.49050  0.12160  Biso   1.000  C
  C100     1.0000 0.82910  0.00950  0.62160  Biso   1.000  C
  H97      1.0000 0.13630  0.51190  0.80410  Biso   1.000  H
  H98      1.0000 0.13630  0.98810  0.30410  Biso   1.000  H
  H99      1.0000 0.86370  0.48810  0.19590  Biso   1.000  H
  H100     1.0000 0.86370  0.01190  0.69590  Biso   1.000  H
  C101     1.0000 0.27470  0.50690  0.88150  Biso   1.000  C
  C102     1.0000 0.27470  0.99310  0.38150  Biso   1.000  C
  C103     1.0000 0.72530  0.49310  0.11850  Biso   1.000  C
  C104     1.0000 0.72530  0.00690  0.61850  Biso   1.000  C
  H101     1.0000 0.30960  0.50760  0.80940  Biso   1.000  H
  H102     1.0000 0.30960  0.99240  0.30940  Biso   1.000  H
  H103     1.0000 0.69040  0.49240  0.19060  Biso   1.000  H
  H104     1.0000 0.69040  0.00760  0.69060  Biso   1.000  H
  C105     1.0000 0.00890  0.53130  0.97900  Biso   1.000  C
  C106     1.0000 0.00890  0.96870  0.47900  Biso   1.000  C
  C107     1.0000 0.99110  0.46870  0.02100  Biso   1.000  C
  C108     1.0000 0.99110  0.03130  0.52100  Biso   1.000  C
  H105     1.0000 0.99160  0.57760  0.02970  Biso   1.000  H
  H106     1.0000 0.99160  0.92240  0.52970  Biso   1.000  H
  H107     1.0000 0.00840  0.42240  0.97030  Biso   1.000  H
  H108     1.0000 0.00840  0.07760  0.47030  Biso   1.000  H
  H109     1.0000 0.98280  0.53830  0.89660  Biso   1.000  H
  H110     1.0000 0.98280  0.96170  0.39660  Biso   1.000  H
  H111     1.0000 0.01720  0.46170  0.10340  Biso   1.000  H
  H112     1.0000 0.01720  0.03830  0.60340  Biso   1.000  H
  N17      1.0000 0.22970  0.50130  0.51340  Biso   1.000  N
  N18      1.0000 0.22970  0.99870  0.01340  Biso   1.000  N
  N19      1.0000 0.77030  0.49870  0.48660  Biso   1.000  N
  N20      1.0000 0.77030  0.00130  0.98660  Biso   1.000  N
  O21      1.0000 0.27010  0.53620  0.43540  Biso   1.000  O
  O22      1.0000 0.27010  0.96380  0.93540  Biso   1.000  O
  O23      1.0000 0.72990  0.46380  0.56460  Biso   1.000  O
  O24      1.0000 0.72990  0.03620  0.06460  Biso   1.000  O
  O25      1.0000 0.13930  0.50790  0.52090  Biso   1.000  O
  O26      1.0000 0.13930  0.99210  0.02090  Biso   1.000  O
  O27      1.0000 0.86070  0.49210  0.47910  Biso   1.000  O
  O28      1.0000 0.86070  0.00790  0.97910  Biso   1.000  O
  O29      1.0000 0.27010  0.46220  0.58420  Biso   1.000  O
  O30      1.0000 0.27010  0.03780  0.08420  Biso   1.000  O
  O31      1.0000 0.72990  0.53780  0.41580  Biso   1.000  O
  O32      1.0000 0.72990  0.96220  0.91580  Biso   1.000  O
  O33      1.0000 0.00350  0.58140  0.36300  Biso   1.000  O
  O34      1.0000 0.00350  0.91860  0.86300  Biso   1.000  O
  O35      1.0000 0.99650  0.41860  0.63700  Biso   1.000  O
  O36      1.0000 0.99650  0.08140  0.13700  Biso   1.000  O
  H113     1.0000 0.05410  0.55770  0.39810  Biso   1.000  H
  H114     1.0000 0.05410  0.94230  0.89810  Biso   1.000  H
  H115     1.0000 0.94590  0.44230  0.60190  Biso   1.000  H
  H116     1.0000 0.94590  0.05770  0.10190  Biso   1.000  H
  H117     1.0000 0.95150  0.55900  0.39380  Biso   1.000  H
  H118     1.0000 0.95150  0.94100  0.89380  Biso   1.000  H
  H119     1.0000 0.04850  0.44100  0.60620  Biso   1.000  H
  H120     1.0000 0.04850  0.05900  0.10620  Biso   1.000  H
