data_image0
_cell_length_a       9.0644
_cell_length_b       6.5493
_cell_length_c       10.4485
_cell_angle_alpha    90
_cell_angle_beta     96.527
_cell_angle_gamma    90

_symmetry_space_group_name_H-M    "P 1"
_symmetry_int_tables_number       1

loop_
  _symmetry_equiv_pos_as_xyz
  'x, y, z'

loop_
  _atom_site_label
  _atom_site_occupancy
  _atom_site_fract_x
  _atom_site_fract_y
  _atom_site_fract_z
  _atom_site_thermal_displace_type
  _atom_site_B_iso_or_equiv
  _atom_site_type_symbol
  Cu1      1.0000 0.94286  0.14681  0.41180  Biso   1.000  Cu
  Cu2      1.0000 0.05714  0.64681  0.58820  Biso   1.000  Cu
  O1       1.0000 0.11700  0.14530  0.31570  Biso   1.000  O
  O2       1.0000 0.88300  0.64530  0.68430  Biso   1.000  O
  O3       1.0000 0.17790  0.13790  0.11510  Biso   1.000  O
  O4       1.0000 0.82210  0.63790  0.88490  Biso   1.000  O
  O5       1.0000 0.95940  0.49600  0.43720  Biso   1.000  O
  O6       1.0000 0.04060  0.99600  0.56280  Biso   1.000  O
  O7       1.0000 0.89610  0.77300  0.32260  Biso   1.000  O
  O8       1.0000 0.10390  0.27300  0.67740  Biso   1.000  O
  N1       1.0000 0.83170  0.23630  0.23850  Biso   1.000  N
  N2       1.0000 0.16830  0.73630  0.76150  Biso   1.000  N
  N3       1.0000 0.73850  0.15130  0.46630  Biso   1.000  N
  N4       1.0000 0.26150  0.65130  0.53370  Biso   1.000  N
  C1       1.0000 0.68420  0.14280  0.23490  Biso   1.000  C
  C2       1.0000 0.31580  0.64280  0.76510  Biso   1.000  C
  C3       1.0000 0.63050  0.15090  0.36570  Biso   1.000  C
  C4       1.0000 0.36950  0.65090  0.63430  Biso   1.000  C
  C5       1.0000 0.48260  0.15530  0.38290  Biso   1.000  C
  C6       1.0000 0.51740  0.65530  0.61710  Biso   1.000  C
  C7       1.0000 0.44340  0.16090  0.50700  Biso   1.000  C
  C8       1.0000 0.55660  0.66090  0.49300  Biso   1.000  C
  C9       1.0000 0.55290  0.15580  0.60970  Biso   1.000  C
  C10      1.0000 0.44710  0.65580  0.39030  Biso   1.000  C
  C11      1.0000 0.69960  0.15540  0.58630  Biso   1.000  C
  C12      1.0000 0.30040  0.65540  0.41370  Biso   1.000  C
  C13      1.0000 0.92320  0.15540  0.14120  Biso   1.000  C
  C14      1.0000 0.07680  0.65540  0.85880  Biso   1.000  C
  C15      1.0000 0.08640  0.14810  0.19460  Biso   1.000  C
  C16      1.0000 0.91360  0.64810  0.80540  Biso   1.000  C
  C17      1.0000 0.81550  0.46370  0.23180  Biso   1.000  C
  C18      1.0000 0.18450  0.96370  0.76820  Biso   1.000  C
  C19      1.0000 0.89610  0.58670  0.33640  Biso   1.000  C
  C20      1.0000 0.10390  0.08670  0.66360  Biso   1.000  C
  H1       1.0000 0.60800  0.18800  0.17000  Biso   1.000  H
  H2       1.0000 0.39200  0.68800  0.83000  Biso   1.000  H
  H3       1.0000 0.70500  0.01100  0.20900  Biso   1.000  H
  H4       1.0000 0.29500  0.51100  0.79100  Biso   1.000  H
  H5       1.0000 0.41500  0.12500  0.31400  Biso   1.000  H
  H6       1.0000 0.58500  0.62500  0.68600  Biso   1.000  H
  H7       1.0000 0.33900  0.20300  0.51900  Biso   1.000  H
  H8       1.0000 0.66100  0.70300  0.48100  Biso   1.000  H
  H9       1.0000 0.53000  0.18100  0.69700  Biso   1.000  H
  H10      1.0000 0.47000  0.68100  0.30300  Biso   1.000  H
  H11      1.0000 0.78300  0.18200  0.65700  Biso   1.000  H
  H12      1.0000 0.21700  0.68200  0.34300  Biso   1.000  H
  H13      1.0000 0.89300  0.03300  0.12300  Biso   1.000  H
  H14      1.0000 0.10700  0.53300  0.87700  Biso   1.000  H
  H15      1.0000 0.90200  0.24400  0.06100  Biso   1.000  H
  H16      1.0000 0.09800  0.74400  0.93900  Biso   1.000  H
  H17      1.0000 0.85900  0.51700  0.14400  Biso   1.000  H
  H18      1.0000 0.14100  0.01700  0.85600  Biso   1.000  H
  H19      1.0000 0.68400  0.50100  0.23500  Biso   1.000  H
  H20      1.0000 0.31600  0.00100  0.76500  Biso   1.000  H
  O9       1.0000 0.38620  0.83270  0.08340  Biso   1.000  O
  O10      1.0000 0.61380  0.33270  0.91660  Biso   1.000  O
  H21      1.0000 0.32300  0.88200  0.07000  Biso   1.000  H
  H22      1.0000 0.67700  0.38200  0.93000  Biso   1.000  H
  H23      1.0000 0.42600  0.90100  0.04500  Biso   1.000  H
  H24      1.0000 0.57400  0.40100  0.95500  Biso   1.000  H
  O11      1.0000 0.39660  0.41600  0.06700  Biso   1.000  O
  O12      1.0000 0.60340  0.91600  0.93300  Biso   1.000  O
  H25      1.0000 0.38000  0.50000  0.07900  Biso   1.000  H
  H26      1.0000 0.62000  0.00000  0.92100  Biso   1.000  H
  H27      1.0000 0.32800  0.32600  0.10300  Biso   1.000  H
  H28      1.0000 0.67200  0.82600  0.89700  Biso   1.000  H
