data_image0
_cell_length_a       10.3153
_cell_length_b       10.6157
_cell_length_c       12.7652
_cell_angle_alpha    94.468
_cell_angle_beta     92.645
_cell_angle_gamma    103.338

_symmetry_space_group_name_H-M    "P 1"
_symmetry_int_tables_number       1

loop_
  _symmetry_equiv_pos_as_xyz
  'x, y, z'

loop_
  _atom_site_label
  _atom_site_occupancy
  _atom_site_fract_x
  _atom_site_fract_y
  _atom_site_fract_z
  _atom_site_thermal_displace_type
  _atom_site_B_iso_or_equiv
  _atom_site_type_symbol
  Cu1      1.0000 0.64357  0.67806  0.25090  Biso   1.000  Cu
  Cu2      1.0000 0.35643  0.32194  0.74910  Biso   1.000  Cu
  N1       1.0000 0.52930  0.75330  0.34920  Biso   1.000  N
  N2       1.0000 0.47070  0.24670  0.65080  Biso   1.000  N
  C1       1.0000 0.44850  0.81510  0.29680  Biso   1.000  C
  C2       1.0000 0.55150  0.18490  0.70320  Biso   1.000  C
  C3       1.0000 0.52450  0.75160  0.45210  Biso   1.000  C
  C4       1.0000 0.47550  0.24840  0.54790  Biso   1.000  C
  H1       1.0000 0.58040  0.70760  0.48860  Biso   1.000  H
  H2       1.0000 0.41960  0.29240  0.51140  Biso   1.000  H
  C5       1.0000 0.43970  0.81250  0.50930  Biso   1.000  C
  C6       1.0000 0.56030  0.18750  0.49070  Biso   1.000  C
  H3       1.0000 0.43860  0.80960  0.58340  Biso   1.000  H
  H4       1.0000 0.56140  0.19040  0.41660  Biso   1.000  H
  C7       1.0000 0.35870  0.87590  0.45780  Biso   1.000  C
  C8       1.0000 0.64130  0.12410  0.54220  Biso   1.000  C
  H5       1.0000 0.30120  0.91800  0.49590  Biso   1.000  H
  H6       1.0000 0.69880  0.08200  0.50410  Biso   1.000  H
  C9       1.0000 0.36070  0.87880  0.34790  Biso   1.000  C
  C10      1.0000 0.63930  0.12120  0.65210  Biso   1.000  C
  C11      1.0000 0.28140  0.94400  0.28630  Biso   1.000  C
  C12      1.0000 0.71860  0.05600  0.71370  Biso   1.000  C
  H7       1.0000 0.22260  0.98870  0.32010  Biso   1.000  H
  H8       1.0000 0.77740  0.01130  0.67990  Biso   1.000  H
  C13      1.0000 0.28910  0.94280  0.18140  Biso   1.000  C
  C14      1.0000 0.71090  0.05720  0.81860  Biso   1.000  C
  H9       1.0000 0.23580  0.98720  0.14240  Biso   1.000  H
  H10      1.0000 0.76420  0.01280  0.85760  Biso   1.000  H
  C15      1.0000 0.37520  0.87670  0.12730  Biso   1.000  C
  C16      1.0000 0.62480  0.12330  0.87270  Biso   1.000  C
  C17      1.0000 0.38820  0.86980  0.01800  Biso   1.000  C
  C18      1.0000 0.61180  0.13020  0.98200  Biso   1.000  C
  H11      1.0000 0.33470  0.90930  0.97450  Biso   1.000  H
  H12      1.0000 0.66530  0.09070  0.02550  Biso   1.000  H
  C19      1.0000 0.47530  0.80820  0.97410  Biso   1.000  C
  C20      1.0000 0.52470  0.19180  0.02590  Biso   1.000  C
  H13      1.0000 0.48470  0.80580  0.90030  Biso   1.000  H
  H14      1.0000 0.51530  0.19420  0.09970  Biso   1.000  H
  C21      1.0000 0.55250  0.74740  0.03850  Biso   1.000  C
  C22      1.0000 0.44750  0.25260  0.96150  Biso   1.000  C
  H15      1.0000 0.61330  0.70320  0.00720  Biso   1.000  H
  H16      1.0000 0.38670  0.29680  0.99280  Biso   1.000  H
  N3       1.0000 0.54220  0.75040  0.14220  Biso   1.000  N
  N4       1.0000 0.45780  0.24960  0.85780  Biso   1.000  N
  C23      1.0000 0.45570  0.81410  0.18660  Biso   1.000  C
  C24      1.0000 0.54430  0.18590  0.81340  Biso   1.000  C
  N5       1.0000 0.76560  0.62010  0.14750  Biso   1.000  N
  N6       1.0000 0.23440  0.37990  0.85250  Biso   1.000  N
  C25      1.0000 0.89040  0.68830  0.14210  Biso   1.000  C
  C26      1.0000 0.10960  0.31170  0.85790  Biso   1.000  C
  H17      1.0000 0.91620  0.77240  0.17890  Biso   1.000  H
  H18      1.0000 0.08380  0.22760  0.82110  Biso   1.000  H
  C27      1.0000 0.98290  0.64400  0.08690  Biso   1.000  C
  C28      1.0000 0.01710  0.35600  0.91310  Biso   1.000  C
  H19      1.0000 0.07090  0.69670  0.08730  Biso   1.000  H
  H20      1.0000 0.92910  0.30330  0.91270  Biso   1.000  H
  C29      1.0000 0.95110  0.52520  0.03070  Biso   1.000  C
  C30      1.0000 0.04890  0.47480  0.96930  Biso   1.000  C
  C31      1.0000 0.82530  0.45460  0.03680  Biso   1.000  C
  C32      1.0000 0.17470  0.54540  0.96320  Biso   1.000  C
  H21      1.0000 0.79800  0.36980  0.00140  Biso   1.000  H
  H22      1.0000 0.20200  0.63020  0.99860  Biso   1.000  H
  C33      1.0000 0.73700  0.50490  0.09400  Biso   1.000  C
  C34      1.0000 0.26300  0.49510  0.90600  Biso   1.000  C
  H23      1.0000 0.64870  0.45300  0.09500  Biso   1.000  H
  H24      1.0000 0.35130  0.54700  0.90500  Biso   1.000  H
  N7       1.0000 0.75220  0.61410  0.36100  Biso   1.000  N
  N8       1.0000 0.24780  0.38590  0.63900  Biso   1.000  N
  C35      1.0000 0.85340  0.69300  0.41480  Biso   1.000  C
  C36      1.0000 0.14660  0.30700  0.58520  Biso   1.000  C
  H25      1.0000 0.85930  0.78380  0.41620  Biso   1.000  H
  H26      1.0000 0.14070  0.21620  0.58380  Biso   1.000  H
  C37      1.0000 0.95180  0.65270  0.46960  Biso   1.000  C
  C38      1.0000 0.04820  0.34730  0.53040  Biso   1.000  C
  H27      1.0000 0.02340  0.71530  0.50650  Biso   1.000  H
  H28      1.0000 0.97660  0.28470  0.49350  Biso   1.000  H
  C39      1.0000 0.94760  0.52380  0.47160  Biso   1.000  C
  C40      1.0000 0.05240  0.47620  0.52840  Biso   1.000  C
  C41      1.0000 0.84090  0.44020  0.41490  Biso   1.000  C
  C42      1.0000 0.15910  0.55980  0.58510  Biso   1.000  C
  H29      1.0000 0.83260  0.34900  0.41280  Biso   1.000  H
  H30      1.0000 0.16740  0.65100  0.58720  Biso   1.000  H
  C43      1.0000 0.74650  0.48740  0.36150  Biso   1.000  C
  C44      1.0000 0.25350  0.51260  0.63850  Biso   1.000  C
  H31      1.0000 0.67400  0.42720  0.32330  Biso   1.000  H
  H32      1.0000 0.32600  0.57280  0.67670  Biso   1.000  H
  S1       1.0000 0.79971  0.04008  0.26743  Biso   1.000  S
  S2       1.0000 0.20029  0.95992  0.73257  Biso   1.000  S
  F1       1.0000 0.03410  0.06870  0.19360  Biso   1.000  F
  F2       1.0000 0.96590  0.93130  0.80640  Biso   1.000  F
  F3       1.0000 0.92230  0.20430  0.14330  Biso   1.000  F
  F4       1.0000 0.07770  0.79570  0.85670  Biso   1.000  F
  F5       1.0000 0.87080  0.00530  0.07650  Biso   1.000  F
  F6       1.0000 0.12920  0.99470  0.92350  Biso   1.000  F
  O1       1.0000 0.79530  0.90450  0.27320  Biso   1.000  O
  O2       1.0000 0.20470  0.09550  0.72680  Biso   1.000  O
  O3       1.0000 0.86670  0.12040  0.35780  Biso   1.000  O
  O4       1.0000 0.13330  0.87960  0.64220  Biso   1.000  O
  O5       1.0000 0.67920  0.06940  0.22730  Biso   1.000  O
  O6       1.0000 0.32080  0.93060  0.77270  Biso   1.000  O
  C45      1.0000 0.91360  0.08200  0.16420  Biso   1.000  C
  C46      1.0000 0.08640  0.91800  0.83580  Biso   1.000  C
  O7       1.0000 0.47730  0.47830  0.21420  Biso   1.000  O
  O8       1.0000 0.52270  0.52170  0.78580  Biso   1.000  O
  S3       1.0000 0.39110  0.40480  0.28070  Biso   1.000  S
  S4       1.0000 0.60890  0.59520  0.71930  Biso   1.000  S
  F7       1.0000 0.13720  0.34810  0.29580  Biso   1.000  F
  F8       1.0000 0.86280  0.65190  0.70420  Biso   1.000  F
  F9       1.0000 0.20150  0.35970  0.13510  Biso   1.000  F
  F10      1.0000 0.79850  0.64030  0.86490  Biso   1.000  F
  F11      1.0000 0.21250  0.53410  0.24210  Biso   1.000  F
  F12      1.0000 0.78750  0.46590  0.75790  Biso   1.000  F
  O9       1.0000 0.39340  0.26870  0.26830  Biso   1.000  O
  O10      1.0000 0.60660  0.73130  0.73170  Biso   1.000  O
  O11      1.0000 0.40230  0.46350  0.38970  Biso   1.000  O
  O12      1.0000 0.59770  0.53650  0.61030  Biso   1.000  O
  C47      1.0000 0.22400  0.41560  0.23380  Biso   1.000  C
  C48      1.0000 0.77600  0.58440  0.76620  Biso   1.000  C
  O13      1.0000 0.05880  0.00390  0.46980  Biso   1.000  O
  O14      1.0000 0.94120  0.99610  0.53020  Biso   1.000  O
  C49      1.0000 0.72050  0.60900  0.67490  Biso   1.000  C
  C50      1.0000 0.27950  0.39100  0.32510  Biso   1.000  C
  C51      1.0000 0.75560  0.53130  0.72120  Biso   1.000  C
  C52      1.0000 0.24440  0.46870  0.27880  Biso   1.000  C
  F13      1.0000 0.67100  0.70470  0.65190  Biso   1.000  F
  F14      1.0000 0.32900  0.29530  0.34810  Biso   1.000  F
  F15      1.0000 0.84850  0.64500  0.67500  Biso   1.000  F
  F16      1.0000 0.15150  0.35500  0.32500  Biso   1.000  F
  F17      1.0000 0.76380  0.44370  0.78880  Biso   1.000  F
  F18      1.0000 0.23620  0.55630  0.21120  Biso   1.000  F
  F19      1.0000 0.72050  0.46020  0.63010  Biso   1.000  F
  F20      1.0000 0.27950  0.53980  0.36990  Biso   1.000  F
  F21      1.0000 0.87740  0.60080  0.71690  Biso   1.000  F
  F22      1.0000 0.12260  0.39920  0.28310  Biso   1.000  F
  F23      1.0000 0.67900  0.51500  0.60160  Biso   1.000  F
  F24      1.0000 0.32100  0.48500  0.39840  Biso   1.000  F
  O15      1.0000 0.71000  0.67200  0.86400  Biso   1.000  O
  O16      1.0000 0.29000  0.32800  0.13600  Biso   1.000  O
  O17      1.0000 0.61430  0.70440  0.68100  Biso   1.000  O
  O18      1.0000 0.38570  0.29560  0.31900  Biso   1.000  O
  O19      1.0000 0.70100  0.70710  0.85520  Biso   1.000  O
  O20      1.0000 0.29900  0.29290  0.14480  Biso   1.000  O
  O21      1.0000 0.74100  0.46300  0.81430  Biso   1.000  O
  O22      1.0000 0.25900  0.53700  0.18570  Biso   1.000  O
  S5       1.0000 0.63750  0.62840  0.76450  Biso   1.000  S
  S6       1.0000 0.36250  0.37160  0.23550  Biso   1.000  S
  S7       1.0000 0.66220  0.55790  0.79480  Biso   1.000  S
  S8       1.0000 0.33780  0.44210  0.20520  Biso   1.000  S
