data_image0
_cell_length_a       15.6236
_cell_length_b       15.6236
_cell_length_c       15.6236
_cell_angle_alpha    90
_cell_angle_beta     90
_cell_angle_gamma    90

_symmetry_space_group_name_H-M    "P 1"
_symmetry_int_tables_number       1

loop_
  _symmetry_equiv_pos_as_xyz
  'x, y, z'

loop_
  _atom_site_label
  _atom_site_occupancy
  _atom_site_fract_x
  _atom_site_fract_y
  _atom_site_fract_z
  _atom_site_thermal_displace_type
  _atom_site_B_iso_or_equiv
  _atom_site_type_symbol
  Ru1      1.0000 0.89754  0.10246  0.60246  Biso   1.000  Ru
  Ru2      1.0000 0.60246  0.89754  0.10246  Biso   1.000  Ru
  Ru3      1.0000 0.39754  0.39754  0.39754  Biso   1.000  Ru
  Ru4      1.0000 0.10246  0.60246  0.89754  Biso   1.000  Ru
  Na1      1.0000 0.65536  0.15536  0.34464  Biso   1.000  Na
  Na2      1.0000 0.84464  0.84464  0.84464  Biso   1.000  Na
  Na3      1.0000 0.15536  0.34464  0.65536  Biso   1.000  Na
  Na4      1.0000 0.34464  0.65536  0.15536  Biso   1.000  Na
  O1       1.0000 0.89420  0.11370  0.47305  Biso   1.000  O
  O2       1.0000 0.60580  0.88630  0.97305  Biso   1.000  O
  O3       1.0000 0.39420  0.38630  0.52695  Biso   1.000  O
  O4       1.0000 0.10580  0.61370  0.02695  Biso   1.000  O
  O5       1.0000 0.47305  0.89420  0.11370  Biso   1.000  O
  O6       1.0000 0.11370  0.47305  0.89420  Biso   1.000  O
  O7       1.0000 0.02695  0.10580  0.61370  Biso   1.000  O
  O8       1.0000 0.88630  0.97305  0.60580  Biso   1.000  O
  O9       1.0000 0.97305  0.60580  0.88630  Biso   1.000  O
  O10      1.0000 0.38630  0.52695  0.39420  Biso   1.000  O
  O11      1.0000 0.52695  0.39420  0.38630  Biso   1.000  O
  O12      1.0000 0.61370  0.02695  0.10580  Biso   1.000  O
  O13      1.0000 0.76931  0.10920  0.58900  Biso   1.000  O
  O14      1.0000 0.73069  0.89080  0.08900  Biso   1.000  O
  O15      1.0000 0.26931  0.39080  0.41100  Biso   1.000  O
  O16      1.0000 0.23069  0.60920  0.91100  Biso   1.000  O
  O17      1.0000 0.58900  0.76931  0.10920  Biso   1.000  O
  O18      1.0000 0.10920  0.58900  0.76931  Biso   1.000  O
  O19      1.0000 0.91100  0.23069  0.60920  Biso   1.000  O
  O20      1.0000 0.89080  0.08900  0.73069  Biso   1.000  O
  O21      1.0000 0.08900  0.73069  0.89080  Biso   1.000  O
  O22      1.0000 0.39080  0.41100  0.26931  Biso   1.000  O
  O23      1.0000 0.41100  0.26931  0.39080  Biso   1.000  O
  O24      1.0000 0.60920  0.91100  0.23069  Biso   1.000  O
  O25      1.0000 0.67230  0.13570  0.49190  Biso   1.000  O
  O26      1.0000 0.82770  0.86430  0.99190  Biso   1.000  O
  O27      1.0000 0.17230  0.36430  0.50810  Biso   1.000  O
  O28      1.0000 0.32770  0.63570  0.00810  Biso   1.000  O
  O29      1.0000 0.49190  0.67230  0.13570  Biso   1.000  O
  O30      1.0000 0.13570  0.49190  0.67230  Biso   1.000  O
  O31      1.0000 0.00810  0.32770  0.63570  Biso   1.000  O
  O32      1.0000 0.86430  0.99190  0.82770  Biso   1.000  O
  O33      1.0000 0.99190  0.82770  0.86430  Biso   1.000  O
  O34      1.0000 0.36430  0.50810  0.17230  Biso   1.000  O
  O35      1.0000 0.50810  0.17230  0.36430  Biso   1.000  O
  O36      1.0000 0.63570  0.00810  0.32770  Biso   1.000  O
  O37      1.0000 0.80240  0.14300  0.36970  Biso   1.000  O
  O38      1.0000 0.69760  0.85700  0.86970  Biso   1.000  O
  O39      1.0000 0.30240  0.35700  0.63030  Biso   1.000  O
  O40      1.0000 0.19760  0.64300  0.13030  Biso   1.000  O
  O41      1.0000 0.36970  0.80240  0.14300  Biso   1.000  O
  O42      1.0000 0.14300  0.36970  0.80240  Biso   1.000  O
  O43      1.0000 0.13030  0.19760  0.64300  Biso   1.000  O
  O44      1.0000 0.85700  0.86970  0.69760  Biso   1.000  O
  O45      1.0000 0.86970  0.69760  0.85700  Biso   1.000  O
  O46      1.0000 0.35700  0.63030  0.30240  Biso   1.000  O
  O47      1.0000 0.63030  0.30240  0.35700  Biso   1.000  O
  O48      1.0000 0.64300  0.13030  0.19760  Biso   1.000  O
  C1       1.0000 0.81940  0.12760  0.44430  Biso   1.000  C
  C2       1.0000 0.68060  0.87240  0.94430  Biso   1.000  C
  C3       1.0000 0.31940  0.37240  0.55570  Biso   1.000  C
  C4       1.0000 0.18060  0.62760  0.05570  Biso   1.000  C
  C5       1.0000 0.44430  0.81940  0.12760  Biso   1.000  C
  C6       1.0000 0.12760  0.44430  0.81940  Biso   1.000  C
  C7       1.0000 0.05570  0.18060  0.62760  Biso   1.000  C
  C8       1.0000 0.87240  0.94430  0.68060  Biso   1.000  C
  C9       1.0000 0.94430  0.68060  0.87240  Biso   1.000  C
  C10      1.0000 0.37240  0.55570  0.31940  Biso   1.000  C
  C11      1.0000 0.55570  0.31940  0.37240  Biso   1.000  C
  C12      1.0000 0.62760  0.05570  0.18060  Biso   1.000  C
  C13      1.0000 0.74580  0.12450  0.51300  Biso   1.000  C
  C14      1.0000 0.75420  0.87550  0.01300  Biso   1.000  C
  C15      1.0000 0.24580  0.37550  0.48700  Biso   1.000  C
  C16      1.0000 0.25420  0.62450  0.98700  Biso   1.000  C
  C17      1.0000 0.51300  0.74580  0.12450  Biso   1.000  C
  C18      1.0000 0.12450  0.51300  0.74580  Biso   1.000  C
  C19      1.0000 0.98700  0.25420  0.62450  Biso   1.000  C
  C20      1.0000 0.87550  0.01300  0.75420  Biso   1.000  C
  C21      1.0000 0.01300  0.75420  0.87550  Biso   1.000  C
  C22      1.0000 0.37550  0.48700  0.24580  Biso   1.000  C
  C23      1.0000 0.48700  0.24580  0.37550  Biso   1.000  C
  C24      1.0000 0.62450  0.98700  0.25420  Biso   1.000  C
  Cu1      1.0000 0.37504  0.12496  0.87504  Biso   1.000  Cu
  Cu2      1.0000 0.12496  0.87504  0.37504  Biso   1.000  Cu
  Cu3      1.0000 0.87504  0.37504  0.12496  Biso   1.000  Cu
  Cu4      1.0000 0.62496  0.62496  0.62496  Biso   1.000  Cu
  N1       1.0000 0.38890  0.12770  0.73970  Biso   1.000  N
  N2       1.0000 0.11110  0.87230  0.23970  Biso   1.000  N
  N3       1.0000 0.88890  0.37230  0.26030  Biso   1.000  N
  N4       1.0000 0.61110  0.62770  0.76030  Biso   1.000  N
  N5       1.0000 0.73970  0.38890  0.12770  Biso   1.000  N
  N6       1.0000 0.12770  0.73970  0.38890  Biso   1.000  N
  N7       1.0000 0.76030  0.61110  0.62770  Biso   1.000  N
  N8       1.0000 0.87230  0.23970  0.11110  Biso   1.000  N
  N9       1.0000 0.23970  0.11110  0.87230  Biso   1.000  N
  N10      1.0000 0.37230  0.26030  0.88890  Biso   1.000  N
  N11      1.0000 0.26030  0.88890  0.37230  Biso   1.000  N
  N12      1.0000 0.62770  0.76030  0.61110  Biso   1.000  N
  N13      1.0000 0.50950  0.12100  0.85890  Biso   1.000  N
  N14      1.0000 0.99050  0.87900  0.35890  Biso   1.000  N
  N15      1.0000 0.00950  0.37900  0.14110  Biso   1.000  N
  N16      1.0000 0.49050  0.62100  0.64110  Biso   1.000  N
  N17      1.0000 0.85890  0.50950  0.12100  Biso   1.000  N
  N18      1.0000 0.12100  0.85890  0.50950  Biso   1.000  N
  N19      1.0000 0.64110  0.49050  0.62100  Biso   1.000  N
  N20      1.0000 0.87900  0.35890  0.99050  Biso   1.000  N
  N21      1.0000 0.35890  0.99050  0.87900  Biso   1.000  N
  N22      1.0000 0.37900  0.14110  0.00950  Biso   1.000  N
  N23      1.0000 0.14110  0.00950  0.37900  Biso   1.000  N
  N24      1.0000 0.62100  0.64110  0.49050  Biso   1.000  N
  C25      1.0000 0.32450  0.13110  0.68430  Biso   1.000  C
  C26      1.0000 0.17550  0.86890  0.18430  Biso   1.000  C
  C27      1.0000 0.82450  0.36890  0.31570  Biso   1.000  C
  C28      1.0000 0.67550  0.63110  0.81570  Biso   1.000  C
  C29      1.0000 0.68430  0.32450  0.13110  Biso   1.000  C
  C30      1.0000 0.13110  0.68430  0.32450  Biso   1.000  C
  C31      1.0000 0.81570  0.67550  0.63110  Biso   1.000  C
  C32      1.0000 0.86890  0.18430  0.17550  Biso   1.000  C
  C33      1.0000 0.18430  0.17550  0.86890  Biso   1.000  C
  C34      1.0000 0.36890  0.31570  0.82450  Biso   1.000  C
  C35      1.0000 0.31570  0.82450  0.36890  Biso   1.000  C
  C36      1.0000 0.63110  0.81570  0.67550  Biso   1.000  C
  H1       1.0000 0.26860  0.13090  0.70490  Biso   1.000  H
  H2       1.0000 0.23140  0.86910  0.20490  Biso   1.000  H
  H3       1.0000 0.76860  0.36910  0.29510  Biso   1.000  H
  H4       1.0000 0.73140  0.63090  0.79510  Biso   1.000  H
  H5       1.0000 0.70490  0.26860  0.13090  Biso   1.000  H
  H6       1.0000 0.13090  0.70490  0.26860  Biso   1.000  H
  H7       1.0000 0.79510  0.73140  0.63090  Biso   1.000  H
  H8       1.0000 0.86910  0.20490  0.23140  Biso   1.000  H
  H9       1.0000 0.20490  0.23140  0.86910  Biso   1.000  H
  H10      1.0000 0.36910  0.29510  0.76860  Biso   1.000  H
  H11      1.0000 0.29510  0.76860  0.36910  Biso   1.000  H
  H12      1.0000 0.63090  0.79510  0.73140  Biso   1.000  H
  C37      1.0000 0.33780  0.13510  0.59650  Biso   1.000  C
  C38      1.0000 0.16220  0.86490  0.09650  Biso   1.000  C
  C39      1.0000 0.83780  0.36490  0.40350  Biso   1.000  C
  C40      1.0000 0.66220  0.63510  0.90350  Biso   1.000  C
  C41      1.0000 0.59650  0.33780  0.13510  Biso   1.000  C
  C42      1.0000 0.13510  0.59650  0.33780  Biso   1.000  C
  C43      1.0000 0.90350  0.66220  0.63510  Biso   1.000  C
  C44      1.0000 0.86490  0.09650  0.16220  Biso   1.000  C
  C45      1.0000 0.09650  0.16220  0.86490  Biso   1.000  C
  C46      1.0000 0.36490  0.40350  0.83780  Biso   1.000  C
  C47      1.0000 0.40350  0.83780  0.36490  Biso   1.000  C
  C48      1.0000 0.63510  0.90350  0.66220  Biso   1.000  C
  H13      1.0000 0.29180  0.13800  0.55890  Biso   1.000  H
  H14      1.0000 0.20820  0.86200  0.05890  Biso   1.000  H
  H15      1.0000 0.79180  0.36200  0.44110  Biso   1.000  H
  H16      1.0000 0.70820  0.63800  0.94110  Biso   1.000  H
  H17      1.0000 0.55890  0.29180  0.13800  Biso   1.000  H
  H18      1.0000 0.13800  0.55890  0.29180  Biso   1.000  H
  H19      1.0000 0.94110  0.70820  0.63800  Biso   1.000  H
  H20      1.0000 0.86200  0.05890  0.20820  Biso   1.000  H
  H21      1.0000 0.05890  0.20820  0.86200  Biso   1.000  H
  H22      1.0000 0.36200  0.44110  0.79180  Biso   1.000  H
  H23      1.0000 0.44110  0.79180  0.36200  Biso   1.000  H
  H24      1.0000 0.63800  0.94110  0.70820  Biso   1.000  H
  C49      1.0000 0.41920  0.13450  0.56690  Biso   1.000  C
  C50      1.0000 0.08080  0.86550  0.06690  Biso   1.000  C
  C51      1.0000 0.91920  0.36550  0.43310  Biso   1.000  C
  C52      1.0000 0.58080  0.63450  0.93310  Biso   1.000  C
  C53      1.0000 0.56690  0.41920  0.13450  Biso   1.000  C
  C54      1.0000 0.13450  0.56690  0.41920  Biso   1.000  C
  C55      1.0000 0.93310  0.58080  0.63450  Biso   1.000  C
  C56      1.0000 0.86550  0.06690  0.08080  Biso   1.000  C
  C57      1.0000 0.06690  0.08080  0.86550  Biso   1.000  C
  C58      1.0000 0.36550  0.43310  0.91920  Biso   1.000  C
  C59      1.0000 0.43310  0.91920  0.36550  Biso   1.000  C
  C60      1.0000 0.63450  0.93310  0.58080  Biso   1.000  C
  H25      1.0000 0.42970  0.13750  0.50830  Biso   1.000  H
  H26      1.0000 0.07030  0.86250  0.00830  Biso   1.000  H
  H27      1.0000 0.92970  0.36250  0.49170  Biso   1.000  H
  H28      1.0000 0.57030  0.63750  0.99170  Biso   1.000  H
  H29      1.0000 0.50830  0.42970  0.13750  Biso   1.000  H
  H30      1.0000 0.13750  0.50830  0.42970  Biso   1.000  H
  H31      1.0000 0.99170  0.57030  0.63750  Biso   1.000  H
  H32      1.0000 0.86250  0.00830  0.07030  Biso   1.000  H
  H33      1.0000 0.00830  0.07030  0.86250  Biso   1.000  H
  H34      1.0000 0.36250  0.49170  0.92970  Biso   1.000  H
  H35      1.0000 0.49170  0.92970  0.36250  Biso   1.000  H
  H36      1.0000 0.63750  0.99170  0.57030  Biso   1.000  H
  C61      1.0000 0.48690  0.12930  0.62430  Biso   1.000  C
  C62      1.0000 0.01310  0.87070  0.12430  Biso   1.000  C
  C63      1.0000 0.98690  0.37070  0.37570  Biso   1.000  C
  C64      1.0000 0.51310  0.62930  0.87570  Biso   1.000  C
  C65      1.0000 0.62430  0.48690  0.12930  Biso   1.000  C
  C66      1.0000 0.12930  0.62430  0.48690  Biso   1.000  C
  C67      1.0000 0.87570  0.51310  0.62930  Biso   1.000  C
  C68      1.0000 0.87070  0.12430  0.01310  Biso   1.000  C
  C69      1.0000 0.12430  0.01310  0.87070  Biso   1.000  C
  C70      1.0000 0.37070  0.37570  0.98690  Biso   1.000  C
  C71      1.0000 0.37570  0.98690  0.37070  Biso   1.000  C
  C72      1.0000 0.62930  0.87570  0.51310  Biso   1.000  C
  H37      1.0000 0.54300  0.12770  0.60450  Biso   1.000  H
  H38      1.0000 0.95700  0.87230  0.10450  Biso   1.000  H
  H39      1.0000 0.04300  0.37230  0.39550  Biso   1.000  H
  H40      1.0000 0.45700  0.62770  0.89550  Biso   1.000  H
  H41      1.0000 0.60450  0.54300  0.12770  Biso   1.000  H
  H42      1.0000 0.12770  0.60450  0.54300  Biso   1.000  H
  H43      1.0000 0.89550  0.45700  0.62770  Biso   1.000  H
  H44      1.0000 0.87230  0.10450  0.95700  Biso   1.000  H
  H45      1.0000 0.10450  0.95700  0.87230  Biso   1.000  H
  H46      1.0000 0.37230  0.39550  0.04300  Biso   1.000  H
  H47      1.0000 0.39550  0.04300  0.37230  Biso   1.000  H
  H48      1.0000 0.62770  0.89550  0.45700  Biso   1.000  H
  C73      1.0000 0.46990  0.12670  0.71050  Biso   1.000  C
  C74      1.0000 0.03010  0.87330  0.21050  Biso   1.000  C
  C75      1.0000 0.96990  0.37330  0.28950  Biso   1.000  C
  C76      1.0000 0.53010  0.62670  0.78950  Biso   1.000  C
  C77      1.0000 0.71050  0.46990  0.12670  Biso   1.000  C
  C78      1.0000 0.12670  0.71050  0.46990  Biso   1.000  C
  C79      1.0000 0.78950  0.53010  0.62670  Biso   1.000  C
  C80      1.0000 0.87330  0.21050  0.03010  Biso   1.000  C
  C81      1.0000 0.21050  0.03010  0.87330  Biso   1.000  C
  C82      1.0000 0.37330  0.28950  0.96990  Biso   1.000  C
  C83      1.0000 0.28950  0.96990  0.37330  Biso   1.000  C
  C84      1.0000 0.62670  0.78950  0.53010  Biso   1.000  C
  C85      1.0000 0.53700  0.12270  0.77720  Biso   1.000  C
  C86      1.0000 0.96300  0.87730  0.27720  Biso   1.000  C
  C87      1.0000 0.03700  0.37730  0.22280  Biso   1.000  C
  C88      1.0000 0.46300  0.62270  0.72280  Biso   1.000  C
  C89      1.0000 0.77720  0.53700  0.12270  Biso   1.000  C
  C90      1.0000 0.12270  0.77720  0.53700  Biso   1.000  C
  C91      1.0000 0.72280  0.46300  0.62270  Biso   1.000  C
  C92      1.0000 0.87730  0.27720  0.96300  Biso   1.000  C
  C93      1.0000 0.27720  0.96300  0.87730  Biso   1.000  C
  C94      1.0000 0.37730  0.22280  0.03700  Biso   1.000  C
  C95      1.0000 0.22280  0.03700  0.37730  Biso   1.000  C
  C96      1.0000 0.62270  0.72280  0.46300  Biso   1.000  C
  C97      1.0000 0.62360  0.12110  0.75780  Biso   1.000  C
  C98      1.0000 0.87640  0.87890  0.25780  Biso   1.000  C
  C99      1.0000 0.12360  0.37890  0.24220  Biso   1.000  C
  C100     1.0000 0.37640  0.62110  0.74220  Biso   1.000  C
  C101     1.0000 0.75780  0.62360  0.12110  Biso   1.000  C
  C102     1.0000 0.12110  0.75780  0.62360  Biso   1.000  C
  C103     1.0000 0.74220  0.37640  0.62110  Biso   1.000  C
  C104     1.0000 0.87890  0.25780  0.87640  Biso   1.000  C
  C105     1.0000 0.25780  0.87640  0.87890  Biso   1.000  C
  C106     1.0000 0.37890  0.24220  0.12360  Biso   1.000  C
  C107     1.0000 0.24220  0.12360  0.37890  Biso   1.000  C
  C108     1.0000 0.62110  0.74220  0.37640  Biso   1.000  C
  H49      1.0000 0.64220  0.12340  0.70130  Biso   1.000  H
  H50      1.0000 0.85780  0.87660  0.20130  Biso   1.000  H
  H51      1.0000 0.14220  0.37660  0.29870  Biso   1.000  H
  H52      1.0000 0.35780  0.62340  0.79870  Biso   1.000  H
  H53      1.0000 0.70130  0.64220  0.12340  Biso   1.000  H
  H54      1.0000 0.12340  0.70130  0.64220  Biso   1.000  H
  H55      1.0000 0.79870  0.35780  0.62340  Biso   1.000  H
  H56      1.0000 0.87660  0.20130  0.85780  Biso   1.000  H
  H57      1.0000 0.20130  0.85780  0.87660  Biso   1.000  H
  H58      1.0000 0.37660  0.29870  0.14220  Biso   1.000  H
  H59      1.0000 0.29870  0.14220  0.37660  Biso   1.000  H
  H60      1.0000 0.62340  0.79870  0.35780  Biso   1.000  H
  C109     1.0000 0.68200  0.11610  0.82450  Biso   1.000  C
  C110     1.0000 0.81800  0.88390  0.32450  Biso   1.000  C
  C111     1.0000 0.18200  0.38390  0.17550  Biso   1.000  C
  C112     1.0000 0.31800  0.61610  0.67550  Biso   1.000  C
  C113     1.0000 0.82450  0.68200  0.11610  Biso   1.000  C
  C114     1.0000 0.11610  0.82450  0.68200  Biso   1.000  C
  C115     1.0000 0.67550  0.31800  0.61610  Biso   1.000  C
  C116     1.0000 0.88390  0.32450  0.81800  Biso   1.000  C
  C117     1.0000 0.32450  0.81800  0.88390  Biso   1.000  C
  C118     1.0000 0.38390  0.17550  0.18200  Biso   1.000  C
  C119     1.0000 0.17550  0.18200  0.38390  Biso   1.000  C
  C120     1.0000 0.61610  0.67550  0.31800  Biso   1.000  C
  H61      1.0000 0.74040  0.11530  0.81300  Biso   1.000  H
  H62      1.0000 0.75960  0.88470  0.31300  Biso   1.000  H
  H63      1.0000 0.24040  0.38470  0.18700  Biso   1.000  H
  H64      1.0000 0.25960  0.61530  0.68700  Biso   1.000  H
  H65      1.0000 0.81300  0.74040  0.11530  Biso   1.000  H
  H66      1.0000 0.11530  0.81300  0.74040  Biso   1.000  H
  H67      1.0000 0.68700  0.25960  0.61530  Biso   1.000  H
  H68      1.0000 0.88470  0.31300  0.75960  Biso   1.000  H
  H69      1.0000 0.31300  0.75960  0.88470  Biso   1.000  H
  H70      1.0000 0.38470  0.18700  0.24040  Biso   1.000  H
  H71      1.0000 0.18700  0.24040  0.38470  Biso   1.000  H
  H72      1.0000 0.61530  0.68700  0.25960  Biso   1.000  H
  C121     1.0000 0.65330  0.11230  0.90750  Biso   1.000  C
  C122     1.0000 0.84670  0.88770  0.40750  Biso   1.000  C
  C123     1.0000 0.15330  0.38770  0.09250  Biso   1.000  C
  C124     1.0000 0.34670  0.61230  0.59250  Biso   1.000  C
  C125     1.0000 0.90750  0.65330  0.11230  Biso   1.000  C
  C126     1.0000 0.11230  0.90750  0.65330  Biso   1.000  C
  C127     1.0000 0.59250  0.34670  0.61230  Biso   1.000  C
  C128     1.0000 0.88770  0.40750  0.84670  Biso   1.000  C
  C129     1.0000 0.40750  0.84670  0.88770  Biso   1.000  C
  C130     1.0000 0.38770  0.09250  0.15330  Biso   1.000  C
  C131     1.0000 0.09250  0.15330  0.38770  Biso   1.000  C
  C132     1.0000 0.61230  0.59250  0.34670  Biso   1.000  C
  H73      1.0000 0.69160  0.10840  0.95290  Biso   1.000  H
  H74      1.0000 0.80840  0.89160  0.45290  Biso   1.000  H
  H75      1.0000 0.19160  0.39160  0.04710  Biso   1.000  H
  H76      1.0000 0.30840  0.60840  0.54710  Biso   1.000  H
  H77      1.0000 0.95290  0.69160  0.10840  Biso   1.000  H
  H78      1.0000 0.10840  0.95290  0.69160  Biso   1.000  H
  H79      1.0000 0.54710  0.30840  0.60840  Biso   1.000  H
  H80      1.0000 0.89160  0.45290  0.80840  Biso   1.000  H
  H81      1.0000 0.45290  0.80840  0.89160  Biso   1.000  H
  H82      1.0000 0.39160  0.04710  0.19160  Biso   1.000  H
  H83      1.0000 0.04710  0.19160  0.39160  Biso   1.000  H
  H84      1.0000 0.60840  0.54710  0.30840  Biso   1.000  H
  C133     1.0000 0.56710  0.11460  0.92170  Biso   1.000  C
  C134     1.0000 0.93290  0.88540  0.42170  Biso   1.000  C
  C135     1.0000 0.06710  0.38540  0.07830  Biso   1.000  C
  C136     1.0000 0.43290  0.61460  0.57830  Biso   1.000  C
  C137     1.0000 0.92170  0.56710  0.11460  Biso   1.000  C
  C138     1.0000 0.11460  0.92170  0.56710  Biso   1.000  C
  C139     1.0000 0.57830  0.43290  0.61460  Biso   1.000  C
  C140     1.0000 0.88540  0.42170  0.93290  Biso   1.000  C
  C141     1.0000 0.42170  0.93290  0.88540  Biso   1.000  C
  C142     1.0000 0.38540  0.07830  0.06710  Biso   1.000  C
  C143     1.0000 0.07830  0.06710  0.38540  Biso   1.000  C
  C144     1.0000 0.61460  0.57830  0.43290  Biso   1.000  C
  H85      1.0000 0.54760  0.11150  0.97790  Biso   1.000  H
  H86      1.0000 0.95240  0.88850  0.47790  Biso   1.000  H
  H87      1.0000 0.04760  0.38850  0.02210  Biso   1.000  H
  H88      1.0000 0.45240  0.61150  0.52210  Biso   1.000  H
  H89      1.0000 0.97790  0.54760  0.11150  Biso   1.000  H
  H90      1.0000 0.11150  0.97790  0.54760  Biso   1.000  H
  H91      1.0000 0.52210  0.45240  0.61150  Biso   1.000  H
  H92      1.0000 0.88850  0.47790  0.95240  Biso   1.000  H
  H93      1.0000 0.47790  0.95240  0.88850  Biso   1.000  H
  H94      1.0000 0.38850  0.02210  0.04760  Biso   1.000  H
  H95      1.0000 0.02210  0.04760  0.38850  Biso   1.000  H
  H96      1.0000 0.61150  0.52210  0.45240  Biso   1.000  H
