data_image0
_cell_length_a       15.3725
_cell_length_b       15.3725
_cell_length_c       15.3725
_cell_angle_alpha    90
_cell_angle_beta     90
_cell_angle_gamma    90

_symmetry_space_group_name_H-M    "P 1"
_symmetry_int_tables_number       1

loop_
  _symmetry_equiv_pos_as_xyz
  'x, y, z'

loop_
  _atom_site_label
  _atom_site_occupancy
  _atom_site_fract_x
  _atom_site_fract_y
  _atom_site_fract_z
  _atom_site_thermal_displace_type
  _atom_site_B_iso_or_equiv
  _atom_site_type_symbol
  Ru1      1.0000 0.39596  0.10404  0.89596  Biso   1.000  Ru
  Ru2      1.0000 0.10404  0.89596  0.39596  Biso   1.000  Ru
  Ru3      1.0000 0.89596  0.39596  0.10404  Biso   1.000  Ru
  Ru4      1.0000 0.60404  0.60404  0.60404  Biso   1.000  Ru
  Li1      1.0000 0.15180  0.15180  0.15180  Biso   1.000  Li
  Li2      1.0000 0.34820  0.84820  0.65180  Biso   1.000  Li
  Li3      1.0000 0.65180  0.34820  0.84820  Biso   1.000  Li
  Li4      1.0000 0.84820  0.65180  0.34820  Biso   1.000  Li
  O1       1.0000 0.39266  0.11671  0.02829  Biso   1.000  O
  O2       1.0000 0.10734  0.88329  0.52829  Biso   1.000  O
  O3       1.0000 0.89266  0.38329  0.97171  Biso   1.000  O
  O4       1.0000 0.60734  0.61671  0.47171  Biso   1.000  O
  O5       1.0000 0.02829  0.39266  0.11671  Biso   1.000  O
  O6       1.0000 0.11671  0.02829  0.39266  Biso   1.000  O
  O7       1.0000 0.47171  0.60734  0.61671  Biso   1.000  O
  O8       1.0000 0.88329  0.52829  0.10734  Biso   1.000  O
  O9       1.0000 0.52829  0.10734  0.88329  Biso   1.000  O
  O10      1.0000 0.38329  0.97171  0.89266  Biso   1.000  O
  O11      1.0000 0.97171  0.89266  0.38329  Biso   1.000  O
  O12      1.0000 0.61671  0.47171  0.60734  Biso   1.000  O
  O13      1.0000 0.26478  0.11158  0.91126  Biso   1.000  O
  O14      1.0000 0.23522  0.88842  0.41126  Biso   1.000  O
  O15      1.0000 0.76478  0.38842  0.08874  Biso   1.000  O
  O16      1.0000 0.73522  0.61158  0.58874  Biso   1.000  O
  O17      1.0000 0.91126  0.26478  0.11158  Biso   1.000  O
  O18      1.0000 0.11158  0.91126  0.26478  Biso   1.000  O
  O19      1.0000 0.58874  0.73522  0.61158  Biso   1.000  O
  O20      1.0000 0.88842  0.41126  0.23522  Biso   1.000  O
  O21      1.0000 0.41126  0.23522  0.88842  Biso   1.000  O
  O22      1.0000 0.38842  0.08874  0.76478  Biso   1.000  O
  O23      1.0000 0.08874  0.76478  0.38842  Biso   1.000  O
  O24      1.0000 0.61158  0.58874  0.73522  Biso   1.000  O
  O25      1.0000 0.16522  0.13735  0.01428  Biso   1.000  O
  O26      1.0000 0.33478  0.86265  0.51428  Biso   1.000  O
  O27      1.0000 0.66522  0.36265  0.98572  Biso   1.000  O
  O28      1.0000 0.83478  0.63735  0.48572  Biso   1.000  O
  O29      1.0000 0.01428  0.16522  0.13735  Biso   1.000  O
  O30      1.0000 0.13735  0.01428  0.16522  Biso   1.000  O
  O31      1.0000 0.48572  0.83478  0.63735  Biso   1.000  O
  O32      1.0000 0.86265  0.51428  0.33478  Biso   1.000  O
  O33      1.0000 0.51428  0.33478  0.86265  Biso   1.000  O
  O34      1.0000 0.36265  0.98572  0.66522  Biso   1.000  O
  O35      1.0000 0.98572  0.66522  0.36265  Biso   1.000  O
  O36      1.0000 0.63735  0.48572  0.83478  Biso   1.000  O
  O37      1.0000 0.29585  0.14168  0.13508  Biso   1.000  O
  O38      1.0000 0.20415  0.85832  0.63508  Biso   1.000  O
  O39      1.0000 0.79585  0.35832  0.86492  Biso   1.000  O
  O40      1.0000 0.70415  0.64168  0.36492  Biso   1.000  O
  O41      1.0000 0.13508  0.29585  0.14168  Biso   1.000  O
  O42      1.0000 0.14168  0.13508  0.29585  Biso   1.000  O
  O43      1.0000 0.36492  0.70415  0.64168  Biso   1.000  O
  O44      1.0000 0.85832  0.63508  0.20415  Biso   1.000  O
  O45      1.0000 0.63508  0.20415  0.85832  Biso   1.000  O
  O46      1.0000 0.35832  0.86492  0.79585  Biso   1.000  O
  O47      1.0000 0.86492  0.79585  0.35832  Biso   1.000  O
  O48      1.0000 0.64168  0.36492  0.70415  Biso   1.000  O
  C1       1.0000 0.31490  0.12960  0.05950  Biso   1.000  C
  C2       1.0000 0.18510  0.87040  0.55950  Biso   1.000  C
  C3       1.0000 0.81490  0.37040  0.94050  Biso   1.000  C
  C4       1.0000 0.68510  0.62960  0.44050  Biso   1.000  C
  C5       1.0000 0.05950  0.31490  0.12960  Biso   1.000  C
  C6       1.0000 0.12960  0.05950  0.31490  Biso   1.000  C
  C7       1.0000 0.44050  0.68510  0.62960  Biso   1.000  C
  C8       1.0000 0.87040  0.55950  0.18510  Biso   1.000  C
  C9       1.0000 0.55950  0.18510  0.87040  Biso   1.000  C
  C10      1.0000 0.37040  0.94050  0.81490  Biso   1.000  C
  C11      1.0000 0.94050  0.81490  0.37040  Biso   1.000  C
  C12      1.0000 0.62960  0.44050  0.68510  Biso   1.000  C
  C13      1.0000 0.24110  0.12650  0.99080  Biso   1.000  C
  C14      1.0000 0.25890  0.87350  0.49080  Biso   1.000  C
  C15      1.0000 0.74110  0.37350  0.00920  Biso   1.000  C
  C16      1.0000 0.75890  0.62650  0.50920  Biso   1.000  C
  C17      1.0000 0.99080  0.24110  0.12650  Biso   1.000  C
  C18      1.0000 0.12650  0.99080  0.24110  Biso   1.000  C
  C19      1.0000 0.50920  0.75890  0.62650  Biso   1.000  C
  C20      1.0000 0.87350  0.49080  0.25890  Biso   1.000  C
  C21      1.0000 0.49080  0.25890  0.87350  Biso   1.000  C
  C22      1.0000 0.37350  0.00920  0.74110  Biso   1.000  C
  C23      1.0000 0.00920  0.74110  0.37350  Biso   1.000  C
  C24      1.0000 0.62650  0.50920  0.75890  Biso   1.000  C
  Cu1      1.0000 0.12554  0.62554  0.87446  Biso   1.000  Cu
  Cu2      1.0000 0.37446  0.37446  0.37446  Biso   1.000  Cu
  Cu3      1.0000 0.62554  0.87446  0.12554  Biso   1.000  Cu
  Cu4      1.0000 0.87446  0.12554  0.62554  Biso   1.000  Cu
  N1       1.0000 0.13683  0.48937  0.87530  Biso   1.000  N
  N2       1.0000 0.36317  0.51063  0.37530  Biso   1.000  N
  N3       1.0000 0.63683  0.01063  0.12470  Biso   1.000  N
  N4       1.0000 0.86317  0.98937  0.62470  Biso   1.000  N
  N5       1.0000 0.87530  0.13683  0.48937  Biso   1.000  N
  N6       1.0000 0.48937  0.87530  0.13683  Biso   1.000  N
  N7       1.0000 0.62470  0.86317  0.98937  Biso   1.000  N
  N8       1.0000 0.51063  0.37530  0.36317  Biso   1.000  N
  N9       1.0000 0.37530  0.36317  0.51063  Biso   1.000  N
  N10      1.0000 0.01063  0.12470  0.63683  Biso   1.000  N
  N11      1.0000 0.12470  0.63683  0.01063  Biso   1.000  N
  N12      1.0000 0.98937  0.62470  0.86317  Biso   1.000  N
  N13      1.0000 0.26093  0.60790  0.86887  Biso   1.000  N
  N14      1.0000 0.23907  0.39210  0.36887  Biso   1.000  N
  N15      1.0000 0.76093  0.89210  0.13113  Biso   1.000  N
  N16      1.0000 0.73907  0.10790  0.63113  Biso   1.000  N
  N17      1.0000 0.86887  0.26093  0.60790  Biso   1.000  N
  N18      1.0000 0.60790  0.86887  0.26093  Biso   1.000  N
  N19      1.0000 0.63113  0.73907  0.10790  Biso   1.000  N
  N20      1.0000 0.39210  0.36887  0.23907  Biso   1.000  N
  N21      1.0000 0.36887  0.23907  0.39210  Biso   1.000  N
  N22      1.0000 0.89210  0.13113  0.76093  Biso   1.000  N
  N23      1.0000 0.13113  0.76093  0.89210  Biso   1.000  N
  N24      1.0000 0.10790  0.63113  0.73907  Biso   1.000  N
  C25      1.0000 0.06970  0.43230  0.88050  Biso   1.000  C
  C26      1.0000 0.43030  0.56770  0.38050  Biso   1.000  C
  C27      1.0000 0.56970  0.06770  0.11950  Biso   1.000  C
  C28      1.0000 0.93030  0.93230  0.61950  Biso   1.000  C
  C29      1.0000 0.88050  0.06970  0.43230  Biso   1.000  C
  C30      1.0000 0.43230  0.88050  0.06970  Biso   1.000  C
  C31      1.0000 0.61950  0.93030  0.93230  Biso   1.000  C
  C32      1.0000 0.56770  0.38050  0.43030  Biso   1.000  C
  C33      1.0000 0.38050  0.43030  0.56770  Biso   1.000  C
  C34      1.0000 0.06770  0.11950  0.56970  Biso   1.000  C
  C35      1.0000 0.11950  0.56970  0.06770  Biso   1.000  C
  C36      1.0000 0.93230  0.61950  0.93030  Biso   1.000  C
  H1       1.0000 0.01330  0.45420  0.88200  Biso   1.000  H
  H2       1.0000 0.48670  0.54580  0.38200  Biso   1.000  H
  H3       1.0000 0.51330  0.04580  0.11800  Biso   1.000  H
  H4       1.0000 0.98670  0.95420  0.61800  Biso   1.000  H
  H5       1.0000 0.88200  0.01330  0.45420  Biso   1.000  H
  H6       1.0000 0.45420  0.88200  0.01330  Biso   1.000  H
  H7       1.0000 0.61800  0.98670  0.95420  Biso   1.000  H
  H8       1.0000 0.54580  0.38200  0.48670  Biso   1.000  H
  H9       1.0000 0.38200  0.48670  0.54580  Biso   1.000  H
  H10      1.0000 0.04580  0.11800  0.51330  Biso   1.000  H
  H11      1.0000 0.11800  0.51330  0.04580  Biso   1.000  H
  H12      1.0000 0.95420  0.61800  0.98670  Biso   1.000  H
  C37      1.0000 0.08090  0.34400  0.88370  Biso   1.000  C
  C38      1.0000 0.41910  0.65600  0.38370  Biso   1.000  C
  C39      1.0000 0.58090  0.15600  0.11630  Biso   1.000  C
  C40      1.0000 0.91910  0.84400  0.61630  Biso   1.000  C
  C41      1.0000 0.88370  0.08090  0.34400  Biso   1.000  C
  C42      1.0000 0.34400  0.88370  0.08090  Biso   1.000  C
  C43      1.0000 0.61630  0.91910  0.84400  Biso   1.000  C
  C44      1.0000 0.65600  0.38370  0.41910  Biso   1.000  C
  C45      1.0000 0.38370  0.41910  0.65600  Biso   1.000  C
  C46      1.0000 0.15600  0.11630  0.58090  Biso   1.000  C
  C47      1.0000 0.11630  0.58090  0.15600  Biso   1.000  C
  C48      1.0000 0.84400  0.61630  0.91910  Biso   1.000  C
  H13      1.0000 0.03320  0.30690  0.88650  Biso   1.000  H
  H14      1.0000 0.46680  0.69310  0.38650  Biso   1.000  H
  H15      1.0000 0.53320  0.19310  0.11350  Biso   1.000  H
  H16      1.0000 0.96680  0.80690  0.61350  Biso   1.000  H
  H17      1.0000 0.88650  0.03320  0.30690  Biso   1.000  H
  H18      1.0000 0.30690  0.88650  0.03320  Biso   1.000  H
  H19      1.0000 0.61350  0.96680  0.80690  Biso   1.000  H
  H20      1.0000 0.69310  0.38650  0.46680  Biso   1.000  H
  H21      1.0000 0.38650  0.46680  0.69310  Biso   1.000  H
  H22      1.0000 0.19310  0.11350  0.53320  Biso   1.000  H
  H23      1.0000 0.11350  0.53320  0.19310  Biso   1.000  H
  H24      1.0000 0.80690  0.61350  0.96680  Biso   1.000  H
  C49      1.0000 0.16420  0.31100  0.88270  Biso   1.000  C
  C50      1.0000 0.33580  0.68900  0.38270  Biso   1.000  C
  C51      1.0000 0.66420  0.18900  0.11730  Biso   1.000  C
  C52      1.0000 0.83580  0.81100  0.61730  Biso   1.000  C
  C53      1.0000 0.88270  0.16420  0.31100  Biso   1.000  C
  C54      1.0000 0.31100  0.88270  0.16420  Biso   1.000  C
  C55      1.0000 0.61730  0.83580  0.81100  Biso   1.000  C
  C56      1.0000 0.68900  0.38270  0.33580  Biso   1.000  C
  C57      1.0000 0.38270  0.33580  0.68900  Biso   1.000  C
  C58      1.0000 0.18900  0.11730  0.66420  Biso   1.000  C
  C59      1.0000 0.11730  0.66420  0.18900  Biso   1.000  C
  C60      1.0000 0.81100  0.61730  0.83580  Biso   1.000  C
  H25      1.0000 0.17360  0.25130  0.88520  Biso   1.000  H
  H26      1.0000 0.32640  0.74870  0.38520  Biso   1.000  H
  H27      1.0000 0.67360  0.24870  0.11480  Biso   1.000  H
  H28      1.0000 0.82640  0.75130  0.61480  Biso   1.000  H
  H29      1.0000 0.88520  0.17360  0.25130  Biso   1.000  H
  H30      1.0000 0.25130  0.88520  0.17360  Biso   1.000  H
  H31      1.0000 0.61480  0.82640  0.75130  Biso   1.000  H
  H32      1.0000 0.74870  0.38520  0.32640  Biso   1.000  H
  H33      1.0000 0.38520  0.32640  0.74870  Biso   1.000  H
  H34      1.0000 0.24870  0.11480  0.67360  Biso   1.000  H
  H35      1.0000 0.11480  0.67360  0.24870  Biso   1.000  H
  H36      1.0000 0.75130  0.61480  0.82640  Biso   1.000  H
  C61      1.0000 0.23450  0.36890  0.87800  Biso   1.000  C
  C62      1.0000 0.26550  0.63110  0.37800  Biso   1.000  C
  C63      1.0000 0.73450  0.13110  0.12200  Biso   1.000  C
  C64      1.0000 0.76550  0.86890  0.62200  Biso   1.000  C
  C65      1.0000 0.87800  0.23450  0.36890  Biso   1.000  C
  C66      1.0000 0.36890  0.87800  0.23450  Biso   1.000  C
  C67      1.0000 0.62200  0.76550  0.86890  Biso   1.000  C
  C68      1.0000 0.63110  0.37800  0.26550  Biso   1.000  C
  C69      1.0000 0.37800  0.26550  0.63110  Biso   1.000  C
  C70      1.0000 0.13110  0.12200  0.73450  Biso   1.000  C
  C71      1.0000 0.12200  0.73450  0.13110  Biso   1.000  C
  C72      1.0000 0.86890  0.62200  0.76550  Biso   1.000  C
  H37      1.0000 0.29130  0.34790  0.87670  Biso   1.000  H
  H38      1.0000 0.20870  0.65210  0.37670  Biso   1.000  H
  H39      1.0000 0.79130  0.15210  0.12330  Biso   1.000  H
  H40      1.0000 0.70870  0.84790  0.62330  Biso   1.000  H
  H41      1.0000 0.87670  0.29130  0.34790  Biso   1.000  H
  H42      1.0000 0.34790  0.87670  0.29130  Biso   1.000  H
  H43      1.0000 0.62330  0.70870  0.84790  Biso   1.000  H
  H44      1.0000 0.65210  0.37670  0.20870  Biso   1.000  H
  H45      1.0000 0.37670  0.20870  0.65210  Biso   1.000  H
  H46      1.0000 0.15210  0.12330  0.79130  Biso   1.000  H
  H47      1.0000 0.12330  0.79130  0.15210  Biso   1.000  H
  H48      1.0000 0.84790  0.62330  0.70870  Biso   1.000  H
  C73      1.0000 0.21860  0.45820  0.87530  Biso   1.000  C
  C74      1.0000 0.28140  0.54180  0.37530  Biso   1.000  C
  C75      1.0000 0.71860  0.04180  0.12470  Biso   1.000  C
  C76      1.0000 0.78140  0.95820  0.62470  Biso   1.000  C
  C77      1.0000 0.87530  0.21860  0.45820  Biso   1.000  C
  C78      1.0000 0.45820  0.87530  0.21860  Biso   1.000  C
  C79      1.0000 0.62470  0.78140  0.95820  Biso   1.000  C
  C80      1.0000 0.54180  0.37530  0.28140  Biso   1.000  C
  C81      1.0000 0.37530  0.28140  0.54180  Biso   1.000  C
  C82      1.0000 0.04180  0.12470  0.71860  Biso   1.000  C
  C83      1.0000 0.12470  0.71860  0.04180  Biso   1.000  C
  C84      1.0000 0.95820  0.62470  0.78140  Biso   1.000  C
  C85      1.0000 0.28880  0.52490  0.87260  Biso   1.000  C
  C86      1.0000 0.21120  0.47510  0.37260  Biso   1.000  C
  C87      1.0000 0.78880  0.97510  0.12740  Biso   1.000  C
  C88      1.0000 0.71120  0.02490  0.62740  Biso   1.000  C
  C89      1.0000 0.87260  0.28880  0.52490  Biso   1.000  C
  C90      1.0000 0.52490  0.87260  0.28880  Biso   1.000  C
  C91      1.0000 0.62740  0.71120  0.02490  Biso   1.000  C
  C92      1.0000 0.47510  0.37260  0.21120  Biso   1.000  C
  C93      1.0000 0.37260  0.21120  0.47510  Biso   1.000  C
  C94      1.0000 0.97510  0.12740  0.78880  Biso   1.000  C
  C95      1.0000 0.12740  0.78880  0.97510  Biso   1.000  C
  C96      1.0000 0.02490  0.62740  0.71120  Biso   1.000  C
  C97      1.0000 0.37660  0.50490  0.87250  Biso   1.000  C
  C98      1.0000 0.12340  0.49510  0.37250  Biso   1.000  C
  C99      1.0000 0.87660  0.99510  0.12750  Biso   1.000  C
  C100     1.0000 0.62340  0.00490  0.62750  Biso   1.000  C
  C101     1.0000 0.87250  0.37660  0.50490  Biso   1.000  C
  C102     1.0000 0.50490  0.87250  0.37660  Biso   1.000  C
  C103     1.0000 0.62750  0.62340  0.00490  Biso   1.000  C
  C104     1.0000 0.49510  0.37250  0.12340  Biso   1.000  C
  C105     1.0000 0.37250  0.12340  0.49510  Biso   1.000  C
  C106     1.0000 0.99510  0.12750  0.87660  Biso   1.000  C
  C107     1.0000 0.12750  0.87660  0.99510  Biso   1.000  C
  C108     1.0000 0.00490  0.62750  0.62340  Biso   1.000  C
  H49      1.0000 0.39500  0.44730  0.87550  Biso   1.000  H
  H50      1.0000 0.10500  0.55270  0.37550  Biso   1.000  H
  H51      1.0000 0.89500  0.05270  0.12450  Biso   1.000  H
  H52      1.0000 0.60500  0.94730  0.62450  Biso   1.000  H
  H53      1.0000 0.87550  0.39500  0.44730  Biso   1.000  H
  H54      1.0000 0.44730  0.87550  0.39500  Biso   1.000  H
  H55      1.0000 0.62450  0.60500  0.94730  Biso   1.000  H
  H56      1.0000 0.55270  0.37550  0.10500  Biso   1.000  H
  H57      1.0000 0.37550  0.10500  0.55270  Biso   1.000  H
  H58      1.0000 0.05270  0.12450  0.89500  Biso   1.000  H
  H59      1.0000 0.12450  0.89500  0.05270  Biso   1.000  H
  H60      1.0000 0.94730  0.62450  0.60500  Biso   1.000  H
  C109     1.0000 0.43610  0.57120  0.86810  Biso   1.000  C
  C110     1.0000 0.06390  0.42880  0.36810  Biso   1.000  C
  C111     1.0000 0.93610  0.92880  0.13190  Biso   1.000  C
  C112     1.0000 0.56390  0.07120  0.63190  Biso   1.000  C
  C113     1.0000 0.86810  0.43610  0.57120  Biso   1.000  C
  C114     1.0000 0.57120  0.86810  0.43610  Biso   1.000  C
  C115     1.0000 0.63190  0.56390  0.07120  Biso   1.000  C
  C116     1.0000 0.42880  0.36810  0.06390  Biso   1.000  C
  C117     1.0000 0.36810  0.06390  0.42880  Biso   1.000  C
  C118     1.0000 0.92880  0.13190  0.93610  Biso   1.000  C
  C119     1.0000 0.13190  0.93610  0.92880  Biso   1.000  C
  C120     1.0000 0.07120  0.63190  0.56390  Biso   1.000  C
  H61      1.0000 0.49530  0.55890  0.86800  Biso   1.000  H
  H62      1.0000 0.00470  0.44110  0.36800  Biso   1.000  H
  H63      1.0000 0.99530  0.94110  0.13200  Biso   1.000  H
  H64      1.0000 0.50470  0.05890  0.63200  Biso   1.000  H
  H65      1.0000 0.86800  0.49530  0.55890  Biso   1.000  H
  H66      1.0000 0.55890  0.86800  0.49530  Biso   1.000  H
  H67      1.0000 0.63200  0.50470  0.05890  Biso   1.000  H
  H68      1.0000 0.44110  0.36800  0.00470  Biso   1.000  H
  H69      1.0000 0.36800  0.00470  0.44110  Biso   1.000  H
  H70      1.0000 0.94110  0.13200  0.99530  Biso   1.000  H
  H71      1.0000 0.13200  0.99530  0.94110  Biso   1.000  H
  H72      1.0000 0.05890  0.63200  0.50470  Biso   1.000  H
  C121     1.0000 0.40850  0.65500  0.86370  Biso   1.000  C
  C122     1.0000 0.09150  0.34500  0.36370  Biso   1.000  C
  C123     1.0000 0.90850  0.84500  0.13630  Biso   1.000  C
  C124     1.0000 0.59150  0.15500  0.63630  Biso   1.000  C
  C125     1.0000 0.86370  0.40850  0.65500  Biso   1.000  C
  C126     1.0000 0.65500  0.86370  0.40850  Biso   1.000  C
  C127     1.0000 0.63630  0.59150  0.15500  Biso   1.000  C
  C128     1.0000 0.34500  0.36370  0.09150  Biso   1.000  C
  C129     1.0000 0.36370  0.09150  0.34500  Biso   1.000  C
  C130     1.0000 0.84500  0.13630  0.90850  Biso   1.000  C
  C131     1.0000 0.13630  0.90850  0.84500  Biso   1.000  C
  C132     1.0000 0.15500  0.63630  0.59150  Biso   1.000  C
  H73      1.0000 0.44830  0.70040  0.86020  Biso   1.000  H
  H74      1.0000 0.05170  0.29960  0.36020  Biso   1.000  H
  H75      1.0000 0.94830  0.79960  0.13980  Biso   1.000  H
  H76      1.0000 0.55170  0.20040  0.63980  Biso   1.000  H
  H77      1.0000 0.86020  0.44830  0.70040  Biso   1.000  H
  H78      1.0000 0.70040  0.86020  0.44830  Biso   1.000  H
  H79      1.0000 0.63980  0.55170  0.20040  Biso   1.000  H
  H80      1.0000 0.29960  0.36020  0.05170  Biso   1.000  H
  H81      1.0000 0.36020  0.05170  0.29960  Biso   1.000  H
  H82      1.0000 0.79960  0.13980  0.94830  Biso   1.000  H
  H83      1.0000 0.13980  0.94830  0.79960  Biso   1.000  H
  H84      1.0000 0.20040  0.63980  0.55170  Biso   1.000  H
  C133     1.0000 0.31960  0.67160  0.86440  Biso   1.000  C
  C134     1.0000 0.18040  0.32840  0.36440  Biso   1.000  C
  C135     1.0000 0.81960  0.82840  0.13560  Biso   1.000  C
  C136     1.0000 0.68040  0.17160  0.63560  Biso   1.000  C
  C137     1.0000 0.86440  0.31960  0.67160  Biso   1.000  C
  C138     1.0000 0.67160  0.86440  0.31960  Biso   1.000  C
  C139     1.0000 0.63560  0.68040  0.17160  Biso   1.000  C
  C140     1.0000 0.32840  0.36440  0.18040  Biso   1.000  C
  C141     1.0000 0.36440  0.18040  0.32840  Biso   1.000  C
  C142     1.0000 0.82840  0.13560  0.81960  Biso   1.000  C
  C143     1.0000 0.13560  0.81960  0.82840  Biso   1.000  C
  C144     1.0000 0.17160  0.63560  0.68040  Biso   1.000  C
  H85      1.0000 0.30050  0.72900  0.86170  Biso   1.000  H
  H86      1.0000 0.19950  0.27100  0.36170  Biso   1.000  H
  H87      1.0000 0.80050  0.77100  0.13830  Biso   1.000  H
  H88      1.0000 0.69950  0.22900  0.63830  Biso   1.000  H
  H89      1.0000 0.86170  0.30050  0.72900  Biso   1.000  H
  H90      1.0000 0.72900  0.86170  0.30050  Biso   1.000  H
  H91      1.0000 0.63830  0.69950  0.22900  Biso   1.000  H
  H92      1.0000 0.27100  0.36170  0.19950  Biso   1.000  H
  H93      1.0000 0.36170  0.19950  0.27100  Biso   1.000  H
  H94      1.0000 0.77100  0.13830  0.80050  Biso   1.000  H
  H95      1.0000 0.13830  0.80050  0.77100  Biso   1.000  H
  H96      1.0000 0.22900  0.63830  0.69950  Biso   1.000  H
