data_image0
_cell_length_a       11.03
_cell_length_b       9.548
_cell_length_c       19.79
_cell_angle_alpha    90
_cell_angle_beta     97.21
_cell_angle_gamma    90

_symmetry_space_group_name_H-M    "P 1"
_symmetry_int_tables_number       1

loop_
  _symmetry_equiv_pos_as_xyz
  'x, y, z'

loop_
  _atom_site_label
  _atom_site_occupancy
  _atom_site_fract_x
  _atom_site_fract_y
  _atom_site_fract_z
  _atom_site_thermal_displace_type
  _atom_site_B_iso_or_equiv
  _atom_site_type_symbol
  Br1      1.0000 0.85900  0.25280  0.56860  Biso   1.000  Br
  Br2      1.0000 0.35900  0.24720  0.06860  Biso   1.000  Br
  Br3      1.0000 0.14100  0.74720  0.43140  Biso   1.000  Br
  Br4      1.0000 0.64100  0.75280  0.93140  Biso   1.000  Br
  Cu1      1.0000 0.54720  0.61220  0.22469  Biso   1.000  Cu
  Cu2      1.0000 0.04720  0.88780  0.72469  Biso   1.000  Cu
  Cu3      1.0000 0.45280  0.38780  0.77531  Biso   1.000  Cu
  Cu4      1.0000 0.95280  0.11220  0.27531  Biso   1.000  Cu
  Cl1      1.0000 0.40680  0.56380  0.13700  Biso   1.000  Cl
  Cl2      1.0000 0.90680  0.93620  0.63700  Biso   1.000  Cl
  Cl3      1.0000 0.59320  0.43620  0.86300  Biso   1.000  Cl
  Cl4      1.0000 0.09320  0.06380  0.36300  Biso   1.000  Cl
  Cl5      1.0000 0.55910  0.83950  0.20420  Biso   1.000  Cl
  Cl6      1.0000 0.05910  0.66050  0.70420  Biso   1.000  Cl
  Cl7      1.0000 0.44090  0.16050  0.79580  Biso   1.000  Cl
  Cl8      1.0000 0.94090  0.33950  0.29580  Biso   1.000  Cl
  O1       1.0000 0.82440  0.92390  0.31450  Biso   1.000  O
  O2       1.0000 0.32440  0.57610  0.81450  Biso   1.000  O
  O3       1.0000 0.17560  0.07610  0.68550  Biso   1.000  O
  O4       1.0000 0.67560  0.42390  0.18550  Biso   1.000  O
  N1       1.0000 0.79830  0.79870  0.40930  Biso   1.000  N
  N2       1.0000 0.29830  0.70130  0.90930  Biso   1.000  N
  N3       1.0000 0.20170  0.20130  0.59070  Biso   1.000  N
  N4       1.0000 0.70170  0.29870  0.09070  Biso   1.000  N
  N5       1.0000 0.68800  0.61620  0.30330  Biso   1.000  N
  N6       1.0000 0.18800  0.88380  0.80330  Biso   1.000  N
  N7       1.0000 0.31200  0.38380  0.69670  Biso   1.000  N
  N8       1.0000 0.81200  0.11620  0.19670  Biso   1.000  N
  N9       1.0000 0.47180  0.48900  0.29250  Biso   1.000  N
  N10      1.0000 0.97180  0.01100  0.79250  Biso   1.000  N
  N11      1.0000 0.52820  0.51100  0.70750  Biso   1.000  N
  N12      1.0000 0.02820  0.98900  0.20750  Biso   1.000  N
  C1       1.0000 0.81310  0.81100  0.34130  Biso   1.000  C
  C2       1.0000 0.31310  0.68900  0.84130  Biso   1.000  C
  C3       1.0000 0.18690  0.18900  0.65870  Biso   1.000  C
  C4       1.0000 0.68690  0.31100  0.15870  Biso   1.000  C
  C5       1.0000 0.81170  0.67300  0.30220  Biso   1.000  C
  C6       1.0000 0.31170  0.82700  0.80220  Biso   1.000  C
  C7       1.0000 0.18830  0.32700  0.69780  Biso   1.000  C
  C8       1.0000 0.68830  0.17300  0.19780  Biso   1.000  C
  C9       1.0000 0.66100  0.55000  0.35750  Biso   1.000  C
  C10      1.0000 0.16100  0.95000  0.85750  Biso   1.000  C
  C11      1.0000 0.33900  0.45000  0.64250  Biso   1.000  C
  C12      1.0000 0.83900  0.05000  0.14250  Biso   1.000  C
  C13      1.0000 0.76540  0.42700  0.45880  Biso   1.000  C
  C14      1.0000 0.26540  0.07300  0.95880  Biso   1.000  C
  C15      1.0000 0.23460  0.57300  0.54120  Biso   1.000  C
  C16      1.0000 0.73460  0.92700  0.04120  Biso   1.000  C
  C17      1.0000 0.83810  0.42700  0.51900  Biso   1.000  C
  C18      1.0000 0.33810  0.07300  0.01900  Biso   1.000  C
  C19      1.0000 0.16190  0.57300  0.48100  Biso   1.000  C
  C20      1.0000 0.66190  0.92700  0.98100  Biso   1.000  C
  C21      1.0000 0.89000  0.54400  0.54780  Biso   1.000  C
  C22      1.0000 0.39000  0.95600  0.04780  Biso   1.000  C
  C23      1.0000 0.11000  0.45600  0.45220  Biso   1.000  C
  C24      1.0000 0.61000  0.04400  0.95220  Biso   1.000  C
  C25      1.0000 0.87950  0.66400  0.50870  Biso   1.000  C
  C26      1.0000 0.37950  0.83600  0.00870  Biso   1.000  C
  C27      1.0000 0.12050  0.33600  0.49130  Biso   1.000  C
  C28      1.0000 0.62050  0.16400  0.99130  Biso   1.000  C
  C29      1.0000 0.80310  0.93100  0.44800  Biso   1.000  C
  C30      1.0000 0.30310  0.56900  0.94800  Biso   1.000  C
  C31      1.0000 0.19690  0.06900  0.55200  Biso   1.000  C
  C32      1.0000 0.69690  0.43100  0.05200  Biso   1.000  C
  C33      1.0000 0.84900  0.68500  0.23040  Biso   1.000  C
  C34      1.0000 0.34900  0.81500  0.73040  Biso   1.000  C
  C35      1.0000 0.15100  0.31500  0.76960  Biso   1.000  C
  C36      1.0000 0.65100  0.18500  0.26960  Biso   1.000  C
  C37      1.0000 0.54030  0.48200  0.35460  Biso   1.000  C
  C38      1.0000 0.04030  0.01800  0.85460  Biso   1.000  C
  C39      1.0000 0.45970  0.51800  0.64540  Biso   1.000  C
  C40      1.0000 0.95970  0.98200  0.14540  Biso   1.000  C
  C41      1.0000 0.36400  0.43000  0.28450  Biso   1.000  C
  C42      1.0000 0.86400  0.07000  0.78450  Biso   1.000  C
  C43      1.0000 0.63600  0.57000  0.71550  Biso   1.000  C
  C44      1.0000 0.13600  0.93000  0.21550  Biso   1.000  C
  C45      1.0000 0.31100  0.36000  0.33470  Biso   1.000  C
  C46      1.0000 0.81100  0.14000  0.83470  Biso   1.000  C
  C47      1.0000 0.68900  0.64000  0.66530  Biso   1.000  C
  C48      1.0000 0.18900  0.86000  0.16530  Biso   1.000  C
  C49      1.0000 0.37900  0.36200  0.39730  Biso   1.000  C
  C50      1.0000 0.87900  0.13800  0.89730  Biso   1.000  C
  C51      1.0000 0.62100  0.63800  0.60270  Biso   1.000  C
  C52      1.0000 0.12100  0.86200  0.10270  Biso   1.000  C
  C53      1.0000 0.49080  0.42400  0.40840  Biso   1.000  C
  C54      1.0000 0.99080  0.07600  0.90840  Biso   1.000  C
  C55      1.0000 0.50920  0.57600  0.59160  Biso   1.000  C
  C56      1.0000 0.00920  0.92400  0.09160  Biso   1.000  C
  C57      1.0000 0.74900  0.55000  0.42000  Biso   1.000  C
  C58      1.0000 0.24900  0.95000  0.92000  Biso   1.000  C
  C59      1.0000 0.25100  0.45000  0.58000  Biso   1.000  C
  C60      1.0000 0.75100  0.05000  0.08000  Biso   1.000  C
  C61      1.0000 0.80650  0.67400  0.44550  Biso   1.000  C
  C62      1.0000 0.30650  0.82600  0.94550  Biso   1.000  C
  C63      1.0000 0.19350  0.32600  0.55450  Biso   1.000  C
  C64      1.0000 0.69350  0.17400  0.05450  Biso   1.000  C
  O5       1.0000 0.99900  0.27600  0.04730  Biso   1.000  O
  O6       1.0000 0.49900  0.22400  0.54730  Biso   1.000  O
  O7       1.0000 0.00100  0.72400  0.95270  Biso   1.000  O
  O8       1.0000 0.50100  0.77600  0.45270  Biso   1.000  O
  O9       1.0000 0.03100  0.35700  0.08310  Biso   1.000  O
  O10      1.0000 0.53100  0.14300  0.58310  Biso   1.000  O
  O11      1.0000 0.96900  0.64300  0.91690  Biso   1.000  O
  O12      1.0000 0.46900  0.85700  0.41690  Biso   1.000  O
  C65      1.0000 0.07300  0.46100  0.13400  Biso   1.000  C
  C66      1.0000 0.57300  0.03900  0.63400  Biso   1.000  C
  C67      1.0000 0.92700  0.53900  0.86600  Biso   1.000  C
  C68      1.0000 0.42700  0.96100  0.36600  Biso   1.000  C
  H1       1.0000 0.86932  0.60949  0.32838  Biso   1.000  H
  H2       1.0000 0.36932  0.89051  0.82838  Biso   1.000  H
  H3       1.0000 0.13068  0.39051  0.67162  Biso   1.000  H
  H4       1.0000 0.63068  0.10949  0.17162  Biso   1.000  H
  H5       1.0000 0.72601  0.34499  0.44305  Biso   1.000  H
  H6       1.0000 0.22601  0.15501  0.94305  Biso   1.000  H
  H7       1.0000 0.27399  0.65501  0.55695  Biso   1.000  H
  H8       1.0000 0.77399  0.84499  0.05695  Biso   1.000  H
  H9       1.0000 0.93082  0.54382  0.59186  Biso   1.000  H
  H10      1.0000 0.43082  0.95618  0.09186  Biso   1.000  H
  H11      1.0000 0.06918  0.45618  0.40814  Biso   1.000  H
  H12      1.0000 0.56918  0.04382  0.90814  Biso   1.000  H
  H13      1.0000 0.92323  0.74290  0.52523  Biso   1.000  H
  H14      1.0000 0.42323  0.75710  0.02523  Biso   1.000  H
  H15      1.0000 0.07677  0.25710  0.47477  Biso   1.000  H
  H16      1.0000 0.57677  0.24290  0.97477  Biso   1.000  H
  H17      1.0000 0.76014  0.00246  0.42062  Biso   1.000  H
  H18      1.0000 0.26014  0.49754  0.92062  Biso   1.000  H
  H19      1.0000 0.23986  0.99754  0.57938  Biso   1.000  H
  H20      1.0000 0.73986  0.50246  0.07938  Biso   1.000  H
  H21      1.0000 0.76545  0.91761  0.48875  Biso   1.000  H
  H22      1.0000 0.26545  0.58239  0.98875  Biso   1.000  H
  H23      1.0000 0.23455  0.08239  0.51125  Biso   1.000  H
  H24      1.0000 0.73455  0.41761  0.01125  Biso   1.000  H
  H25      1.0000 0.88670  0.95847  0.45992  Biso   1.000  H
  H26      1.0000 0.38670  0.54153  0.95992  Biso   1.000  H
  H27      1.0000 0.11330  0.04153  0.54008  Biso   1.000  H
  H28      1.0000 0.61330  0.45847  0.04008  Biso   1.000  H
  H29      1.0000 0.85011  0.78174  0.21735  Biso   1.000  H
  H30      1.0000 0.35011  0.71826  0.71735  Biso   1.000  H
  H31      1.0000 0.14989  0.21826  0.78265  Biso   1.000  H
  H32      1.0000 0.64989  0.28174  0.28265  Biso   1.000  H
  H33      1.0000 0.92888  0.64539  0.22995  Biso   1.000  H
  H34      1.0000 0.42888  0.85461  0.72995  Biso   1.000  H
  H35      1.0000 0.07112  0.35461  0.77005  Biso   1.000  H
  H36      1.0000 0.57112  0.14539  0.27005  Biso   1.000  H
  H37      1.0000 0.79127  0.63504  0.19887  Biso   1.000  H
  H38      1.0000 0.29127  0.86496  0.69887  Biso   1.000  H
  H39      1.0000 0.20873  0.36496  0.80113  Biso   1.000  H
  H40      1.0000 0.70873  0.13504  0.30113  Biso   1.000  H
  H41      1.0000 0.31886  0.43621  0.24162  Biso   1.000  H
  H42      1.0000 0.81886  0.06379  0.74162  Biso   1.000  H
  H43      1.0000 0.68114  0.56379  0.75838  Biso   1.000  H
  H44      1.0000 0.18114  0.93621  0.25838  Biso   1.000  H
  H45      1.0000 0.23604  0.31541  0.32645  Biso   1.000  H
  H46      1.0000 0.73604  0.18459  0.82645  Biso   1.000  H
  H47      1.0000 0.76396  0.68459  0.67355  Biso   1.000  H
  H48      1.0000 0.26396  0.81541  0.17355  Biso   1.000  H
  H49      1.0000 0.34767  0.31984  0.43371  Biso   1.000  H
  H50      1.0000 0.84767  0.18016  0.93371  Biso   1.000  H
  H51      1.0000 0.65233  0.68016  0.56629  Biso   1.000  H
  H52      1.0000 0.15233  0.81984  0.06629  Biso   1.000  H
  H53      1.0000 0.53341  0.42665  0.45205  Biso   1.000  H
  H54      1.0000 0.03341  0.07335  0.95205  Biso   1.000  H
  H55      1.0000 0.46659  0.57335  0.54795  Biso   1.000  H
  H56      1.0000 0.96659  0.92665  0.04795  Biso   1.000  H
