data_image0
_cell_length_a       36.735
_cell_length_b       5.825
_cell_length_c       22.634
_cell_angle_alpha    90
_cell_angle_beta     113.94
_cell_angle_gamma    90

_symmetry_space_group_name_H-M    "P 1"
_symmetry_int_tables_number       1

loop_
  _symmetry_equiv_pos_as_xyz
  'x, y, z'

loop_
  _atom_site_label
  _atom_site_occupancy
  _atom_site_fract_x
  _atom_site_fract_y
  _atom_site_fract_z
  _atom_site_thermal_displace_type
  _atom_site_B_iso_or_equiv
  _atom_site_type_symbol
  C1       1.0000 0.34861  0.07880  0.49300  Biso   1.000  C
  C2       1.0000 0.84861  0.57880  0.49300  Biso   1.000  C
  C3       1.0000 0.65139  0.07880  0.00700  Biso   1.000  C
  C4       1.0000 0.15139  0.57880  0.00700  Biso   1.000  C
  C5       1.0000 0.65139  0.92120  0.50700  Biso   1.000  C
  C6       1.0000 0.15139  0.42120  0.50700  Biso   1.000  C
  C7       1.0000 0.34861  0.92120  0.99300  Biso   1.000  C
  C8       1.0000 0.84861  0.42120  0.99300  Biso   1.000  C
  C9       1.0000 0.30797  0.04430  0.46066  Biso   1.000  C
  C10      1.0000 0.80797  0.54430  0.46066  Biso   1.000  C
  C11      1.0000 0.69203  0.04430  0.03934  Biso   1.000  C
  C12      1.0000 0.19203  0.54430  0.03934  Biso   1.000  C
  C13      1.0000 0.69203  0.95570  0.53934  Biso   1.000  C
  C14      1.0000 0.19203  0.45570  0.53934  Biso   1.000  C
  C15      1.0000 0.30797  0.95570  0.96066  Biso   1.000  C
  C16      1.0000 0.80797  0.45570  0.96066  Biso   1.000  C
  C17      1.0000 0.28585  0.18110  0.40837  Biso   1.000  C
  C18      1.0000 0.78585  0.68110  0.40837  Biso   1.000  C
  C19      1.0000 0.71415  0.18110  0.09163  Biso   1.000  C
  C20      1.0000 0.21415  0.68110  0.09163  Biso   1.000  C
  C21      1.0000 0.71415  0.81890  0.59163  Biso   1.000  C
  C22      1.0000 0.21415  0.31890  0.59163  Biso   1.000  C
  C23      1.0000 0.28585  0.81890  0.90837  Biso   1.000  C
  C24      1.0000 0.78585  0.31890  0.90837  Biso   1.000  C
  C25      1.0000 0.30454  0.34970  0.38722  Biso   1.000  C
  C26      1.0000 0.80454  0.84970  0.38722  Biso   1.000  C
  C27      1.0000 0.69546  0.34970  0.11278  Biso   1.000  C
  C28      1.0000 0.19546  0.84970  0.11278  Biso   1.000  C
  C29      1.0000 0.69546  0.65030  0.61278  Biso   1.000  C
  C30      1.0000 0.19546  0.15030  0.61278  Biso   1.000  C
  C31      1.0000 0.30454  0.65030  0.88722  Biso   1.000  C
  C32      1.0000 0.80454  0.15030  0.88722  Biso   1.000  C
  C33      1.0000 0.34537  0.38630  0.42049  Biso   1.000  C
  C34      1.0000 0.84537  0.88630  0.42049  Biso   1.000  C
  C35      1.0000 0.65463  0.38630  0.07951  Biso   1.000  C
  C36      1.0000 0.15463  0.88630  0.07951  Biso   1.000  C
  C37      1.0000 0.65463  0.61370  0.57951  Biso   1.000  C
  C38      1.0000 0.15463  0.11370  0.57951  Biso   1.000  C
  C39      1.0000 0.34537  0.61370  0.92049  Biso   1.000  C
  C40      1.0000 0.84537  0.11370  0.92049  Biso   1.000  C
  C41      1.0000 0.36748  0.25330  0.47389  Biso   1.000  C
  C42      1.0000 0.86748  0.75330  0.47389  Biso   1.000  C
  C43      1.0000 0.63252  0.25330  0.02611  Biso   1.000  C
  C44      1.0000 0.13252  0.75330  0.02611  Biso   1.000  C
  C45      1.0000 0.63252  0.74670  0.52611  Biso   1.000  C
  C46      1.0000 0.13252  0.24670  0.52611  Biso   1.000  C
  C47      1.0000 0.36748  0.74670  0.97389  Biso   1.000  C
  C48      1.0000 0.86748  0.24670  0.97389  Biso   1.000  C
  C49      1.0000 0.41117  0.30270  0.51321  Biso   1.000  C
  C50      1.0000 0.91117  0.80270  0.51321  Biso   1.000  C
  C51      1.0000 0.58883  0.30270  0.98679  Biso   1.000  C
  C52      1.0000 0.08883  0.80270  0.98679  Biso   1.000  C
  C53      1.0000 0.58883  0.69730  0.48679  Biso   1.000  C
  C54      1.0000 0.08883  0.19730  0.48679  Biso   1.000  C
  C55      1.0000 0.41117  0.69730  0.01321  Biso   1.000  C
  C56      1.0000 0.91117  0.19730  0.01321  Biso   1.000  C
  C57      1.0000 0.43744  0.09400  0.53397  Biso   1.000  C
  C58      1.0000 0.93744  0.59400  0.53397  Biso   1.000  C
  C59      1.0000 0.56256  0.09400  0.96603  Biso   1.000  C
  C60      1.0000 0.06256  0.59400  0.96603  Biso   1.000  C
  C61      1.0000 0.56256  0.90600  0.46603  Biso   1.000  C
  C62      1.0000 0.06256  0.40600  0.46603  Biso   1.000  C
  C63      1.0000 0.43744  0.90600  0.03397  Biso   1.000  C
  C64      1.0000 0.93744  0.40600  0.03397  Biso   1.000  C
  C65      1.0000 0.45491  0.02500  0.59638  Biso   1.000  C
  C66      1.0000 0.95491  0.52500  0.59638  Biso   1.000  C
  C67      1.0000 0.54509  0.02500  0.90362  Biso   1.000  C
  C68      1.0000 0.04509  0.52500  0.90362  Biso   1.000  C
  C69      1.0000 0.54509  0.97500  0.40362  Biso   1.000  C
  C70      1.0000 0.04509  0.47500  0.40362  Biso   1.000  C
  C71      1.0000 0.45491  0.97500  0.09638  Biso   1.000  C
  C72      1.0000 0.95491  0.47500  0.09638  Biso   1.000  C
  N1       1.0000 0.47927  0.83930  0.61354  Biso   1.000  N
  N2       1.0000 0.97927  0.33930  0.61354  Biso   1.000  N
  N3       1.0000 0.52073  0.83930  0.88646  Biso   1.000  N
  N4       1.0000 0.02073  0.33930  0.88646  Biso   1.000  N
  N5       1.0000 0.52073  0.16070  0.38646  Biso   1.000  N
  N6       1.0000 0.02073  0.66070  0.38646  Biso   1.000  N
  N7       1.0000 0.47927  0.16070  0.11354  Biso   1.000  N
  N8       1.0000 0.97927  0.66070  0.11354  Biso   1.000  N
  H1       1.0000 0.48960  0.79610  0.65330  Biso   1.000  H
  H2       1.0000 0.98960  0.29610  0.65330  Biso   1.000  H
  H3       1.0000 0.51040  0.79610  0.84670  Biso   1.000  H
  H4       1.0000 0.01040  0.29610  0.84670  Biso   1.000  H
  H5       1.0000 0.51040  0.20390  0.34670  Biso   1.000  H
  H6       1.0000 0.01040  0.70390  0.34670  Biso   1.000  H
  H7       1.0000 0.48960  0.20390  0.15330  Biso   1.000  H
  H8       1.0000 0.98960  0.70390  0.15330  Biso   1.000  H
  C73      1.0000 0.48752  0.72190  0.56945  Biso   1.000  C
  C74      1.0000 0.98752  0.22190  0.56945  Biso   1.000  C
  C75      1.0000 0.51248  0.72190  0.93055  Biso   1.000  C
  C76      1.0000 0.01248  0.22190  0.93055  Biso   1.000  C
  C77      1.0000 0.51248  0.27810  0.43055  Biso   1.000  C
  C78      1.0000 0.01248  0.77810  0.43055  Biso   1.000  C
  C79      1.0000 0.48752  0.27810  0.06945  Biso   1.000  C
  C80      1.0000 0.98752  0.77810  0.06945  Biso   1.000  C
  N9       1.0000 0.47103  0.77570  0.50670  Biso   1.000  N
  N10      1.0000 0.97103  0.27570  0.50670  Biso   1.000  N
  N11      1.0000 0.52897  0.77570  0.99330  Biso   1.000  N
  N12      1.0000 0.02897  0.27570  0.99330  Biso   1.000  N
  N13      1.0000 0.52897  0.22430  0.49330  Biso   1.000  N
  N14      1.0000 0.02897  0.72430  0.49330  Biso   1.000  N
  N15      1.0000 0.47103  0.22430  0.00670  Biso   1.000  N
  N16      1.0000 0.97103  0.72430  0.00670  Biso   1.000  N
  C81      1.0000 0.44581  0.95640  0.48870  Biso   1.000  C
  C82      1.0000 0.94581  0.45640  0.48870  Biso   1.000  C
  C83      1.0000 0.55419  0.95640  0.01130  Biso   1.000  C
  C84      1.0000 0.05419  0.45640  0.01130  Biso   1.000  C
  C85      1.0000 0.55419  0.04360  0.51130  Biso   1.000  C
  C86      1.0000 0.05419  0.54360  0.51130  Biso   1.000  C
  C87      1.0000 0.44581  0.04360  0.98870  Biso   1.000  C
  C88      1.0000 0.94581  0.54360  0.98870  Biso   1.000  C
  O1       1.0000 0.28688  0.88100  0.47650  Biso   1.000  O
  O2       1.0000 0.78688  0.38100  0.47650  Biso   1.000  O
  O3       1.0000 0.71312  0.88100  0.02350  Biso   1.000  O
  O4       1.0000 0.21312  0.38100  0.02350  Biso   1.000  O
  O5       1.0000 0.71312  0.11900  0.52350  Biso   1.000  O
  O6       1.0000 0.21312  0.61900  0.52350  Biso   1.000  O
  O7       1.0000 0.28688  0.11900  0.97650  Biso   1.000  O
  O8       1.0000 0.78688  0.61900  0.97650  Biso   1.000  O
  C89      1.0000 0.30883  0.73380  0.52990  Biso   1.000  C
  C90      1.0000 0.80883  0.23380  0.52990  Biso   1.000  C
  C91      1.0000 0.69117  0.73380  0.97010  Biso   1.000  C
  C92      1.0000 0.19117  0.23380  0.97010  Biso   1.000  C
  C93      1.0000 0.69117  0.26620  0.47010  Biso   1.000  C
  C94      1.0000 0.19117  0.76620  0.47010  Biso   1.000  C
  C95      1.0000 0.30883  0.26620  0.02990  Biso   1.000  C
  C96      1.0000 0.80883  0.76620  0.02990  Biso   1.000  C
  O9       1.0000 0.24514  0.14920  0.37634  Biso   1.000  O
  O10      1.0000 0.74514  0.64920  0.37634  Biso   1.000  O
  O11      1.0000 0.75486  0.14920  0.12366  Biso   1.000  O
  O12      1.0000 0.25486  0.64920  0.12366  Biso   1.000  O
  O13      1.0000 0.75486  0.85080  0.62366  Biso   1.000  O
  O14      1.0000 0.25486  0.35080  0.62366  Biso   1.000  O
  O15      1.0000 0.24514  0.85080  0.87634  Biso   1.000  O
  O16      1.0000 0.74514  0.35080  0.87634  Biso   1.000  O
  C97      1.0000 0.22345  0.30420  0.39770  Biso   1.000  C
  C98      1.0000 0.72345  0.80420  0.39770  Biso   1.000  C
  C99      1.0000 0.77655  0.30420  0.10230  Biso   1.000  C
  C100     1.0000 0.27655  0.80420  0.10230  Biso   1.000  C
  C101     1.0000 0.77655  0.69580  0.60230  Biso   1.000  C
  C102     1.0000 0.27655  0.19580  0.60230  Biso   1.000  C
  C103     1.0000 0.22345  0.69580  0.89770  Biso   1.000  C
  C104     1.0000 0.72345  0.19580  0.89770  Biso   1.000  C
  O17      1.0000 0.27992  0.47010  0.33402  Biso   1.000  O
  O18      1.0000 0.77992  0.97010  0.33402  Biso   1.000  O
  O19      1.0000 0.72008  0.47010  0.16598  Biso   1.000  O
  O20      1.0000 0.22008  0.97010  0.16598  Biso   1.000  O
  O21      1.0000 0.72008  0.52990  0.66598  Biso   1.000  O
  O22      1.0000 0.22008  0.02990  0.66598  Biso   1.000  O
  O23      1.0000 0.27992  0.52990  0.83402  Biso   1.000  O
  O24      1.0000 0.77992  0.02990  0.83402  Biso   1.000  O
  C105     1.0000 0.29580  0.66270  0.31420  Biso   1.000  C
  C106     1.0000 0.79580  0.16270  0.31420  Biso   1.000  C
  C107     1.0000 0.70420  0.66270  0.18580  Biso   1.000  C
  C108     1.0000 0.20420  0.16270  0.18580  Biso   1.000  C
  C109     1.0000 0.70420  0.33730  0.68580  Biso   1.000  C
  C110     1.0000 0.20420  0.83730  0.68580  Biso   1.000  C
  C111     1.0000 0.29580  0.33730  0.81420  Biso   1.000  C
  C112     1.0000 0.79580  0.83730  0.81420  Biso   1.000  C
  N17      1.0000 0.51235  0.54560  0.58863  Biso   1.000  N
  N18      1.0000 0.01235  0.04560  0.58863  Biso   1.000  N
  N19      1.0000 0.48765  0.54560  0.91137  Biso   1.000  N
  N20      1.0000 0.98765  0.04560  0.91137  Biso   1.000  N
  N21      1.0000 0.48765  0.45440  0.41137  Biso   1.000  N
  N22      1.0000 0.98765  0.95440  0.41137  Biso   1.000  N
  N23      1.0000 0.51235  0.45440  0.08863  Biso   1.000  N
  N24      1.0000 0.01235  0.95440  0.08863  Biso   1.000  N
  N25      1.0000 0.42874  0.00410  0.42601  Biso   1.000  N
  N26      1.0000 0.92874  0.50410  0.42601  Biso   1.000  N
  N27      1.0000 0.57126  0.00410  0.07399  Biso   1.000  N
  N28      1.0000 0.07126  0.50410  0.07399  Biso   1.000  N
  N29      1.0000 0.57126  0.99590  0.57399  Biso   1.000  N
  N30      1.0000 0.07126  0.49590  0.57399  Biso   1.000  N
  N31      1.0000 0.42874  0.99590  0.92601  Biso   1.000  N
  N32      1.0000 0.92874  0.49590  0.92601  Biso   1.000  N
  H9       1.0000 0.30510  0.77300  0.34400  Biso   1.000  H
  H10      1.0000 0.80510  0.27300  0.34400  Biso   1.000  H
  H11      1.0000 0.69490  0.77300  0.15600  Biso   1.000  H
  H12      1.0000 0.19490  0.27300  0.15600  Biso   1.000  H
  H13      1.0000 0.69490  0.22700  0.65600  Biso   1.000  H
  H14      1.0000 0.19490  0.72700  0.65600  Biso   1.000  H
  H15      1.0000 0.30510  0.22700  0.84400  Biso   1.000  H
  H16      1.0000 0.80510  0.72700  0.84400  Biso   1.000  H
  H17      1.0000 0.29180  0.65700  0.53800  Biso   1.000  H
  H18      1.0000 0.79180  0.15700  0.53800  Biso   1.000  H
  H19      1.0000 0.70820  0.65700  0.96200  Biso   1.000  H
  H20      1.0000 0.20820  0.15700  0.96200  Biso   1.000  H
  H21      1.0000 0.70820  0.34300  0.46200  Biso   1.000  H
  H22      1.0000 0.20820  0.84300  0.46200  Biso   1.000  H
  H23      1.0000 0.29180  0.34300  0.03800  Biso   1.000  H
  H24      1.0000 0.79180  0.84300  0.03800  Biso   1.000  H
  H25      1.0000 0.32420  0.82500  0.57200  Biso   1.000  H
  H26      1.0000 0.82420  0.32500  0.57200  Biso   1.000  H
  H27      1.0000 0.67580  0.82500  0.92800  Biso   1.000  H
  H28      1.0000 0.17580  0.32500  0.92800  Biso   1.000  H
  H29      1.0000 0.67580  0.17500  0.42800  Biso   1.000  H
  H30      1.0000 0.17580  0.67500  0.42800  Biso   1.000  H
  H31      1.0000 0.32420  0.17500  0.07200  Biso   1.000  H
  H32      1.0000 0.82420  0.67500  0.07200  Biso   1.000  H
  H33      1.0000 0.19860  0.29200  0.37900  Biso   1.000  H
  H34      1.0000 0.69860  0.79200  0.37900  Biso   1.000  H
  H35      1.0000 0.80140  0.29200  0.12100  Biso   1.000  H
  H36      1.0000 0.30140  0.79200  0.12100  Biso   1.000  H
  H37      1.0000 0.80140  0.70800  0.62100  Biso   1.000  H
  H38      1.0000 0.30140  0.20800  0.62100  Biso   1.000  H
  H39      1.0000 0.19860  0.70800  0.87900  Biso   1.000  H
  H40      1.0000 0.69860  0.20800  0.87900  Biso   1.000  H
  H41      1.0000 0.27810  0.72400  0.28000  Biso   1.000  H
  H42      1.0000 0.77810  0.22400  0.28000  Biso   1.000  H
  H43      1.0000 0.72190  0.72400  0.22000  Biso   1.000  H
  H44      1.0000 0.22190  0.22400  0.22000  Biso   1.000  H
  H45      1.0000 0.72190  0.27600  0.72000  Biso   1.000  H
  H46      1.0000 0.22190  0.77600  0.72000  Biso   1.000  H
  H47      1.0000 0.27810  0.27600  0.78000  Biso   1.000  H
  H48      1.0000 0.77810  0.77600  0.78000  Biso   1.000  H
  H49      1.0000 0.23130  0.47100  0.39200  Biso   1.000  H
  H50      1.0000 0.73130  0.97100  0.39200  Biso   1.000  H
  H51      1.0000 0.76870  0.47100  0.10800  Biso   1.000  H
  H52      1.0000 0.26870  0.97100  0.10800  Biso   1.000  H
  H53      1.0000 0.76870  0.52900  0.60800  Biso   1.000  H
  H54      1.0000 0.26870  0.02900  0.60800  Biso   1.000  H
  H55      1.0000 0.23130  0.52900  0.89200  Biso   1.000  H
  H56      1.0000 0.73130  0.02900  0.89200  Biso   1.000  H
  H57      1.0000 0.36340  0.99000  0.52810  Biso   1.000  H
  H58      1.0000 0.86340  0.49000  0.52810  Biso   1.000  H
  H59      1.0000 0.63660  0.99000  0.97190  Biso   1.000  H
  H60      1.0000 0.13660  0.49000  0.97190  Biso   1.000  H
  H61      1.0000 0.63660  0.01000  0.47190  Biso   1.000  H
  H62      1.0000 0.13660  0.51000  0.47190  Biso   1.000  H
  H63      1.0000 0.36340  0.01000  0.02810  Biso   1.000  H
  H64      1.0000 0.86340  0.51000  0.02810  Biso   1.000  H
  H65      1.0000 0.31770  0.59500  0.29900  Biso   1.000  H
  H66      1.0000 0.81770  0.09500  0.29900  Biso   1.000  H
  H67      1.0000 0.68230  0.59500  0.20100  Biso   1.000  H
  H68      1.0000 0.18230  0.09500  0.20100  Biso   1.000  H
  H69      1.0000 0.68230  0.40500  0.70100  Biso   1.000  H
  H70      1.0000 0.18230  0.90500  0.70100  Biso   1.000  H
  H71      1.0000 0.31770  0.40500  0.79900  Biso   1.000  H
  H72      1.0000 0.81770  0.90500  0.79900  Biso   1.000  H
  H73      1.0000 0.41380  0.12700  0.41260  Biso   1.000  H
  H74      1.0000 0.91380  0.62700  0.41260  Biso   1.000  H
  H75      1.0000 0.58620  0.12700  0.08740  Biso   1.000  H
  H76      1.0000 0.08620  0.62700  0.08740  Biso   1.000  H
  H77      1.0000 0.58620  0.87300  0.58740  Biso   1.000  H
  H78      1.0000 0.08620  0.37300  0.58740  Biso   1.000  H
  H79      1.0000 0.41380  0.87300  0.91260  Biso   1.000  H
  H80      1.0000 0.91380  0.37300  0.91260  Biso   1.000  H
  H81      1.0000 0.32560  0.62200  0.52200  Biso   1.000  H
  H82      1.0000 0.82560  0.12200  0.52200  Biso   1.000  H
  H83      1.0000 0.67440  0.62200  0.97800  Biso   1.000  H
  H84      1.0000 0.17440  0.12200  0.97800  Biso   1.000  H
  H85      1.0000 0.67440  0.37800  0.47800  Biso   1.000  H
  H86      1.0000 0.17440  0.87800  0.47800  Biso   1.000  H
  H87      1.0000 0.32560  0.37800  0.02200  Biso   1.000  H
  H88      1.0000 0.82560  0.87800  0.02200  Biso   1.000  H
  H89      1.0000 0.41420  0.38300  0.55150  Biso   1.000  H
  H90      1.0000 0.91420  0.88300  0.55150  Biso   1.000  H
  H91      1.0000 0.58580  0.38300  0.94850  Biso   1.000  H
  H92      1.0000 0.08580  0.88300  0.94850  Biso   1.000  H
  H93      1.0000 0.58580  0.61700  0.44850  Biso   1.000  H
  H94      1.0000 0.08580  0.11700  0.44850  Biso   1.000  H
  H95      1.0000 0.41420  0.61700  0.05150  Biso   1.000  H
  H96      1.0000 0.91420  0.11700  0.05150  Biso   1.000  H
  H97      1.0000 0.22710  0.28400  0.44100  Biso   1.000  H
  H98      1.0000 0.72710  0.78400  0.44100  Biso   1.000  H
  H99      1.0000 0.77290  0.28400  0.05900  Biso   1.000  H
  H100     1.0000 0.27290  0.78400  0.05900  Biso   1.000  H
  H101     1.0000 0.77290  0.71600  0.55900  Biso   1.000  H
  H102     1.0000 0.27290  0.21600  0.55900  Biso   1.000  H
  H103     1.0000 0.22710  0.71600  0.94100  Biso   1.000  H
  H104     1.0000 0.72710  0.21600  0.94100  Biso   1.000  H
  H105     1.0000 0.43500  0.93400  0.39900  Biso   1.000  H
  H106     1.0000 0.93500  0.43400  0.39900  Biso   1.000  H
  H107     1.0000 0.56500  0.93400  0.10100  Biso   1.000  H
  H108     1.0000 0.06500  0.43400  0.10100  Biso   1.000  H
  H109     1.0000 0.56500  0.06600  0.60100  Biso   1.000  H
  H110     1.0000 0.06500  0.56600  0.60100  Biso   1.000  H
  H111     1.0000 0.43500  0.06600  0.89900  Biso   1.000  H
  H112     1.0000 0.93500  0.56600  0.89900  Biso   1.000  H
  H113     1.0000 0.44790  0.09100  0.62740  Biso   1.000  H
  H114     1.0000 0.94790  0.59100  0.62740  Biso   1.000  H
  H115     1.0000 0.55210  0.09100  0.87260  Biso   1.000  H
  H116     1.0000 0.05210  0.59100  0.87260  Biso   1.000  H
  H117     1.0000 0.55210  0.90900  0.37260  Biso   1.000  H
  H118     1.0000 0.05210  0.40900  0.37260  Biso   1.000  H
  H119     1.0000 0.44790  0.90900  0.12740  Biso   1.000  H
  H120     1.0000 0.94790  0.40900  0.12740  Biso   1.000  H
  H121     1.0000 0.42040  0.39600  0.48920  Biso   1.000  H
  H122     1.0000 0.92040  0.89600  0.48920  Biso   1.000  H
  H123     1.0000 0.57960  0.39600  0.01080  Biso   1.000  H
  H124     1.0000 0.07960  0.89600  0.01080  Biso   1.000  H
  H125     1.0000 0.57960  0.60400  0.51080  Biso   1.000  H
  H126     1.0000 0.07960  0.10400  0.51080  Biso   1.000  H
  H127     1.0000 0.42040  0.60400  0.98920  Biso   1.000  H
  H128     1.0000 0.92040  0.10400  0.98920  Biso   1.000  H
  H129     1.0000 0.52010  0.50200  0.62400  Biso   1.000  H
  H130     1.0000 0.02010  0.00200  0.62400  Biso   1.000  H
  H131     1.0000 0.47990  0.50200  0.87600  Biso   1.000  H
  H132     1.0000 0.97990  0.00200  0.87600  Biso   1.000  H
  H133     1.0000 0.47990  0.49800  0.37600  Biso   1.000  H
  H134     1.0000 0.97990  0.99800  0.37600  Biso   1.000  H
  H135     1.0000 0.52010  0.49800  0.12400  Biso   1.000  H
  H136     1.0000 0.02010  0.99800  0.12400  Biso   1.000  H
  H137     1.0000 0.51570  0.46000  0.56100  Biso   1.000  H
  H138     1.0000 0.01570  0.96000  0.56100  Biso   1.000  H
  H139     1.0000 0.48430  0.46000  0.93900  Biso   1.000  H
  H140     1.0000 0.98430  0.96000  0.93900  Biso   1.000  H
  H141     1.0000 0.48430  0.54000  0.43900  Biso   1.000  H
  H142     1.0000 0.98430  0.04000  0.43900  Biso   1.000  H
  H143     1.0000 0.51570  0.54000  0.06100  Biso   1.000  H
  H144     1.0000 0.01570  0.04000  0.06100  Biso   1.000  H
  H145     1.0000 0.35840  0.48500  0.40680  Biso   1.000  H
  H146     1.0000 0.85840  0.98500  0.40680  Biso   1.000  H
  H147     1.0000 0.64160  0.48500  0.09320  Biso   1.000  H
  H148     1.0000 0.14160  0.98500  0.09320  Biso   1.000  H
  H149     1.0000 0.64160  0.51500  0.59320  Biso   1.000  H
  H150     1.0000 0.14160  0.01500  0.59320  Biso   1.000  H
  H151     1.0000 0.35840  0.51500  0.90680  Biso   1.000  H
  H152     1.0000 0.85840  0.01500  0.90680  Biso   1.000  H
  Cu1      1.0000 0.50000  0.66594  0.25000  Biso   1.000  Cu
  Cu2      1.0000 0.00000  0.16594  0.25000  Biso   1.000  Cu
  Cu3      1.0000 0.50000  0.33406  0.75000  Biso   1.000  Cu
  Cu4      1.0000 0.00000  0.83406  0.75000  Biso   1.000  Cu
  O25      1.0000 0.46176  0.90870  0.24429  Biso   1.000  O
  O26      1.0000 0.96176  0.40870  0.24429  Biso   1.000  O
  O27      1.0000 0.53824  0.90870  0.25571  Biso   1.000  O
  O28      1.0000 0.03824  0.40870  0.25571  Biso   1.000  O
  O29      1.0000 0.53824  0.09130  0.75571  Biso   1.000  O
  O30      1.0000 0.03824  0.59130  0.75571  Biso   1.000  O
  O31      1.0000 0.46176  0.09130  0.74429  Biso   1.000  O
  O32      1.0000 0.96176  0.59130  0.74429  Biso   1.000  O
  C113     1.0000 0.44243  0.92030  0.27950  Biso   1.000  C
  C114     1.0000 0.94243  0.42030  0.27950  Biso   1.000  C
  C115     1.0000 0.55757  0.92030  0.22050  Biso   1.000  C
  C116     1.0000 0.05757  0.42030  0.22050  Biso   1.000  C
  C117     1.0000 0.55757  0.07970  0.72050  Biso   1.000  C
  C118     1.0000 0.05757  0.57970  0.72050  Biso   1.000  C
  C119     1.0000 0.44243  0.07970  0.77950  Biso   1.000  C
  C120     1.0000 0.94243  0.57970  0.77950  Biso   1.000  C
  O33      1.0000 0.45103  0.81770  0.33127  Biso   1.000  O
  O34      1.0000 0.95103  0.31770  0.33127  Biso   1.000  O
  O35      1.0000 0.54897  0.81770  0.16873  Biso   1.000  O
  O36      1.0000 0.04897  0.31770  0.16873  Biso   1.000  O
  O37      1.0000 0.54897  0.18230  0.66873  Biso   1.000  O
  O38      1.0000 0.04897  0.68230  0.66873  Biso   1.000  O
  O39      1.0000 0.45103  0.18230  0.83127  Biso   1.000  O
  O40      1.0000 0.95103  0.68230  0.83127  Biso   1.000  O
  C121     1.0000 0.40539  0.06890  0.25550  Biso   1.000  C
  C122     1.0000 0.90539  0.56890  0.25550  Biso   1.000  C
  C123     1.0000 0.59461  0.06890  0.24450  Biso   1.000  C
  C124     1.0000 0.09461  0.56890  0.24450  Biso   1.000  C
  C125     1.0000 0.59461  0.93110  0.74450  Biso   1.000  C
  C126     1.0000 0.09461  0.43110  0.74450  Biso   1.000  C
  C127     1.0000 0.40539  0.93110  0.75550  Biso   1.000  C
  C128     1.0000 0.90539  0.43110  0.75550  Biso   1.000  C
  C129     1.0000 0.37256  0.99070  0.26514  Biso   1.000  C
  C130     1.0000 0.87256  0.49070  0.26514  Biso   1.000  C
  C131     1.0000 0.62744  0.99070  0.23486  Biso   1.000  C
  C132     1.0000 0.12744  0.49070  0.23486  Biso   1.000  C
  C133     1.0000 0.62744  0.00930  0.73486  Biso   1.000  C
  C134     1.0000 0.12744  0.50930  0.73486  Biso   1.000  C
  C135     1.0000 0.37256  0.00930  0.76514  Biso   1.000  C
  C136     1.0000 0.87256  0.50930  0.76514  Biso   1.000  C
  C137     1.0000 0.33729  0.11360  0.24280  Biso   1.000  C
  C138     1.0000 0.83729  0.61360  0.24280  Biso   1.000  C
  C139     1.0000 0.66271  0.11360  0.25720  Biso   1.000  C
  C140     1.0000 0.16271  0.61360  0.25720  Biso   1.000  C
  C141     1.0000 0.66271  0.88640  0.75720  Biso   1.000  C
  C142     1.0000 0.16271  0.38640  0.75720  Biso   1.000  C
  C143     1.0000 0.33729  0.88640  0.74280  Biso   1.000  C
  C144     1.0000 0.83729  0.38640  0.74280  Biso   1.000  C
  C145     1.0000 0.33398  0.31560  0.20910  Biso   1.000  C
  C146     1.0000 0.83398  0.81560  0.20910  Biso   1.000  C
  C147     1.0000 0.66602  0.31560  0.29090  Biso   1.000  C
  C148     1.0000 0.16602  0.81560  0.29090  Biso   1.000  C
  C149     1.0000 0.66602  0.68440  0.79090  Biso   1.000  C
  C150     1.0000 0.16602  0.18440  0.79090  Biso   1.000  C
  C151     1.0000 0.33398  0.68440  0.70910  Biso   1.000  C
  C152     1.0000 0.83398  0.18440  0.70910  Biso   1.000  C
  C153     1.0000 0.36640  0.39550  0.19892  Biso   1.000  C
  C154     1.0000 0.86640  0.89550  0.19892  Biso   1.000  C
  C155     1.0000 0.63360  0.39550  0.30108  Biso   1.000  C
  C156     1.0000 0.13360  0.89550  0.30108  Biso   1.000  C
  C157     1.0000 0.63360  0.60450  0.80108  Biso   1.000  C
  C158     1.0000 0.13360  0.10450  0.80108  Biso   1.000  C
  C159     1.0000 0.36640  0.60450  0.69892  Biso   1.000  C
  C160     1.0000 0.86640  0.10450  0.69892  Biso   1.000  C
  C161     1.0000 0.40248  0.27610  0.22236  Biso   1.000  C
  C162     1.0000 0.90248  0.77610  0.22236  Biso   1.000  C
  C163     1.0000 0.59752  0.27610  0.27764  Biso   1.000  C
  C164     1.0000 0.09752  0.77610  0.27764  Biso   1.000  C
  C165     1.0000 0.59752  0.72390  0.77764  Biso   1.000  C
  C166     1.0000 0.09752  0.22390  0.77764  Biso   1.000  C
  C167     1.0000 0.40248  0.72390  0.72236  Biso   1.000  C
  C168     1.0000 0.90248  0.22390  0.72236  Biso   1.000  C
  O41      1.0000 0.43329  0.46830  0.16231  Biso   1.000  O
  O42      1.0000 0.93329  0.96830  0.16231  Biso   1.000  O
  O43      1.0000 0.56671  0.46830  0.33769  Biso   1.000  O
  O44      1.0000 0.06671  0.96830  0.33769  Biso   1.000  O
  O45      1.0000 0.56671  0.53170  0.83769  Biso   1.000  O
  O46      1.0000 0.06671  0.03170  0.83769  Biso   1.000  O
  O47      1.0000 0.43329  0.53170  0.66231  Biso   1.000  O
  O48      1.0000 0.93329  0.03170  0.66231  Biso   1.000  O
  C169     1.0000 0.43705  0.39250  0.21521  Biso   1.000  C
  C170     1.0000 0.93705  0.89250  0.21521  Biso   1.000  C
  C171     1.0000 0.56295  0.39250  0.28479  Biso   1.000  C
  C172     1.0000 0.06295  0.89250  0.28479  Biso   1.000  C
  C173     1.0000 0.56295  0.60750  0.78479  Biso   1.000  C
  C174     1.0000 0.06295  0.10750  0.78479  Biso   1.000  C
  C175     1.0000 0.43705  0.60750  0.71521  Biso   1.000  C
  C176     1.0000 0.93705  0.10750  0.71521  Biso   1.000  C
  O49      1.0000 0.46820  0.42490  0.26750  Biso   1.000  O
  O50      1.0000 0.96820  0.92490  0.26750  Biso   1.000  O
  O51      1.0000 0.53180  0.42490  0.23250  Biso   1.000  O
  O52      1.0000 0.03180  0.92490  0.23250  Biso   1.000  O
  O53      1.0000 0.53180  0.57510  0.73250  Biso   1.000  O
  O54      1.0000 0.03180  0.07510  0.73250  Biso   1.000  O
  O55      1.0000 0.46820  0.57510  0.76750  Biso   1.000  O
  O56      1.0000 0.96820  0.07510  0.76750  Biso   1.000  O
  H153     1.0000 0.30990  0.39200  0.19300  Biso   1.000  H
  H154     1.0000 0.80990  0.89200  0.19300  Biso   1.000  H
  H155     1.0000 0.69010  0.39200  0.30700  Biso   1.000  H
  H156     1.0000 0.19010  0.89200  0.30700  Biso   1.000  H
  H157     1.0000 0.69010  0.60800  0.80700  Biso   1.000  H
  H158     1.0000 0.19010  0.10800  0.80700  Biso   1.000  H
  H159     1.0000 0.30990  0.60800  0.69300  Biso   1.000  H
  H160     1.0000 0.80990  0.10800  0.69300  Biso   1.000  H
  H161     1.0000 0.31720  0.04800  0.25360  Biso   1.000  H
  H162     1.0000 0.81720  0.54800  0.25360  Biso   1.000  H
  H163     1.0000 0.68280  0.04800  0.24640  Biso   1.000  H
  H164     1.0000 0.18280  0.54800  0.24640  Biso   1.000  H
  H165     1.0000 0.68280  0.95200  0.74640  Biso   1.000  H
  H166     1.0000 0.18280  0.45200  0.74640  Biso   1.000  H
  H167     1.0000 0.31720  0.95200  0.75360  Biso   1.000  H
  H168     1.0000 0.81720  0.45200  0.75360  Biso   1.000  H
  H169     1.0000 0.37660  0.85000  0.28750  Biso   1.000  H
  H170     1.0000 0.87660  0.35000  0.28750  Biso   1.000  H
  H171     1.0000 0.62340  0.85000  0.21250  Biso   1.000  H
  H172     1.0000 0.12340  0.35000  0.21250  Biso   1.000  H
  H173     1.0000 0.62340  0.15000  0.71250  Biso   1.000  H
  H174     1.0000 0.12340  0.65000  0.71250  Biso   1.000  H
  H175     1.0000 0.37660  0.15000  0.78750  Biso   1.000  H
  H176     1.0000 0.87660  0.65000  0.78750  Biso   1.000  H
  H177     1.0000 0.36590  0.53000  0.17600  Biso   1.000  H
  H178     1.0000 0.86590  0.03000  0.17600  Biso   1.000  H
  H179     1.0000 0.63410  0.53000  0.32400  Biso   1.000  H
  H180     1.0000 0.13410  0.03000  0.32400  Biso   1.000  H
  H181     1.0000 0.63410  0.47000  0.82400  Biso   1.000  H
  H182     1.0000 0.13410  0.97000  0.82400  Biso   1.000  H
  H183     1.0000 0.36590  0.47000  0.67600  Biso   1.000  H
  H184     1.0000 0.86590  0.97000  0.67600  Biso   1.000  H
