data_image0
_cell_length_a       17.631
_cell_length_b       9.704
_cell_length_c       19.22
_cell_angle_alpha    90
_cell_angle_beta     98.14
_cell_angle_gamma    90

_symmetry_space_group_name_H-M    "P 1"
_symmetry_int_tables_number       1

loop_
  _symmetry_equiv_pos_as_xyz
  'x, y, z'

loop_
  _atom_site_label
  _atom_site_occupancy
  _atom_site_fract_x
  _atom_site_fract_y
  _atom_site_fract_z
  _atom_site_thermal_displace_type
  _atom_site_B_iso_or_equiv
  _atom_site_type_symbol
  Cu1      1.0000 0.50000  0.63795  0.75000  Biso   1.000  Cu
  Cu2      1.0000 0.00000  0.13795  0.75000  Biso   1.000  Cu
  Cu3      1.0000 0.50000  0.36205  0.25000  Biso   1.000  Cu
  Cu4      1.0000 0.00000  0.86205  0.25000  Biso   1.000  Cu
  Cu5      1.0000 0.50000  0.90485  0.75000  Biso   1.000  Cu
  Cu6      1.0000 0.00000  0.40485  0.75000  Biso   1.000  Cu
  Cu7      1.0000 0.50000  0.09515  0.25000  Biso   1.000  Cu
  Cu8      1.0000 0.00000  0.59515  0.25000  Biso   1.000  Cu
  O1       1.0000 0.44720  0.66070  0.65260  Biso   1.000  O
  O2       1.0000 0.94720  0.16070  0.65260  Biso   1.000  O
  O3       1.0000 0.55280  0.66070  0.84740  Biso   1.000  O
  O4       1.0000 0.05280  0.16070  0.84740  Biso   1.000  O
  O5       1.0000 0.55280  0.33930  0.34740  Biso   1.000  O
  O6       1.0000 0.05280  0.83930  0.34740  Biso   1.000  O
  O7       1.0000 0.44720  0.33930  0.15260  Biso   1.000  O
  O8       1.0000 0.94720  0.83930  0.15260  Biso   1.000  O
  O9       1.0000 0.46580  0.89010  0.64910  Biso   1.000  O
  O10      1.0000 0.96580  0.39010  0.64910  Biso   1.000  O
  O11      1.0000 0.53420  0.89010  0.85090  Biso   1.000  O
  O12      1.0000 0.03420  0.39010  0.85090  Biso   1.000  O
  O13      1.0000 0.53420  0.10990  0.35090  Biso   1.000  O
  O14      1.0000 0.03420  0.60990  0.35090  Biso   1.000  O
  O15      1.0000 0.46580  0.10990  0.14910  Biso   1.000  O
  O16      1.0000 0.96580  0.60990  0.14910  Biso   1.000  O
  O17      1.0000 0.40100  0.65180  0.78440  Biso   1.000  O
  O18      1.0000 0.90100  0.15180  0.78440  Biso   1.000  O
  O19      1.0000 0.59900  0.65180  0.71560  Biso   1.000  O
  O20      1.0000 0.09900  0.15180  0.71560  Biso   1.000  O
  O21      1.0000 0.59900  0.34820  0.21560  Biso   1.000  O
  O22      1.0000 0.09900  0.84820  0.21560  Biso   1.000  O
  O23      1.0000 0.40100  0.34820  0.28440  Biso   1.000  O
  O24      1.0000 0.90100  0.84820  0.28440  Biso   1.000  O
  O25      1.0000 0.39300  0.88130  0.76800  Biso   1.000  O
  O26      1.0000 0.89300  0.38130  0.76800  Biso   1.000  O
  O27      1.0000 0.60700  0.88130  0.73200  Biso   1.000  O
  O28      1.0000 0.10700  0.38130  0.73200  Biso   1.000  O
  O29      1.0000 0.60700  0.11870  0.23200  Biso   1.000  O
  O30      1.0000 0.10700  0.61870  0.23200  Biso   1.000  O
  O31      1.0000 0.39300  0.11870  0.26800  Biso   1.000  O
  O32      1.0000 0.89300  0.61870  0.26800  Biso   1.000  O
  N1       1.0000 0.50000  0.41290  0.75000  Biso   1.000  N
  N2       1.0000 0.00000  0.91290  0.75000  Biso   1.000  N
  N3       1.0000 0.50000  0.58710  0.25000  Biso   1.000  N
  N4       1.0000 0.00000  0.08710  0.25000  Biso   1.000  N
  N5       1.0000 0.50000  0.12770  0.75000  Biso   1.000  N
  N6       1.0000 0.00000  0.62770  0.75000  Biso   1.000  N
  N7       1.0000 0.50000  0.87230  0.25000  Biso   1.000  N
  N8       1.0000 0.00000  0.37230  0.25000  Biso   1.000  N
  C1       1.0000 0.40130  0.78210  0.54700  Biso   1.000  C
  C2       1.0000 0.90130  0.28210  0.54700  Biso   1.000  C
  C3       1.0000 0.59870  0.78210  0.95300  Biso   1.000  C
  C4       1.0000 0.09870  0.28210  0.95300  Biso   1.000  C
  C5       1.0000 0.59870  0.21790  0.45300  Biso   1.000  C
  C6       1.0000 0.09870  0.71790  0.45300  Biso   1.000  C
  C7       1.0000 0.40130  0.21790  0.04700  Biso   1.000  C
  C8       1.0000 0.90130  0.71790  0.04700  Biso   1.000  C
  C9       1.0000 0.36340  0.66700  0.51790  Biso   1.000  C
  C10      1.0000 0.86340  0.16700  0.51790  Biso   1.000  C
  C11      1.0000 0.63660  0.66700  0.98210  Biso   1.000  C
  C12      1.0000 0.13660  0.16700  0.98210  Biso   1.000  C
  C13      1.0000 0.63660  0.33300  0.48210  Biso   1.000  C
  C14      1.0000 0.13660  0.83300  0.48210  Biso   1.000  C
  C15      1.0000 0.36340  0.33300  0.01790  Biso   1.000  C
  C16      1.0000 0.86340  0.83300  0.01790  Biso   1.000  C
  C17      1.0000 0.32180  0.67540  0.45020  Biso   1.000  C
  C18      1.0000 0.82180  0.17540  0.45020  Biso   1.000  C
  C19      1.0000 0.67820  0.67540  0.04980  Biso   1.000  C
  C20      1.0000 0.17820  0.17540  0.04980  Biso   1.000  C
  C21      1.0000 0.67820  0.32460  0.54980  Biso   1.000  C
  C22      1.0000 0.17820  0.82460  0.54980  Biso   1.000  C
  C23      1.0000 0.32180  0.32460  0.95020  Biso   1.000  C
  C24      1.0000 0.82180  0.82460  0.95020  Biso   1.000  C
  C25      1.0000 0.31890  0.79690  0.41320  Biso   1.000  C
  C26      1.0000 0.81890  0.29690  0.41320  Biso   1.000  C
  C27      1.0000 0.68110  0.79690  0.08680  Biso   1.000  C
  C28      1.0000 0.18110  0.29690  0.08680  Biso   1.000  C
  C29      1.0000 0.68110  0.20310  0.58680  Biso   1.000  C
  C30      1.0000 0.18110  0.70310  0.58680  Biso   1.000  C
  C31      1.0000 0.31890  0.20310  0.91320  Biso   1.000  C
  C32      1.0000 0.81890  0.70310  0.91320  Biso   1.000  C
  C33      1.0000 0.35810  0.91140  0.44170  Biso   1.000  C
  C34      1.0000 0.85810  0.41140  0.44170  Biso   1.000  C
  C35      1.0000 0.64190  0.91140  0.05830  Biso   1.000  C
  C36      1.0000 0.14190  0.41140  0.05830  Biso   1.000  C
  C37      1.0000 0.64190  0.08860  0.55830  Biso   1.000  C
  C38      1.0000 0.14190  0.58860  0.55830  Biso   1.000  C
  C39      1.0000 0.35810  0.08860  0.94170  Biso   1.000  C
  C40      1.0000 0.85810  0.58860  0.94170  Biso   1.000  C
  C41      1.0000 0.39880  0.90370  0.50920  Biso   1.000  C
  C42      1.0000 0.89880  0.40370  0.50920  Biso   1.000  C
  C43      1.0000 0.60120  0.90370  0.99080  Biso   1.000  C
  C44      1.0000 0.10120  0.40370  0.99080  Biso   1.000  C
  C45      1.0000 0.60120  0.09630  0.49080  Biso   1.000  C
  C46      1.0000 0.10120  0.59630  0.49080  Biso   1.000  C
  C47      1.0000 0.39880  0.09630  0.00920  Biso   1.000  C
  C48      1.0000 0.89880  0.59630  0.00920  Biso   1.000  C
  C49      1.0000 0.44150  0.77730  0.62200  Biso   1.000  C
  C50      1.0000 0.94150  0.27730  0.62200  Biso   1.000  C
  C51      1.0000 0.55850  0.77730  0.87800  Biso   1.000  C
  C52      1.0000 0.05850  0.27730  0.87800  Biso   1.000  C
  C53      1.0000 0.55850  0.22270  0.37800  Biso   1.000  C
  C54      1.0000 0.05850  0.72270  0.37800  Biso   1.000  C
  C55      1.0000 0.44150  0.22270  0.12200  Biso   1.000  C
  C56      1.0000 0.94150  0.72270  0.12200  Biso   1.000  C
  C57      1.0000 0.29020  0.76690  0.81130  Biso   1.000  C
  C58      1.0000 0.79020  0.26690  0.81130  Biso   1.000  C
  C59      1.0000 0.70980  0.76690  0.68870  Biso   1.000  C
  C60      1.0000 0.20980  0.26690  0.68870  Biso   1.000  C
  C61      1.0000 0.70980  0.23310  0.18870  Biso   1.000  C
  C62      1.0000 0.20980  0.73310  0.18870  Biso   1.000  C
  C63      1.0000 0.29020  0.23310  0.31130  Biso   1.000  C
  C64      1.0000 0.79020  0.73310  0.31130  Biso   1.000  C
  C65      1.0000 0.26180  0.64620  0.83560  Biso   1.000  C
  C66      1.0000 0.76180  0.14620  0.83560  Biso   1.000  C
  C67      1.0000 0.73820  0.64620  0.66440  Biso   1.000  C
  C68      1.0000 0.23820  0.14620  0.66440  Biso   1.000  C
  C69      1.0000 0.73820  0.35380  0.16440  Biso   1.000  C
  C70      1.0000 0.23820  0.85380  0.16440  Biso   1.000  C
  C71      1.0000 0.26180  0.35380  0.33560  Biso   1.000  C
  C72      1.0000 0.76180  0.85380  0.33560  Biso   1.000  C
  C73      1.0000 0.19260  0.64750  0.86350  Biso   1.000  C
  C74      1.0000 0.69260  0.14750  0.86350  Biso   1.000  C
  C75      1.0000 0.80740  0.64750  0.63650  Biso   1.000  C
  C76      1.0000 0.30740  0.14750  0.63650  Biso   1.000  C
  C77      1.0000 0.80740  0.35250  0.13650  Biso   1.000  C
  C78      1.0000 0.30740  0.85250  0.13650  Biso   1.000  C
  C79      1.0000 0.19260  0.35250  0.36350  Biso   1.000  C
  C80      1.0000 0.69260  0.85250  0.36350  Biso   1.000  C
  C81      1.0000 0.15450  0.77110  0.86780  Biso   1.000  C
  C82      1.0000 0.65450  0.27110  0.86780  Biso   1.000  C
  C83      1.0000 0.84550  0.77110  0.63220  Biso   1.000  C
  C84      1.0000 0.34550  0.27110  0.63220  Biso   1.000  C
  C85      1.0000 0.84550  0.22890  0.13220  Biso   1.000  C
  C86      1.0000 0.34550  0.72890  0.13220  Biso   1.000  C
  C87      1.0000 0.15450  0.22890  0.36780  Biso   1.000  C
  C88      1.0000 0.65450  0.72890  0.36780  Biso   1.000  C
  C89      1.0000 0.18140  0.88960  0.84130  Biso   1.000  C
  C90      1.0000 0.68140  0.38960  0.84130  Biso   1.000  C
  C91      1.0000 0.81860  0.88960  0.65870  Biso   1.000  C
  C92      1.0000 0.31860  0.38960  0.65870  Biso   1.000  C
  C93      1.0000 0.81860  0.11040  0.15870  Biso   1.000  C
  C94      1.0000 0.31860  0.61040  0.15870  Biso   1.000  C
  C95      1.0000 0.18140  0.11040  0.34130  Biso   1.000  C
  C96      1.0000 0.68140  0.61040  0.34130  Biso   1.000  C
  C97      1.0000 0.24870  0.88780  0.81240  Biso   1.000  C
  C98      1.0000 0.74870  0.38780  0.81240  Biso   1.000  C
  C99      1.0000 0.75130  0.88780  0.68760  Biso   1.000  C
  C100     1.0000 0.25130  0.38780  0.68760  Biso   1.000  C
  C101     1.0000 0.75130  0.11220  0.18760  Biso   1.000  C
  C102     1.0000 0.25130  0.61220  0.18760  Biso   1.000  C
  C103     1.0000 0.24870  0.11220  0.31240  Biso   1.000  C
  C104     1.0000 0.74870  0.61220  0.31240  Biso   1.000  C
  C105     1.0000 0.36680  0.76720  0.78570  Biso   1.000  C
  C106     1.0000 0.86680  0.26720  0.78570  Biso   1.000  C
  C107     1.0000 0.63320  0.76720  0.71430  Biso   1.000  C
  C108     1.0000 0.13320  0.26720  0.71430  Biso   1.000  C
  C109     1.0000 0.63320  0.23280  0.21430  Biso   1.000  C
  C110     1.0000 0.13320  0.73280  0.21430  Biso   1.000  C
  C111     1.0000 0.36680  0.23280  0.28570  Biso   1.000  C
  C112     1.0000 0.86680  0.73280  0.28570  Biso   1.000  C
  C113     1.0000 0.46210  0.34230  0.79340  Biso   1.000  C
  C114     1.0000 0.96210  0.84230  0.79340  Biso   1.000  C
  C115     1.0000 0.53790  0.34230  0.70660  Biso   1.000  C
  C116     1.0000 0.03790  0.84230  0.70660  Biso   1.000  C
  C117     1.0000 0.53790  0.65770  0.20660  Biso   1.000  C
  C118     1.0000 0.03790  0.15770  0.20660  Biso   1.000  C
  C119     1.0000 0.46210  0.65770  0.29340  Biso   1.000  C
  C120     1.0000 0.96210  0.15770  0.29340  Biso   1.000  C
  C121     1.0000 0.46210  0.19910  0.79360  Biso   1.000  C
  C122     1.0000 0.96210  0.69910  0.79360  Biso   1.000  C
  C123     1.0000 0.53790  0.19910  0.70640  Biso   1.000  C
  C124     1.0000 0.03790  0.69910  0.70640  Biso   1.000  C
  C125     1.0000 0.53790  0.80090  0.20640  Biso   1.000  C
  C126     1.0000 0.03790  0.30090  0.20640  Biso   1.000  C
  C127     1.0000 0.46210  0.80090  0.29360  Biso   1.000  C
  C128     1.0000 0.96210  0.30090  0.29360  Biso   1.000  C
  H1       1.0000 0.36540  0.58290  0.54340  Biso   1.000  H
  H2       1.0000 0.86540  0.08290  0.54340  Biso   1.000  H
  H3       1.0000 0.63460  0.58290  0.95660  Biso   1.000  H
  H4       1.0000 0.13460  0.08290  0.95660  Biso   1.000  H
  H5       1.0000 0.63460  0.41710  0.45660  Biso   1.000  H
  H6       1.0000 0.13460  0.91710  0.45660  Biso   1.000  H
  H7       1.0000 0.36540  0.41710  0.04340  Biso   1.000  H
  H8       1.0000 0.86540  0.91710  0.04340  Biso   1.000  H
  H9       1.0000 0.29550  0.59660  0.42970  Biso   1.000  H
  H10      1.0000 0.79550  0.09660  0.42970  Biso   1.000  H
  H11      1.0000 0.70450  0.59660  0.07030  Biso   1.000  H
  H12      1.0000 0.20450  0.09660  0.07030  Biso   1.000  H
  H13      1.0000 0.70450  0.40340  0.57030  Biso   1.000  H
  H14      1.0000 0.20450  0.90340  0.57030  Biso   1.000  H
  H15      1.0000 0.29550  0.40340  0.92970  Biso   1.000  H
  H16      1.0000 0.79550  0.90340  0.92970  Biso   1.000  H
  H17      1.0000 0.28970  0.80220  0.36770  Biso   1.000  H
  H18      1.0000 0.78970  0.30220  0.36770  Biso   1.000  H
  H19      1.0000 0.71030  0.80220  0.13230  Biso   1.000  H
  H20      1.0000 0.21030  0.30220  0.13230  Biso   1.000  H
  H21      1.0000 0.71030  0.19780  0.63230  Biso   1.000  H
  H22      1.0000 0.21030  0.69780  0.63230  Biso   1.000  H
  H23      1.0000 0.28970  0.19780  0.86770  Biso   1.000  H
  H24      1.0000 0.78970  0.69780  0.86770  Biso   1.000  H
  H25      1.0000 0.35730  0.99460  0.41560  Biso   1.000  H
  H26      1.0000 0.85730  0.49460  0.41560  Biso   1.000  H
  H27      1.0000 0.64270  0.99460  0.08440  Biso   1.000  H
  H28      1.0000 0.14270  0.49460  0.08440  Biso   1.000  H
  H29      1.0000 0.64270  0.00540  0.58440  Biso   1.000  H
  H30      1.0000 0.14270  0.50540  0.58440  Biso   1.000  H
  H31      1.0000 0.35730  0.00540  0.91560  Biso   1.000  H
  H32      1.0000 0.85730  0.50540  0.91560  Biso   1.000  H
  H33      1.0000 0.42510  0.98270  0.52950  Biso   1.000  H
  H34      1.0000 0.92510  0.48270  0.52950  Biso   1.000  H
  H35      1.0000 0.57490  0.98270  0.97050  Biso   1.000  H
  H36      1.0000 0.07490  0.48270  0.97050  Biso   1.000  H
  H37      1.0000 0.57490  0.01730  0.47050  Biso   1.000  H
  H38      1.0000 0.07490  0.51730  0.47050  Biso   1.000  H
  H39      1.0000 0.42510  0.01730  0.02950  Biso   1.000  H
  H40      1.0000 0.92510  0.51730  0.02950  Biso   1.000  H
  H41      1.0000 0.17200  0.56450  0.87930  Biso   1.000  H
  H42      1.0000 0.67200  0.06450  0.87930  Biso   1.000  H
  H43      1.0000 0.82800  0.56450  0.62070  Biso   1.000  H
  H44      1.0000 0.32800  0.06450  0.62070  Biso   1.000  H
  H45      1.0000 0.82800  0.43550  0.12070  Biso   1.000  H
  H46      1.0000 0.32800  0.93550  0.12070  Biso   1.000  H
  H47      1.0000 0.17200  0.43550  0.37930  Biso   1.000  H
  H48      1.0000 0.67200  0.93550  0.37930  Biso   1.000  H
  H49      1.0000 0.10920  0.77390  0.88940  Biso   1.000  H
  H50      1.0000 0.60920  0.27390  0.88940  Biso   1.000  H
  H51      1.0000 0.89080  0.77390  0.61060  Biso   1.000  H
  H52      1.0000 0.39080  0.27390  0.61060  Biso   1.000  H
  H53      1.0000 0.89080  0.22610  0.11060  Biso   1.000  H
  H54      1.0000 0.39080  0.72610  0.11060  Biso   1.000  H
  H55      1.0000 0.10920  0.22610  0.38940  Biso   1.000  H
  H56      1.0000 0.60920  0.72610  0.38940  Biso   1.000  H
  H57      1.0000 0.15360  0.97320  0.84290  Biso   1.000  H
  H58      1.0000 0.65360  0.47320  0.84290  Biso   1.000  H
  H59      1.0000 0.84640  0.97320  0.65710  Biso   1.000  H
  H60      1.0000 0.34640  0.47320  0.65710  Biso   1.000  H
  H61      1.0000 0.84640  0.02680  0.15710  Biso   1.000  H
  H62      1.0000 0.34640  0.52680  0.15710  Biso   1.000  H
  H63      1.0000 0.15360  0.02680  0.34290  Biso   1.000  H
  H64      1.0000 0.65360  0.52680  0.34290  Biso   1.000  H
  H65      1.0000 0.26660  0.96980  0.79320  Biso   1.000  H
  H66      1.0000 0.76660  0.46980  0.79320  Biso   1.000  H
  H67      1.0000 0.73340  0.96980  0.70680  Biso   1.000  H
  H68      1.0000 0.23340  0.46980  0.70680  Biso   1.000  H
  H69      1.0000 0.73340  0.03020  0.20680  Biso   1.000  H
  H70      1.0000 0.23340  0.53020  0.20680  Biso   1.000  H
  H71      1.0000 0.26660  0.03020  0.29320  Biso   1.000  H
  H72      1.0000 0.76660  0.53020  0.29320  Biso   1.000  H
  H73      1.0000 0.43460  0.39050  0.82480  Biso   1.000  H
  H74      1.0000 0.93460  0.89050  0.82480  Biso   1.000  H
  H75      1.0000 0.56540  0.39050  0.67520  Biso   1.000  H
  H76      1.0000 0.06540  0.89050  0.67520  Biso   1.000  H
  H77      1.0000 0.56540  0.60950  0.17520  Biso   1.000  H
  H78      1.0000 0.06540  0.10950  0.17520  Biso   1.000  H
  H79      1.0000 0.43460  0.60950  0.32480  Biso   1.000  H
  H80      1.0000 0.93460  0.10950  0.32480  Biso   1.000  H
  H81      1.0000 0.43480  0.15120  0.82530  Biso   1.000  H
  H82      1.0000 0.93480  0.65120  0.82530  Biso   1.000  H
  H83      1.0000 0.56520  0.15120  0.67470  Biso   1.000  H
  H84      1.0000 0.06520  0.65120  0.67470  Biso   1.000  H
  H85      1.0000 0.56520  0.84880  0.17470  Biso   1.000  H
  H86      1.0000 0.06520  0.34880  0.17470  Biso   1.000  H
  H87      1.0000 0.43480  0.84880  0.32530  Biso   1.000  H
  H88      1.0000 0.93480  0.34880  0.32530  Biso   1.000  H
  H89      1.0000 0.28920  0.56240  0.83330  Biso   1.000  H
  H90      1.0000 0.78920  0.06240  0.83330  Biso   1.000  H
  H91      1.0000 0.71080  0.56240  0.66670  Biso   1.000  H
  H92      1.0000 0.21080  0.06240  0.66670  Biso   1.000  H
  H93      1.0000 0.71080  0.43760  0.16670  Biso   1.000  H
  H94      1.0000 0.21080  0.93760  0.16670  Biso   1.000  H
  H95      1.0000 0.28920  0.43760  0.33330  Biso   1.000  H
  H96      1.0000 0.78920  0.93760  0.33330  Biso   1.000  H
