data_image0
_cell_length_a       18.07
_cell_length_b       9.7
_cell_length_c       18.968
_cell_angle_alpha    90
_cell_angle_beta     97.564
_cell_angle_gamma    90

_symmetry_space_group_name_H-M    "P 1"
_symmetry_int_tables_number       1

loop_
  _symmetry_equiv_pos_as_xyz
  'x, y, z'

loop_
  _atom_site_label
  _atom_site_occupancy
  _atom_site_fract_x
  _atom_site_fract_y
  _atom_site_fract_z
  _atom_site_thermal_displace_type
  _atom_site_B_iso_or_equiv
  _atom_site_type_symbol
  C1       1.0000 0.12860  0.22830  0.21200  Biso   1.000  C
  C2       1.0000 0.62860  0.72830  0.21200  Biso   1.000  C
  C3       1.0000 0.87140  0.22830  0.28800  Biso   1.000  C
  C4       1.0000 0.37140  0.72830  0.28800  Biso   1.000  C
  C5       1.0000 0.87140  0.77170  0.78800  Biso   1.000  C
  C6       1.0000 0.37140  0.27170  0.78800  Biso   1.000  C
  C7       1.0000 0.12860  0.77170  0.71200  Biso   1.000  C
  C8       1.0000 0.62860  0.27170  0.71200  Biso   1.000  C
  C9       1.0000 0.20340  0.22770  0.18720  Biso   1.000  C
  C10      1.0000 0.70340  0.72770  0.18720  Biso   1.000  C
  C11      1.0000 0.79660  0.22770  0.31280  Biso   1.000  C
  C12      1.0000 0.29660  0.72770  0.31280  Biso   1.000  C
  C13      1.0000 0.79660  0.77230  0.81280  Biso   1.000  C
  C14      1.0000 0.29660  0.27230  0.81280  Biso   1.000  C
  C15      1.0000 0.20340  0.77230  0.68720  Biso   1.000  C
  C16      1.0000 0.70340  0.27230  0.68720  Biso   1.000  C
  C17      1.0000 0.23100  0.34490  0.16000  Biso   1.000  C
  C18      1.0000 0.73100  0.84490  0.16000  Biso   1.000  C
  C19      1.0000 0.76900  0.34490  0.34000  Biso   1.000  C
  C20      1.0000 0.26900  0.84490  0.34000  Biso   1.000  C
  C21      1.0000 0.76900  0.65510  0.84000  Biso   1.000  C
  C22      1.0000 0.26900  0.15510  0.84000  Biso   1.000  C
  C23      1.0000 0.23100  0.65510  0.66000  Biso   1.000  C
  C24      1.0000 0.73100  0.15510  0.66000  Biso   1.000  C
  H1       1.0000 0.20330  0.42590  0.15870  Biso   1.000  H
  H2       1.0000 0.70330  0.92590  0.15870  Biso   1.000  H
  H3       1.0000 0.79670  0.42590  0.34130  Biso   1.000  H
  H4       1.0000 0.29670  0.92590  0.34130  Biso   1.000  H
  H5       1.0000 0.79670  0.57410  0.84130  Biso   1.000  H
  H6       1.0000 0.29670  0.07410  0.84130  Biso   1.000  H
  H7       1.0000 0.20330  0.57410  0.65870  Biso   1.000  H
  H8       1.0000 0.70330  0.07410  0.65870  Biso   1.000  H
  C25      1.0000 0.29910  0.34470  0.13450  Biso   1.000  C
  C26      1.0000 0.79910  0.84470  0.13450  Biso   1.000  C
  C27      1.0000 0.70090  0.34470  0.36550  Biso   1.000  C
  C28      1.0000 0.20090  0.84470  0.36550  Biso   1.000  C
  C29      1.0000 0.70090  0.65530  0.86550  Biso   1.000  C
  C30      1.0000 0.20090  0.15530  0.86550  Biso   1.000  C
  C31      1.0000 0.29910  0.65530  0.63450  Biso   1.000  C
  C32      1.0000 0.79910  0.15530  0.63450  Biso   1.000  C
  H9       1.0000 0.31910  0.42610  0.11920  Biso   1.000  H
  H10      1.0000 0.81910  0.92610  0.11920  Biso   1.000  H
  H11      1.0000 0.68090  0.42610  0.38080  Biso   1.000  H
  H12      1.0000 0.18090  0.92610  0.38080  Biso   1.000  H
  H13      1.0000 0.68090  0.57390  0.88080  Biso   1.000  H
  H14      1.0000 0.18090  0.07390  0.88080  Biso   1.000  H
  H15      1.0000 0.31910  0.57390  0.61920  Biso   1.000  H
  H16      1.0000 0.81910  0.07390  0.61920  Biso   1.000  H
  C33      1.0000 0.33760  0.21990  0.13200  Biso   1.000  C
  C34      1.0000 0.83760  0.71990  0.13200  Biso   1.000  C
  C35      1.0000 0.66240  0.21990  0.36800  Biso   1.000  C
  C36      1.0000 0.16240  0.71990  0.36800  Biso   1.000  C
  C37      1.0000 0.66240  0.78010  0.86800  Biso   1.000  C
  C38      1.0000 0.16240  0.28010  0.86800  Biso   1.000  C
  C39      1.0000 0.33760  0.78010  0.63200  Biso   1.000  C
  C40      1.0000 0.83760  0.28010  0.63200  Biso   1.000  C
  H17      1.0000 0.38010  0.21480  0.10920  Biso   1.000  H
  H18      1.0000 0.88010  0.71480  0.10920  Biso   1.000  H
  H19      1.0000 0.61990  0.21480  0.39080  Biso   1.000  H
  H20      1.0000 0.11990  0.71480  0.39080  Biso   1.000  H
  H21      1.0000 0.61990  0.78520  0.89080  Biso   1.000  H
  H22      1.0000 0.11990  0.28520  0.89080  Biso   1.000  H
  H23      1.0000 0.38010  0.78520  0.60920  Biso   1.000  H
  H24      1.0000 0.88010  0.28520  0.60920  Biso   1.000  H
  C41      1.0000 0.31300  0.10980  0.16230  Biso   1.000  C
  C42      1.0000 0.81300  0.60980  0.16230  Biso   1.000  C
  C43      1.0000 0.68700  0.10980  0.33770  Biso   1.000  C
  C44      1.0000 0.18700  0.60980  0.33770  Biso   1.000  C
  C45      1.0000 0.68700  0.89020  0.83770  Biso   1.000  C
  C46      1.0000 0.18700  0.39020  0.83770  Biso   1.000  C
  C47      1.0000 0.31300  0.89020  0.66230  Biso   1.000  C
  C48      1.0000 0.81300  0.39020  0.66230  Biso   1.000  C
  H25      1.0000 0.34070  0.02880  0.16440  Biso   1.000  H
  H26      1.0000 0.84070  0.52880  0.16440  Biso   1.000  H
  H27      1.0000 0.65930  0.02880  0.33560  Biso   1.000  H
  H28      1.0000 0.15930  0.52880  0.33560  Biso   1.000  H
  H29      1.0000 0.65930  0.97120  0.83560  Biso   1.000  H
  H30      1.0000 0.15930  0.47120  0.83560  Biso   1.000  H
  H31      1.0000 0.34070  0.97120  0.66440  Biso   1.000  H
  H32      1.0000 0.84070  0.47120  0.66440  Biso   1.000  H
  C49      1.0000 0.24680  0.11300  0.19090  Biso   1.000  C
  C50      1.0000 0.74680  0.61300  0.19090  Biso   1.000  C
  C51      1.0000 0.75320  0.11300  0.30910  Biso   1.000  C
  C52      1.0000 0.25320  0.61300  0.30910  Biso   1.000  C
  C53      1.0000 0.75320  0.88700  0.80910  Biso   1.000  C
  C54      1.0000 0.25320  0.38700  0.80910  Biso   1.000  C
  C55      1.0000 0.24680  0.88700  0.69090  Biso   1.000  C
  C56      1.0000 0.74680  0.38700  0.69090  Biso   1.000  C
  H33      1.0000 0.23150  0.03470  0.21330  Biso   1.000  H
  H34      1.0000 0.73150  0.53470  0.21330  Biso   1.000  H
  H35      1.0000 0.76850  0.03470  0.28670  Biso   1.000  H
  H36      1.0000 0.26850  0.53470  0.28670  Biso   1.000  H
  H37      1.0000 0.76850  0.96530  0.78670  Biso   1.000  H
  H38      1.0000 0.26850  0.46530  0.78670  Biso   1.000  H
  H39      1.0000 0.23150  0.96530  0.71330  Biso   1.000  H
  H40      1.0000 0.73150  0.46530  0.71330  Biso   1.000  H
  C57      1.0000 0.05840  0.22240  0.37880  Biso   1.000  C
  C58      1.0000 0.55840  0.72240  0.37880  Biso   1.000  C
  C59      1.0000 0.94160  0.22240  0.12120  Biso   1.000  C
  C60      1.0000 0.44160  0.72240  0.12120  Biso   1.000  C
  C61      1.0000 0.94160  0.77760  0.62120  Biso   1.000  C
  C62      1.0000 0.44160  0.27760  0.62120  Biso   1.000  C
  C63      1.0000 0.05840  0.77760  0.87880  Biso   1.000  C
  C64      1.0000 0.55840  0.27760  0.87880  Biso   1.000  C
  C65      1.0000 0.09820  0.21850  0.45200  Biso   1.000  C
  C66      1.0000 0.59820  0.71850  0.45200  Biso   1.000  C
  C67      1.0000 0.90180  0.21850  0.04800  Biso   1.000  C
  C68      1.0000 0.40180  0.71850  0.04800  Biso   1.000  C
  C69      1.0000 0.90180  0.78150  0.54800  Biso   1.000  C
  C70      1.0000 0.40180  0.28150  0.54800  Biso   1.000  C
  C71      1.0000 0.09820  0.78150  0.95200  Biso   1.000  C
  C72      1.0000 0.59820  0.28150  0.95200  Biso   1.000  C
  C73      1.0000 0.13500  0.32940  0.48410  Biso   1.000  C
  C74      1.0000 0.63500  0.82940  0.48410  Biso   1.000  C
  C75      1.0000 0.86500  0.32940  0.01590  Biso   1.000  C
  C76      1.0000 0.36500  0.82940  0.01590  Biso   1.000  C
  C77      1.0000 0.86500  0.67060  0.51590  Biso   1.000  C
  C78      1.0000 0.36500  0.17060  0.51590  Biso   1.000  C
  C79      1.0000 0.13500  0.67060  0.98410  Biso   1.000  C
  C80      1.0000 0.63500  0.17060  0.98410  Biso   1.000  C
  H41      1.0000 0.13340  0.41340  0.46030  Biso   1.000  H
  H42      1.0000 0.63340  0.91340  0.46030  Biso   1.000  H
  H43      1.0000 0.86660  0.41340  0.03970  Biso   1.000  H
  H44      1.0000 0.36660  0.91340  0.03970  Biso   1.000  H
  H45      1.0000 0.86660  0.58660  0.53970  Biso   1.000  H
  H46      1.0000 0.36660  0.08660  0.53970  Biso   1.000  H
  H47      1.0000 0.13340  0.58660  0.96030  Biso   1.000  H
  H48      1.0000 0.63340  0.08660  0.96030  Biso   1.000  H
  C81      1.0000 0.17450  0.31890  0.55100  Biso   1.000  C
  C82      1.0000 0.67450  0.81890  0.55100  Biso   1.000  C
  C83      1.0000 0.82550  0.31890  0.94900  Biso   1.000  C
  C84      1.0000 0.32550  0.81890  0.94900  Biso   1.000  C
  C85      1.0000 0.82550  0.68110  0.44900  Biso   1.000  C
  C86      1.0000 0.32550  0.18110  0.44900  Biso   1.000  C
  C87      1.0000 0.17450  0.68110  0.05100  Biso   1.000  C
  C88      1.0000 0.67450  0.18110  0.05100  Biso   1.000  C
  H49      1.0000 0.19880  0.39590  0.57210  Biso   1.000  H
  H50      1.0000 0.69880  0.89590  0.57210  Biso   1.000  H
  H51      1.0000 0.80120  0.39590  0.92790  Biso   1.000  H
  H52      1.0000 0.30120  0.89590  0.92790  Biso   1.000  H
  H53      1.0000 0.80120  0.60410  0.42790  Biso   1.000  H
  H54      1.0000 0.30120  0.10410  0.42790  Biso   1.000  H
  H55      1.0000 0.19880  0.60410  0.07210  Biso   1.000  H
  H56      1.0000 0.69880  0.10410  0.07210  Biso   1.000  H
  C89      1.0000 0.17830  0.20150  0.58530  Biso   1.000  C
  C90      1.0000 0.67830  0.70150  0.58530  Biso   1.000  C
  C91      1.0000 0.82170  0.20150  0.91470  Biso   1.000  C
  C92      1.0000 0.32170  0.70150  0.91470  Biso   1.000  C
  C93      1.0000 0.82170  0.79850  0.41470  Biso   1.000  C
  C94      1.0000 0.32170  0.29850  0.41470  Biso   1.000  C
  C95      1.0000 0.17830  0.79850  0.08530  Biso   1.000  C
  C96      1.0000 0.67830  0.29850  0.08530  Biso   1.000  C
  H57      1.0000 0.20590  0.19620  0.63020  Biso   1.000  H
  H58      1.0000 0.70590  0.69620  0.63020  Biso   1.000  H
  H59      1.0000 0.79410  0.19620  0.86980  Biso   1.000  H
  H60      1.0000 0.29410  0.69620  0.86980  Biso   1.000  H
  H61      1.0000 0.79410  0.80380  0.36980  Biso   1.000  H
  H62      1.0000 0.29410  0.30380  0.36980  Biso   1.000  H
  H63      1.0000 0.20590  0.80380  0.13020  Biso   1.000  H
  H64      1.0000 0.70590  0.30380  0.13020  Biso   1.000  H
  C97      1.0000 0.14290  0.08820  0.55680  Biso   1.000  C
  C98      1.0000 0.64290  0.58820  0.55680  Biso   1.000  C
  C99      1.0000 0.85710  0.08820  0.94320  Biso   1.000  C
  C100     1.0000 0.35710  0.58820  0.94320  Biso   1.000  C
  C101     1.0000 0.85710  0.91180  0.44320  Biso   1.000  C
  C102     1.0000 0.35710  0.41180  0.44320  Biso   1.000  C
  C103     1.0000 0.14290  0.91180  0.05680  Biso   1.000  C
  C104     1.0000 0.64290  0.41180  0.05680  Biso   1.000  C
  H65      1.0000 0.14530  0.00620  0.58240  Biso   1.000  H
  H66      1.0000 0.64530  0.50620  0.58240  Biso   1.000  H
  H67      1.0000 0.85470  0.00620  0.91760  Biso   1.000  H
  H68      1.0000 0.35470  0.50620  0.91760  Biso   1.000  H
  H69      1.0000 0.85470  0.99380  0.41760  Biso   1.000  H
  H70      1.0000 0.35470  0.49380  0.41760  Biso   1.000  H
  H71      1.0000 0.14530  0.99380  0.08240  Biso   1.000  H
  H72      1.0000 0.64530  0.49380  0.08240  Biso   1.000  H
  C105     1.0000 0.10300  0.09430  0.48920  Biso   1.000  C
  C106     1.0000 0.60300  0.59430  0.48920  Biso   1.000  C
  C107     1.0000 0.89700  0.09430  0.01080  Biso   1.000  C
  C108     1.0000 0.39700  0.59430  0.01080  Biso   1.000  C
  C109     1.0000 0.89700  0.90570  0.51080  Biso   1.000  C
  C110     1.0000 0.39700  0.40570  0.51080  Biso   1.000  C
  C111     1.0000 0.10300  0.90570  0.98920  Biso   1.000  C
  C112     1.0000 0.60300  0.40570  0.98920  Biso   1.000  C
  H73      1.0000 0.07960  0.01580  0.46880  Biso   1.000  H
  H74      1.0000 0.57960  0.51580  0.46880  Biso   1.000  H
  H75      1.0000 0.92040  0.01580  0.03120  Biso   1.000  H
  H76      1.0000 0.42040  0.51580  0.03120  Biso   1.000  H
  H77      1.0000 0.92040  0.98420  0.53120  Biso   1.000  H
  H78      1.0000 0.42040  0.48420  0.53120  Biso   1.000  H
  H79      1.0000 0.07960  0.98420  0.96880  Biso   1.000  H
  H80      1.0000 0.57960  0.48420  0.96880  Biso   1.000  H
  C113     1.0000 0.03190  0.65440  0.20290  Biso   1.000  C
  C114     1.0000 0.53190  0.15440  0.20290  Biso   1.000  C
  C115     1.0000 0.96810  0.65440  0.29710  Biso   1.000  C
  C116     1.0000 0.46810  0.15440  0.29710  Biso   1.000  C
  C117     1.0000 0.96810  0.34560  0.79710  Biso   1.000  C
  C118     1.0000 0.46810  0.84560  0.79710  Biso   1.000  C
  C119     1.0000 0.03190  0.34560  0.70290  Biso   1.000  C
  C120     1.0000 0.53190  0.84560  0.70290  Biso   1.000  C
  H81      1.0000 0.05490  0.60700  0.16910  Biso   1.000  H
  H82      1.0000 0.55490  0.10700  0.16910  Biso   1.000  H
  H83      1.0000 0.94510  0.60700  0.33090  Biso   1.000  H
  H84      1.0000 0.44510  0.10700  0.33090  Biso   1.000  H
  H85      1.0000 0.94510  0.39300  0.83090  Biso   1.000  H
  H86      1.0000 0.44510  0.89300  0.83090  Biso   1.000  H
  H87      1.0000 0.05490  0.39300  0.66910  Biso   1.000  H
  H88      1.0000 0.55490  0.89300  0.66910  Biso   1.000  H
  C121     1.0000 0.03160  0.79810  0.20300  Biso   1.000  C
  C122     1.0000 0.53160  0.29810  0.20300  Biso   1.000  C
  C123     1.0000 0.96840  0.79810  0.29700  Biso   1.000  C
  C124     1.0000 0.46840  0.29810  0.29700  Biso   1.000  C
  C125     1.0000 0.96840  0.20190  0.79700  Biso   1.000  C
  C126     1.0000 0.46840  0.70190  0.79700  Biso   1.000  C
  C127     1.0000 0.03160  0.20190  0.70300  Biso   1.000  C
  C128     1.0000 0.53160  0.70190  0.70300  Biso   1.000  C
  H89      1.0000 0.05430  0.84590  0.16920  Biso   1.000  H
  H90      1.0000 0.55430  0.34590  0.16920  Biso   1.000  H
  H91      1.0000 0.94570  0.84590  0.33080  Biso   1.000  H
  H92      1.0000 0.44570  0.34590  0.33080  Biso   1.000  H
  H93      1.0000 0.94570  0.15410  0.83080  Biso   1.000  H
  H94      1.0000 0.44570  0.65410  0.83080  Biso   1.000  H
  H95      1.0000 0.05430  0.15410  0.66920  Biso   1.000  H
  H96      1.0000 0.55430  0.65410  0.66920  Biso   1.000  H
  Cu1      1.0000 0.00000  0.35948  0.25000  Biso   1.000  Cu
  Cu2      1.0000 0.50000  0.85948  0.25000  Biso   1.000  Cu
  Cu3      1.0000 0.00000  0.64052  0.75000  Biso   1.000  Cu
  Cu4      1.0000 0.50000  0.14052  0.75000  Biso   1.000  Cu
  Cu5      1.0000 0.00000  0.09241  0.25000  Biso   1.000  Cu
  Cu6      1.0000 0.50000  0.59241  0.25000  Biso   1.000  Cu
  Cu7      1.0000 0.00000  0.90759  0.75000  Biso   1.000  Cu
  Cu8      1.0000 0.50000  0.40759  0.75000  Biso   1.000  Cu
  N1       1.0000 0.00000  0.58590  0.25000  Biso   1.000  N
  N2       1.0000 0.50000  0.08590  0.25000  Biso   1.000  N
  N3       1.0000 0.00000  0.41410  0.75000  Biso   1.000  N
  N4       1.0000 0.50000  0.91410  0.75000  Biso   1.000  N
  N5       1.0000 0.00000  0.86600  0.25000  Biso   1.000  N
  N6       1.0000 0.50000  0.36600  0.25000  Biso   1.000  N
  N7       1.0000 0.00000  0.13400  0.75000  Biso   1.000  N
  N8       1.0000 0.50000  0.63400  0.75000  Biso   1.000  N
  O1       1.0000 0.09590  0.34260  0.21440  Biso   1.000  O
  O2       1.0000 0.59590  0.84260  0.21440  Biso   1.000  O
  O3       1.0000 0.90410  0.34260  0.28560  Biso   1.000  O
  O4       1.0000 0.40410  0.84260  0.28560  Biso   1.000  O
  O5       1.0000 0.90410  0.65740  0.78560  Biso   1.000  O
  O6       1.0000 0.40410  0.15740  0.78560  Biso   1.000  O
  O7       1.0000 0.09590  0.65740  0.71440  Biso   1.000  O
  O8       1.0000 0.59590  0.15740  0.71440  Biso   1.000  O
  O9       1.0000 0.10280  0.11450  0.22840  Biso   1.000  O
  O10      1.0000 0.60280  0.61450  0.22840  Biso   1.000  O
  O11      1.0000 0.89720  0.11450  0.27160  Biso   1.000  O
  O12      1.0000 0.39720  0.61450  0.27160  Biso   1.000  O
  O13      1.0000 0.89720  0.88550  0.77160  Biso   1.000  O
  O14      1.0000 0.39720  0.38550  0.77160  Biso   1.000  O
  O15      1.0000 0.10280  0.88550  0.72840  Biso   1.000  O
  O16      1.0000 0.60280  0.38550  0.72840  Biso   1.000  O
  O17      1.0000 0.05150  0.33670  0.34780  Biso   1.000  O
  O18      1.0000 0.55150  0.83670  0.34780  Biso   1.000  O
  O19      1.0000 0.94850  0.33670  0.15220  Biso   1.000  O
  O20      1.0000 0.44850  0.83670  0.15220  Biso   1.000  O
  O21      1.0000 0.94850  0.66330  0.65220  Biso   1.000  O
  O22      1.0000 0.44850  0.16330  0.65220  Biso   1.000  O
  O23      1.0000 0.05150  0.66330  0.84780  Biso   1.000  O
  O24      1.0000 0.55150  0.16330  0.84780  Biso   1.000  O
  O25      1.0000 0.03560  0.10980  0.35160  Biso   1.000  O
  O26      1.0000 0.53560  0.60980  0.35160  Biso   1.000  O
  O27      1.0000 0.96440  0.10980  0.14840  Biso   1.000  O
  O28      1.0000 0.46440  0.60980  0.14840  Biso   1.000  O
  O29      1.0000 0.96440  0.89020  0.64840  Biso   1.000  O
  O30      1.0000 0.46440  0.39020  0.64840  Biso   1.000  O
  O31      1.0000 0.03560  0.89020  0.85160  Biso   1.000  O
  O32      1.0000 0.53560  0.39020  0.85160  Biso   1.000  O
