data_image0
_cell_length_a       11.286
_cell_length_b       17.8182
_cell_length_c       19.301
_cell_angle_alpha    90
_cell_angle_beta     90.14
_cell_angle_gamma    90

_symmetry_space_group_name_H-M    "P 1"
_symmetry_int_tables_number       1

loop_
  _symmetry_equiv_pos_as_xyz
  'x, y, z'

loop_
  _atom_site_label
  _atom_site_occupancy
  _atom_site_fract_x
  _atom_site_fract_y
  _atom_site_fract_z
  _atom_site_thermal_displace_type
  _atom_site_B_iso_or_equiv
  _atom_site_type_symbol
  Cu1      1.0000 0.29391  0.16527  0.64610  Biso   1.000  Cu
  Cu2      1.0000 0.79391  0.66527  0.64610  Biso   1.000  Cu
  Cu3      1.0000 0.29391  0.83473  0.14610  Biso   1.000  Cu
  Cu4      1.0000 0.79391  0.33473  0.14610  Biso   1.000  Cu
  Cu5      1.0000 0.70609  0.83473  0.35390  Biso   1.000  Cu
  Cu6      1.0000 0.20609  0.33473  0.35390  Biso   1.000  Cu
  Cu7      1.0000 0.70609  0.16527  0.85390  Biso   1.000  Cu
  Cu8      1.0000 0.20609  0.66527  0.85390  Biso   1.000  Cu
  V1       1.0000 0.36524  0.20323  0.48657  Biso   1.000  V
  V2       1.0000 0.86524  0.70323  0.48657  Biso   1.000  V
  V3       1.0000 0.36524  0.79677  0.98657  Biso   1.000  V
  V4       1.0000 0.86524  0.29677  0.98657  Biso   1.000  V
  V5       1.0000 0.63476  0.79677  0.51343  Biso   1.000  V
  V6       1.0000 0.13476  0.29677  0.51343  Biso   1.000  V
  V7       1.0000 0.63476  0.20323  0.01343  Biso   1.000  V
  V8       1.0000 0.13476  0.70323  0.01343  Biso   1.000  V
  P1       1.0000 0.36380  0.31908  0.60409  Biso   1.000  P
  P2       1.0000 0.86380  0.81908  0.60409  Biso   1.000  P
  P3       1.0000 0.36380  0.68092  0.10409  Biso   1.000  P
  P4       1.0000 0.86380  0.18092  0.10409  Biso   1.000  P
  P5       1.0000 0.63620  0.68092  0.39591  Biso   1.000  P
  P6       1.0000 0.13620  0.18092  0.39591  Biso   1.000  P
  P7       1.0000 0.63620  0.31908  0.89591  Biso   1.000  P
  P8       1.0000 0.13620  0.81908  0.89591  Biso   1.000  P
  P9       1.0000 0.50941  0.69563  0.64006  Biso   1.000  P
  P10      1.0000 0.00941  0.19563  0.64006  Biso   1.000  P
  P11      1.0000 0.50941  0.30437  0.14006  Biso   1.000  P
  P12      1.0000 0.00941  0.80437  0.14006  Biso   1.000  P
  P13      1.0000 0.49059  0.30437  0.35994  Biso   1.000  P
  P14      1.0000 0.99059  0.80437  0.35994  Biso   1.000  P
  P15      1.0000 0.49059  0.69563  0.85994  Biso   1.000  P
  P16      1.0000 0.99059  0.19563  0.85994  Biso   1.000  P
  N1       1.0000 0.29210  0.05400  0.62720  Biso   1.000  N
  N2       1.0000 0.79210  0.55400  0.62720  Biso   1.000  N
  N3       1.0000 0.29210  0.94600  0.12720  Biso   1.000  N
  N4       1.0000 0.79210  0.44600  0.12720  Biso   1.000  N
  N5       1.0000 0.70790  0.94600  0.37280  Biso   1.000  N
  N6       1.0000 0.20790  0.44600  0.37280  Biso   1.000  N
  N7       1.0000 0.70790  0.05400  0.87280  Biso   1.000  N
  N8       1.0000 0.20790  0.55400  0.87280  Biso   1.000  N
  N9       1.0000 0.34310  0.13080  0.74040  Biso   1.000  N
  N10      1.0000 0.84310  0.63080  0.74040  Biso   1.000  N
  N11      1.0000 0.34310  0.86920  0.24040  Biso   1.000  N
  N12      1.0000 0.84310  0.36920  0.24040  Biso   1.000  N
  N13      1.0000 0.65690  0.86920  0.25960  Biso   1.000  N
  N14      1.0000 0.15690  0.36920  0.25960  Biso   1.000  N
  N15      1.0000 0.65690  0.13080  0.75960  Biso   1.000  N
  N16      1.0000 0.15690  0.63080  0.75960  Biso   1.000  N
  O1       1.0000 0.35830  0.26330  0.66356  Biso   1.000  O
  O2       1.0000 0.85830  0.76330  0.66356  Biso   1.000  O
  O3       1.0000 0.35830  0.73670  0.16356  Biso   1.000  O
  O4       1.0000 0.85830  0.23670  0.16356  Biso   1.000  O
  O5       1.0000 0.64170  0.73670  0.33644  Biso   1.000  O
  O6       1.0000 0.14170  0.23670  0.33644  Biso   1.000  O
  O7       1.0000 0.64170  0.26330  0.83644  Biso   1.000  O
  O8       1.0000 0.14170  0.76330  0.83644  Biso   1.000  O
  O9       1.0000 0.43490  0.28810  0.54210  Biso   1.000  O
  O10      1.0000 0.93490  0.78810  0.54210  Biso   1.000  O
  O11      1.0000 0.43490  0.71190  0.04210  Biso   1.000  O
  O12      1.0000 0.93490  0.21190  0.04210  Biso   1.000  O
  O13      1.0000 0.56510  0.71190  0.45790  Biso   1.000  O
  O14      1.0000 0.06510  0.21190  0.45790  Biso   1.000  O
  O15      1.0000 0.56510  0.28810  0.95790  Biso   1.000  O
  O16      1.0000 0.06510  0.78810  0.95790  Biso   1.000  O
  O17      1.0000 0.23780  0.34560  0.58072  Biso   1.000  O
  O18      1.0000 0.73780  0.84560  0.58072  Biso   1.000  O
  O19      1.0000 0.23780  0.65440  0.08072  Biso   1.000  O
  O20      1.0000 0.73780  0.15440  0.08072  Biso   1.000  O
  O21      1.0000 0.76220  0.65440  0.41928  Biso   1.000  O
  O22      1.0000 0.26220  0.15440  0.41928  Biso   1.000  O
  O23      1.0000 0.76220  0.34560  0.91928  Biso   1.000  O
  O24      1.0000 0.26220  0.84560  0.91928  Biso   1.000  O
  O25      1.0000 0.25630  0.19550  0.54999  Biso   1.000  O
  O26      1.0000 0.75630  0.69550  0.54999  Biso   1.000  O
  O27      1.0000 0.25630  0.80450  0.04999  Biso   1.000  O
  O28      1.0000 0.75630  0.30450  0.04999  Biso   1.000  O
  O29      1.0000 0.74370  0.80450  0.45001  Biso   1.000  O
  O30      1.0000 0.24370  0.30450  0.45001  Biso   1.000  O
  O31      1.0000 0.74370  0.19550  0.95001  Biso   1.000  O
  O32      1.0000 0.24370  0.69550  0.95001  Biso   1.000  O
  O33      1.0000 0.45140  0.13450  0.50435  Biso   1.000  O
  O34      1.0000 0.95140  0.63450  0.50435  Biso   1.000  O
  O35      1.0000 0.45140  0.86550  0.00435  Biso   1.000  O
  O36      1.0000 0.95140  0.36550  0.00435  Biso   1.000  O
  O37      1.0000 0.54860  0.86550  0.49565  Biso   1.000  O
  O38      1.0000 0.04860  0.36550  0.49565  Biso   1.000  O
  O39      1.0000 0.54860  0.13450  0.99565  Biso   1.000  O
  O40      1.0000 0.04860  0.63450  0.99565  Biso   1.000  O
  O41      1.0000 0.53000  0.75910  0.58996  Biso   1.000  O
  O42      1.0000 0.03000  0.25910  0.58996  Biso   1.000  O
  O43      1.0000 0.53000  0.24090  0.08996  Biso   1.000  O
  O44      1.0000 0.03000  0.74090  0.08996  Biso   1.000  O
  O45      1.0000 0.47000  0.24090  0.41004  Biso   1.000  O
  O46      1.0000 0.97000  0.74090  0.41004  Biso   1.000  O
  O47      1.0000 0.47000  0.75910  0.91004  Biso   1.000  O
  O48      1.0000 0.97000  0.25910  0.91004  Biso   1.000  O
  O49      1.0000 0.39560  0.71640  0.68270  Biso   1.000  O
  O50      1.0000 0.89560  0.21640  0.68270  Biso   1.000  O
  O51      1.0000 0.39560  0.28360  0.18270  Biso   1.000  O
  O52      1.0000 0.89560  0.78360  0.18270  Biso   1.000  O
  O53      1.0000 0.60440  0.28360  0.31730  Biso   1.000  O
  O54      1.0000 0.10440  0.78360  0.31730  Biso   1.000  O
  O55      1.0000 0.60440  0.71640  0.81730  Biso   1.000  O
  O56      1.0000 0.10440  0.21640  0.81730  Biso   1.000  O
  H1       1.0000 0.39900  0.70000  0.71700  Biso   1.000  H
  H2       1.0000 0.89900  0.20000  0.71700  Biso   1.000  H
  H3       1.0000 0.39900  0.30000  0.21700  Biso   1.000  H
  H4       1.0000 0.89900  0.80000  0.21700  Biso   1.000  H
  H5       1.0000 0.60100  0.30000  0.28300  Biso   1.000  H
  H6       1.0000 0.10100  0.80000  0.28300  Biso   1.000  H
  H7       1.0000 0.60100  0.70000  0.78300  Biso   1.000  H
  H8       1.0000 0.10100  0.20000  0.78300  Biso   1.000  H
  O57      1.0000 0.61160  0.67920  0.68896  Biso   1.000  O
  O58      1.0000 0.11160  0.17920  0.68896  Biso   1.000  O
  O59      1.0000 0.61160  0.32080  0.18896  Biso   1.000  O
  O60      1.0000 0.11160  0.82080  0.18896  Biso   1.000  O
  O61      1.0000 0.38840  0.32080  0.31104  Biso   1.000  O
  O62      1.0000 0.88840  0.82080  0.31104  Biso   1.000  O
  O63      1.0000 0.38840  0.67920  0.81104  Biso   1.000  O
  O64      1.0000 0.88840  0.17920  0.81104  Biso   1.000  O
  O65      1.0000 0.80310  0.23870  0.49150  Biso   1.000  O
  O66      1.0000 0.30310  0.73870  0.49150  Biso   1.000  O
  O67      1.0000 0.80310  0.76130  0.99150  Biso   1.000  O
  O68      1.0000 0.30310  0.26130  0.99150  Biso   1.000  O
  O69      1.0000 0.19690  0.76130  0.50850  Biso   1.000  O
  O70      1.0000 0.69690  0.26130  0.50850  Biso   1.000  O
  O71      1.0000 0.19690  0.23870  0.00850  Biso   1.000  O
  O72      1.0000 0.69690  0.73870  0.00850  Biso   1.000  O
  C1       1.0000 0.27270  0.01670  0.56890  Biso   1.000  C
  C2       1.0000 0.77270  0.51670  0.56890  Biso   1.000  C
  C3       1.0000 0.27270  0.98330  0.06890  Biso   1.000  C
  C4       1.0000 0.77270  0.48330  0.06890  Biso   1.000  C
  C5       1.0000 0.72730  0.98330  0.43110  Biso   1.000  C
  C6       1.0000 0.22730  0.48330  0.43110  Biso   1.000  C
  C7       1.0000 0.72730  0.01670  0.93110  Biso   1.000  C
  C8       1.0000 0.22730  0.51670  0.93110  Biso   1.000  C
  H9       1.0000 0.25610  0.04380  0.52890  Biso   1.000  H
  H10      1.0000 0.75610  0.54380  0.52890  Biso   1.000  H
  H11      1.0000 0.25610  0.95620  0.02890  Biso   1.000  H
  H12      1.0000 0.75610  0.45620  0.02890  Biso   1.000  H
  H13      1.0000 0.74390  0.95620  0.47110  Biso   1.000  H
  H14      1.0000 0.24390  0.45620  0.47110  Biso   1.000  H
  H15      1.0000 0.74390  0.04380  0.97110  Biso   1.000  H
  H16      1.0000 0.24390  0.54380  0.97110  Biso   1.000  H
  C9       1.0000 0.27610  0.93900  0.56500  Biso   1.000  C
  C10      1.0000 0.77610  0.43900  0.56500  Biso   1.000  C
  C11      1.0000 0.27610  0.06100  0.06500  Biso   1.000  C
  C12      1.0000 0.77610  0.56100  0.06500  Biso   1.000  C
  C13      1.0000 0.72390  0.06100  0.43500  Biso   1.000  C
  C14      1.0000 0.22390  0.56100  0.43500  Biso   1.000  C
  C15      1.0000 0.72390  0.93900  0.93500  Biso   1.000  C
  C16      1.0000 0.22390  0.43900  0.93500  Biso   1.000  C
  H17      1.0000 0.26210  0.91460  0.52310  Biso   1.000  H
  H18      1.0000 0.76210  0.41460  0.52310  Biso   1.000  H
  H19      1.0000 0.26210  0.08540  0.02310  Biso   1.000  H
  H20      1.0000 0.76210  0.58540  0.02310  Biso   1.000  H
  H21      1.0000 0.73790  0.08540  0.47690  Biso   1.000  H
  H22      1.0000 0.23790  0.58540  0.47690  Biso   1.000  H
  H23      1.0000 0.73790  0.91460  0.97690  Biso   1.000  H
  H24      1.0000 0.23790  0.41460  0.97690  Biso   1.000  H
  C17      1.0000 0.30070  0.89850  0.62410  Biso   1.000  C
  C18      1.0000 0.80070  0.39850  0.62410  Biso   1.000  C
  C19      1.0000 0.30070  0.10150  0.12410  Biso   1.000  C
  C20      1.0000 0.80070  0.60150  0.12410  Biso   1.000  C
  C21      1.0000 0.69930  0.10150  0.37590  Biso   1.000  C
  C22      1.0000 0.19930  0.60150  0.37590  Biso   1.000  C
  C23      1.0000 0.69930  0.89850  0.87590  Biso   1.000  C
  C24      1.0000 0.19930  0.39850  0.87590  Biso   1.000  C
  H25      1.0000 0.30410  0.84640  0.62210  Biso   1.000  H
  H26      1.0000 0.80410  0.34640  0.62210  Biso   1.000  H
  H27      1.0000 0.30410  0.15360  0.12210  Biso   1.000  H
  H28      1.0000 0.80410  0.65360  0.12210  Biso   1.000  H
  H29      1.0000 0.69590  0.15360  0.37790  Biso   1.000  H
  H30      1.0000 0.19590  0.65360  0.37790  Biso   1.000  H
  H31      1.0000 0.69590  0.84640  0.87790  Biso   1.000  H
  H32      1.0000 0.19590  0.34640  0.87790  Biso   1.000  H
  C25      1.0000 0.32040  0.93510  0.68700  Biso   1.000  C
  C26      1.0000 0.82040  0.43510  0.68700  Biso   1.000  C
  C27      1.0000 0.32040  0.06490  0.18700  Biso   1.000  C
  C28      1.0000 0.82040  0.56490  0.18700  Biso   1.000  C
  C29      1.0000 0.67960  0.06490  0.31300  Biso   1.000  C
  C30      1.0000 0.17960  0.56490  0.31300  Biso   1.000  C
  C31      1.0000 0.67960  0.93510  0.81300  Biso   1.000  C
  C32      1.0000 0.17960  0.43510  0.81300  Biso   1.000  C
  C33      1.0000 0.34860  0.89910  0.75240  Biso   1.000  C
  C34      1.0000 0.84860  0.39910  0.75240  Biso   1.000  C
  C35      1.0000 0.34860  0.10090  0.25240  Biso   1.000  C
  C36      1.0000 0.84860  0.60090  0.25240  Biso   1.000  C
  C37      1.0000 0.65140  0.10090  0.24760  Biso   1.000  C
  C38      1.0000 0.15140  0.60090  0.24760  Biso   1.000  C
  C39      1.0000 0.65140  0.89910  0.74760  Biso   1.000  C
  C40      1.0000 0.15140  0.39910  0.74760  Biso   1.000  C
  H33      1.0000 0.34950  0.84700  0.75490  Biso   1.000  H
  H34      1.0000 0.84950  0.34700  0.75490  Biso   1.000  H
  H35      1.0000 0.34950  0.15300  0.25490  Biso   1.000  H
  H36      1.0000 0.84950  0.65300  0.25490  Biso   1.000  H
  H37      1.0000 0.65050  0.15300  0.24510  Biso   1.000  H
  H38      1.0000 0.15050  0.65300  0.24510  Biso   1.000  H
  H39      1.0000 0.65050  0.84700  0.74510  Biso   1.000  H
  H40      1.0000 0.15050  0.34700  0.74510  Biso   1.000  H
  C41      1.0000 0.37350  0.93950  0.80930  Biso   1.000  C
  C42      1.0000 0.87350  0.43950  0.80930  Biso   1.000  C
  C43      1.0000 0.37350  0.06050  0.30930  Biso   1.000  C
  C44      1.0000 0.87350  0.56050  0.30930  Biso   1.000  C
  C45      1.0000 0.62650  0.06050  0.19070  Biso   1.000  C
  C46      1.0000 0.12650  0.56050  0.19070  Biso   1.000  C
  C47      1.0000 0.62650  0.93950  0.69070  Biso   1.000  C
  C48      1.0000 0.12650  0.43950  0.69070  Biso   1.000  C
  H41      1.0000 0.39220  0.91460  0.85020  Biso   1.000  H
  H42      1.0000 0.89220  0.41460  0.85020  Biso   1.000  H
  H43      1.0000 0.39220  0.08540  0.35020  Biso   1.000  H
  H44      1.0000 0.89220  0.58540  0.35020  Biso   1.000  H
  H45      1.0000 0.60780  0.08540  0.14980  Biso   1.000  H
  H46      1.0000 0.10780  0.58540  0.14980  Biso   1.000  H
  H47      1.0000 0.60780  0.91460  0.64980  Biso   1.000  H
  H48      1.0000 0.10780  0.41460  0.64980  Biso   1.000  H
  C49      1.0000 0.37200  0.01910  0.80890  Biso   1.000  C
  C50      1.0000 0.87200  0.51910  0.80890  Biso   1.000  C
  C51      1.0000 0.37200  0.98090  0.30890  Biso   1.000  C
  C52      1.0000 0.87200  0.48090  0.30890  Biso   1.000  C
  C53      1.0000 0.62800  0.98090  0.19110  Biso   1.000  C
  C54      1.0000 0.12800  0.48090  0.19110  Biso   1.000  C
  C55      1.0000 0.62800  0.01910  0.69110  Biso   1.000  C
  C56      1.0000 0.12800  0.51910  0.69110  Biso   1.000  C
  C57      1.0000 0.39590  0.06450  0.86650  Biso   1.000  C
  C58      1.0000 0.89590  0.56450  0.86650  Biso   1.000  C
  C59      1.0000 0.39590  0.93550  0.36650  Biso   1.000  C
  C60      1.0000 0.89590  0.43550  0.36650  Biso   1.000  C
  C61      1.0000 0.60410  0.93550  0.13350  Biso   1.000  C
  C62      1.0000 0.10410  0.43550  0.13350  Biso   1.000  C
  C63      1.0000 0.60410  0.06450  0.63350  Biso   1.000  C
  C64      1.0000 0.10410  0.56450  0.63350  Biso   1.000  C
  H49      1.0000 0.41200  0.04270  0.90920  Biso   1.000  H
  H50      1.0000 0.91200  0.54270  0.90920  Biso   1.000  H
  H51      1.0000 0.41200  0.95730  0.40920  Biso   1.000  H
  H52      1.0000 0.91200  0.45730  0.40920  Biso   1.000  H
  H53      1.0000 0.58800  0.95730  0.09080  Biso   1.000  H
  H54      1.0000 0.08800  0.45730  0.09080  Biso   1.000  H
  H55      1.0000 0.58800  0.04270  0.59080  Biso   1.000  H
  H56      1.0000 0.08800  0.54270  0.59080  Biso   1.000  H
  C65      1.0000 0.39560  0.14010  0.85980  Biso   1.000  C
  C66      1.0000 0.89560  0.64010  0.85980  Biso   1.000  C
  C67      1.0000 0.39560  0.85990  0.35980  Biso   1.000  C
  C68      1.0000 0.89560  0.35990  0.35980  Biso   1.000  C
  C69      1.0000 0.60440  0.85990  0.14020  Biso   1.000  C
  C70      1.0000 0.10440  0.35990  0.14020  Biso   1.000  C
  C71      1.0000 0.60440  0.14010  0.64020  Biso   1.000  C
  C72      1.0000 0.10440  0.64010  0.64020  Biso   1.000  C
  H57      1.0000 0.41350  0.17050  0.89760  Biso   1.000  H
  H58      1.0000 0.91350  0.67050  0.89760  Biso   1.000  H
  H59      1.0000 0.41350  0.82950  0.39760  Biso   1.000  H
  H60      1.0000 0.91350  0.32950  0.39760  Biso   1.000  H
  H61      1.0000 0.58650  0.82950  0.10240  Biso   1.000  H
  H62      1.0000 0.08650  0.32950  0.10240  Biso   1.000  H
  H63      1.0000 0.58650  0.17050  0.60240  Biso   1.000  H
  H64      1.0000 0.08650  0.67050  0.60240  Biso   1.000  H
  C73      1.0000 0.36790  0.17200  0.79560  Biso   1.000  C
  C74      1.0000 0.86790  0.67200  0.79560  Biso   1.000  C
  C75      1.0000 0.36790  0.82800  0.29560  Biso   1.000  C
  C76      1.0000 0.86790  0.32800  0.29560  Biso   1.000  C
  C77      1.0000 0.63210  0.82800  0.20440  Biso   1.000  C
  C78      1.0000 0.13210  0.32800  0.20440  Biso   1.000  C
  C79      1.0000 0.63210  0.17200  0.70440  Biso   1.000  C
  C80      1.0000 0.13210  0.67200  0.70440  Biso   1.000  C
  H65      1.0000 0.36700  0.22400  0.79150  Biso   1.000  H
  H66      1.0000 0.86700  0.72400  0.79150  Biso   1.000  H
  H67      1.0000 0.36700  0.77600  0.29150  Biso   1.000  H
  H68      1.0000 0.86700  0.27600  0.29150  Biso   1.000  H
  H69      1.0000 0.63300  0.77600  0.20850  Biso   1.000  H
  H70      1.0000 0.13300  0.27600  0.20850  Biso   1.000  H
  H71      1.0000 0.63300  0.22400  0.70850  Biso   1.000  H
  H72      1.0000 0.13300  0.72400  0.70850  Biso   1.000  H
  C81      1.0000 0.34350  0.05540  0.74660  Biso   1.000  C
  C82      1.0000 0.84350  0.55540  0.74660  Biso   1.000  C
  C83      1.0000 0.34350  0.94460  0.24660  Biso   1.000  C
  C84      1.0000 0.84350  0.44460  0.24660  Biso   1.000  C
  C85      1.0000 0.65650  0.94460  0.25340  Biso   1.000  C
  C86      1.0000 0.15650  0.44460  0.25340  Biso   1.000  C
  C87      1.0000 0.65650  0.05540  0.75340  Biso   1.000  C
  C88      1.0000 0.15650  0.55540  0.75340  Biso   1.000  C
  C89      1.0000 0.31770  0.01350  0.68530  Biso   1.000  C
  C90      1.0000 0.81770  0.51350  0.68530  Biso   1.000  C
  C91      1.0000 0.31770  0.98650  0.18530  Biso   1.000  C
  C92      1.0000 0.81770  0.48650  0.18530  Biso   1.000  C
  C93      1.0000 0.68230  0.98650  0.31470  Biso   1.000  C
  C94      1.0000 0.18230  0.48650  0.31470  Biso   1.000  C
  C95      1.0000 0.68230  0.01350  0.81470  Biso   1.000  C
  C96      1.0000 0.18230  0.51350  0.81470  Biso   1.000  C
  C97      1.0000 0.43120  0.47210  0.59610  Biso   1.000  C
  C98      1.0000 0.93120  0.97210  0.59610  Biso   1.000  C
  C99      1.0000 0.43120  0.52790  0.09610  Biso   1.000  C
  C100     1.0000 0.93120  0.02790  0.09610  Biso   1.000  C
  C101     1.0000 0.56880  0.52790  0.40390  Biso   1.000  C
  C102     1.0000 0.06880  0.02790  0.40390  Biso   1.000  C
  C103     1.0000 0.56880  0.47210  0.90390  Biso   1.000  C
  C104     1.0000 0.06880  0.97210  0.90390  Biso   1.000  C
  H73      1.0000 0.35110  0.47880  0.57890  Biso   1.000  H
  H74      1.0000 0.85110  0.97880  0.57890  Biso   1.000  H
  H75      1.0000 0.35110  0.52120  0.07890  Biso   1.000  H
  H76      1.0000 0.85110  0.02120  0.07890  Biso   1.000  H
  H77      1.0000 0.64890  0.52120  0.42110  Biso   1.000  H
  H78      1.0000 0.14890  0.02120  0.42110  Biso   1.000  H
  H79      1.0000 0.64890  0.47880  0.92110  Biso   1.000  H
  H80      1.0000 0.14890  0.97880  0.92110  Biso   1.000  H
  H81      1.0000 0.48320  0.46700  0.55650  Biso   1.000  H
  H82      1.0000 0.98320  0.96700  0.55650  Biso   1.000  H
  H83      1.0000 0.48320  0.53300  0.05650  Biso   1.000  H
  H84      1.0000 0.98320  0.03300  0.05650  Biso   1.000  H
  H85      1.0000 0.51680  0.53300  0.44350  Biso   1.000  H
  H86      1.0000 0.01680  0.03300  0.44350  Biso   1.000  H
  H87      1.0000 0.51680  0.46700  0.94350  Biso   1.000  H
  H88      1.0000 0.01680  0.96700  0.94350  Biso   1.000  H
  C105     1.0000 0.43660  0.39990  0.63900  Biso   1.000  C
  C106     1.0000 0.93660  0.89990  0.63900  Biso   1.000  C
  C107     1.0000 0.43660  0.60010  0.13900  Biso   1.000  C
  C108     1.0000 0.93660  0.10010  0.13900  Biso   1.000  C
  C109     1.0000 0.56340  0.60010  0.36100  Biso   1.000  C
  C110     1.0000 0.06340  0.10010  0.36100  Biso   1.000  C
  C111     1.0000 0.56340  0.39990  0.86100  Biso   1.000  C
  C112     1.0000 0.06340  0.89990  0.86100  Biso   1.000  C
  H89      1.0000 0.51930  0.38740  0.64630  Biso   1.000  H
  H90      1.0000 0.01930  0.88740  0.64630  Biso   1.000  H
  H91      1.0000 0.51930  0.61260  0.14630  Biso   1.000  H
  H92      1.0000 0.01930  0.11260  0.14630  Biso   1.000  H
  H93      1.0000 0.48070  0.61260  0.35370  Biso   1.000  H
  H94      1.0000 0.98070  0.11260  0.35370  Biso   1.000  H
  H95      1.0000 0.48070  0.38740  0.85370  Biso   1.000  H
  H96      1.0000 0.98070  0.88740  0.85370  Biso   1.000  H
  H97      1.0000 0.40260  0.41030  0.68410  Biso   1.000  H
  H98      1.0000 0.90260  0.91030  0.68410  Biso   1.000  H
  H99      1.0000 0.40260  0.58970  0.18410  Biso   1.000  H
  H100     1.0000 0.90260  0.08970  0.18410  Biso   1.000  H
  H101     1.0000 0.59740  0.58970  0.31590  Biso   1.000  H
  H102     1.0000 0.09740  0.08970  0.31590  Biso   1.000  H
  H103     1.0000 0.59740  0.41030  0.81590  Biso   1.000  H
  H104     1.0000 0.09740  0.91030  0.81590  Biso   1.000  H
  C113     1.0000 0.46720  0.54160  0.63730  Biso   1.000  C
  C114     1.0000 0.96720  0.04160  0.63730  Biso   1.000  C
  C115     1.0000 0.46720  0.45840  0.13730  Biso   1.000  C
  C116     1.0000 0.96720  0.95840  0.13730  Biso   1.000  C
  C117     1.0000 0.53280  0.45840  0.36270  Biso   1.000  C
  C118     1.0000 0.03280  0.95840  0.36270  Biso   1.000  C
  C119     1.0000 0.53280  0.54160  0.86270  Biso   1.000  C
  C120     1.0000 0.03280  0.04160  0.86270  Biso   1.000  C
  H105     1.0000 0.41010  0.54970  0.67400  Biso   1.000  H
  H106     1.0000 0.91010  0.04970  0.67400  Biso   1.000  H
  H107     1.0000 0.41010  0.45030  0.17400  Biso   1.000  H
  H108     1.0000 0.91010  0.95030  0.17400  Biso   1.000  H
  H109     1.0000 0.58990  0.45030  0.32600  Biso   1.000  H
  H110     1.0000 0.08990  0.95030  0.32600  Biso   1.000  H
  H111     1.0000 0.58990  0.54970  0.82600  Biso   1.000  H
  H112     1.0000 0.08990  0.04970  0.82600  Biso   1.000  H
  H113     1.0000 0.54380  0.53270  0.65870  Biso   1.000  H
  H114     1.0000 0.04380  0.03270  0.65870  Biso   1.000  H
  H115     1.0000 0.54380  0.46730  0.15870  Biso   1.000  H
  H116     1.0000 0.04380  0.96730  0.15870  Biso   1.000  H
  H117     1.0000 0.45620  0.46730  0.34130  Biso   1.000  H
  H118     1.0000 0.95620  0.96730  0.34130  Biso   1.000  H
  H119     1.0000 0.45620  0.53270  0.84130  Biso   1.000  H
  H120     1.0000 0.95620  0.03270  0.84130  Biso   1.000  H
  C121     1.0000 0.47450  0.61250  0.59250  Biso   1.000  C
  C122     1.0000 0.97450  0.11250  0.59250  Biso   1.000  C
  C123     1.0000 0.47450  0.38750  0.09250  Biso   1.000  C
  C124     1.0000 0.97450  0.88750  0.09250  Biso   1.000  C
  C125     1.0000 0.52550  0.38750  0.40750  Biso   1.000  C
  C126     1.0000 0.02550  0.88750  0.40750  Biso   1.000  C
  C127     1.0000 0.52550  0.61250  0.90750  Biso   1.000  C
  C128     1.0000 0.02550  0.11250  0.90750  Biso   1.000  C
  H121     1.0000 0.53430  0.60500  0.55720  Biso   1.000  H
  H122     1.0000 0.03430  0.10500  0.55720  Biso   1.000  H
  H123     1.0000 0.53430  0.39500  0.05720  Biso   1.000  H
  H124     1.0000 0.03430  0.89500  0.05720  Biso   1.000  H
  H125     1.0000 0.46570  0.39500  0.44280  Biso   1.000  H
  H126     1.0000 0.96570  0.89500  0.44280  Biso   1.000  H
  H127     1.0000 0.46570  0.60500  0.94280  Biso   1.000  H
  H128     1.0000 0.96570  0.10500  0.94280  Biso   1.000  H
  H129     1.0000 0.39910  0.61960  0.56920  Biso   1.000  H
  H130     1.0000 0.89910  0.11960  0.56920  Biso   1.000  H
  H131     1.0000 0.39910  0.38040  0.06920  Biso   1.000  H
  H132     1.0000 0.89910  0.88040  0.06920  Biso   1.000  H
  H133     1.0000 0.60090  0.38040  0.43080  Biso   1.000  H
  H134     1.0000 0.10090  0.88040  0.43080  Biso   1.000  H
  H135     1.0000 0.60090  0.61960  0.93080  Biso   1.000  H
  H136     1.0000 0.10090  0.11960  0.93080  Biso   1.000  H
