data_image0
_cell_length_a       8.3704
_cell_length_b       8.3704
_cell_length_c       16.774
_cell_angle_alpha    90
_cell_angle_beta     90
_cell_angle_gamma    120

_symmetry_space_group_name_H-M    "P 1"
_symmetry_int_tables_number       1

loop_
  _symmetry_equiv_pos_as_xyz
  'x, y, z'

loop_
  _atom_site_label
  _atom_site_occupancy
  _atom_site_fract_x
  _atom_site_fract_y
  _atom_site_fract_z
  _atom_site_thermal_displace_type
  _atom_site_B_iso_or_equiv
  _atom_site_type_symbol
  Cu1      1.0000 0.81440  0.23207  0.68912  Biso   1.000  Cu
  Cu2      1.0000 0.76793  0.58233  0.02245  Biso   1.000  Cu
  Cu3      1.0000 0.41767  0.18560  0.02245  Biso   1.000  Cu
  Cl1      1.0000 0.59960  0.22800  0.77115  Biso   1.000  Cl
  Cl2      1.0000 0.77200  0.37160  0.10448  Biso   1.000  Cl
  Cl3      1.0000 0.62840  0.40040  0.10448  Biso   1.000  Cl
  Cl4      1.0000 0.03720  0.23350  0.61393  Biso   1.000  Cl
  Cl5      1.0000 0.76650  0.80370  0.94726  Biso   1.000  Cl
  Cl6      1.0000 0.19630  0.96280  0.94726  Biso   1.000  Cl
  S1       1.0000 0.11410  0.48470  0.80737  Biso   1.000  S
  S2       1.0000 0.51530  0.62940  0.14070  Biso   1.000  S
  S3       1.0000 0.37060  0.88590  0.14070  Biso   1.000  S
  S4       1.0000 0.96720  0.50210  0.89992  Biso   1.000  S
  S5       1.0000 0.49790  0.46510  0.23325  Biso   1.000  S
  S6       1.0000 0.53490  0.03280  0.23325  Biso   1.000  S
  N1       1.0000 0.94320  0.50590  0.67910  Biso   1.000  N
  N2       1.0000 0.49410  0.43730  0.01243  Biso   1.000  N
  N3       1.0000 0.56270  0.05680  0.01243  Biso   1.000  N
  N4       1.0000 0.04470  0.71890  0.02020  Biso   1.000  N
  N5       1.0000 0.28110  0.32580  0.35353  Biso   1.000  N
  N6       1.0000 0.67420  0.95530  0.35353  Biso   1.000  N
  C1       1.0000 0.06880  0.60810  0.73230  Biso   1.000  C
  C2       1.0000 0.39190  0.46070  0.06563  Biso   1.000  C
  C3       1.0000 0.53930  0.93120  0.06563  Biso   1.000  C
  C4       1.0000 0.16760  0.79940  0.73000  Biso   1.000  C
  C5       1.0000 0.20060  0.36820  0.06333  Biso   1.000  C
  C6       1.0000 0.63180  0.83240  0.06333  Biso   1.000  C
  C7       1.0000 0.12600  0.88440  0.66880  Biso   1.000  C
  C8       1.0000 0.11560  0.24160  0.00213  Biso   1.000  C
  C9       1.0000 0.75840  0.87400  0.00213  Biso   1.000  C
  C10      1.0000 0.99900  0.78100  0.61400  Biso   1.000  C
  C11      1.0000 0.21900  0.21800  0.94733  Biso   1.000  C
  C12      1.0000 0.78200  0.00100  0.94733  Biso   1.000  C
  C13      1.0000 0.90730  0.59070  0.61950  Biso   1.000  C
  C14      1.0000 0.40930  0.31660  0.95283  Biso   1.000  C
  C15      1.0000 0.68340  0.09270  0.95283  Biso   1.000  C
  C16      1.0000 0.12830  0.68650  0.96010  Biso   1.000  C
  C17      1.0000 0.31350  0.44180  0.29343  Biso   1.000  C
  C18      1.0000 0.55820  0.87170  0.29343  Biso   1.000  C
  C19      1.0000 0.32030  0.78340  0.95330  Biso   1.000  C
  C20      1.0000 0.21660  0.53690  0.28663  Biso   1.000  C
  C21      1.0000 0.46310  0.67970  0.28663  Biso   1.000  C
  C22      1.0000 0.41820  0.91150  0.00870  Biso   1.000  C
  C23      1.0000 0.08850  0.50670  0.34203  Biso   1.000  C
  C24      1.0000 0.49330  0.58180  0.34203  Biso   1.000  C
  C25      1.0000 0.33190  0.94340  0.07200  Biso   1.000  C
  C26      1.0000 0.05660  0.38850  0.40533  Biso   1.000  C
  C27      1.0000 0.61150  0.66810  0.40533  Biso   1.000  C
  C28      1.0000 0.14370  0.84170  0.07530  Biso   1.000  C
  C29      1.0000 0.15830  0.30200  0.40863  Biso   1.000  C
  C30      1.0000 0.69800  0.85630  0.40863  Biso   1.000  C
  H1       1.0000 0.26200  0.87100  0.76300  Biso   1.000  H
  H2       1.0000 0.12900  0.39100  0.09633  Biso   1.000  H
  H3       1.0000 0.60900  0.73800  0.09633  Biso   1.000  H
  H4       1.0000 0.17000  0.99000  0.64500  Biso   1.000  H
  H5       1.0000 0.01000  0.18000  0.97833  Biso   1.000  H
  H6       1.0000 0.82000  0.83000  0.97833  Biso   1.000  H
  H7       1.0000 0.97200  0.82000  0.57000  Biso   1.000  H
  H8       1.0000 0.18000  0.15200  0.90333  Biso   1.000  H
  H9       1.0000 0.84800  0.02800  0.90333  Biso   1.000  H
  H10      1.0000 0.82500  0.52200  0.59000  Biso   1.000  H
  H11      1.0000 0.47800  0.30300  0.92333  Biso   1.000  H
  H12      1.0000 0.69700  0.17500  0.92333  Biso   1.000  H
  H13      1.0000 0.37000  0.75000  0.90700  Biso   1.000  H
  H14      1.0000 0.25000  0.62000  0.24033  Biso   1.000  H
  H15      1.0000 0.38000  0.63000  0.24033  Biso   1.000  H
  H16      1.0000 0.50800  0.96600  0.00700  Biso   1.000  H
  H17      1.0000 0.03400  0.54200  0.34033  Biso   1.000  H
  H18      1.0000 0.45800  0.49200  0.34033  Biso   1.000  H
  H19      1.0000 0.39300  0.02000  0.10400  Biso   1.000  H
  H20      1.0000 0.98000  0.37300  0.43733  Biso   1.000  H
  H21      1.0000 0.62700  0.60700  0.43733  Biso   1.000  H
  H22      1.0000 0.08000  0.86000  0.13300  Biso   1.000  H
  H23      1.0000 0.14000  0.22000  0.46633  Biso   1.000  H
  H24      1.0000 0.78000  0.92000  0.46633  Biso   1.000  H
  N7       1.0000 0.67420  0.95530  0.68687  Biso   1.000  N
  N8       1.0000 0.28110  0.32580  0.02020  Biso   1.000  N
  Cu4      1.0000 0.41767  0.18560  0.35579  Biso   1.000  Cu
  Cu5      1.0000 0.81440  0.23207  0.35579  Biso   1.000  Cu
