data_image0
_cell_length_a       12.476
_cell_length_b       8.4932
_cell_length_c       13.1982
_cell_angle_alpha    90
_cell_angle_beta     99.004
_cell_angle_gamma    90

_symmetry_space_group_name_H-M    "P 1"
_symmetry_int_tables_number       1

loop_
  _symmetry_equiv_pos_as_xyz
  'x, y, z'

loop_
  _atom_site_label
  _atom_site_occupancy
  _atom_site_fract_x
  _atom_site_fract_y
  _atom_site_fract_z
  _atom_site_thermal_displace_type
  _atom_site_B_iso_or_equiv
  _atom_site_type_symbol
  Cu1      1.0000 0.12444  0.99935  0.42589  Biso   1.000  Cu
  Cu2      1.0000 0.62444  0.50065  0.92589  Biso   1.000  Cu
  Cu3      1.0000 0.87556  0.00065  0.57411  Biso   1.000  Cu
  Cu4      1.0000 0.37556  0.49935  0.07411  Biso   1.000  Cu
  Cl1      1.0000 0.28378  0.13130  0.44940  Biso   1.000  Cl
  Cl2      1.0000 0.78378  0.36870  0.94940  Biso   1.000  Cl
  Cl3      1.0000 0.71622  0.86870  0.55060  Biso   1.000  Cl
  Cl4      1.0000 0.21622  0.63130  0.05060  Biso   1.000  Cl
  Cl5      1.0000 0.96571  0.86040  0.40268  Biso   1.000  Cl
  Cl6      1.0000 0.46571  0.63960  0.90268  Biso   1.000  Cl
  Cl7      1.0000 0.03429  0.13960  0.59732  Biso   1.000  Cl
  Cl8      1.0000 0.53429  0.36040  0.09732  Biso   1.000  Cl
  S1       1.0000 0.09103  0.97360  0.16940  Biso   1.000  S
  S2       1.0000 0.59103  0.52640  0.66940  Biso   1.000  S
  S3       1.0000 0.90897  0.02640  0.83060  Biso   1.000  S
  S4       1.0000 0.40897  0.47360  0.33060  Biso   1.000  S
  S5       1.0000 0.29627  0.17610  0.15680  Biso   1.000  S
  S6       1.0000 0.79627  0.32390  0.65680  Biso   1.000  S
  S7       1.0000 0.70373  0.82390  0.84320  Biso   1.000  S
  S8       1.0000 0.20373  0.67610  0.34320  Biso   1.000  S
  N1       1.0000 0.05910  0.16760  0.32390  Biso   1.000  N
  N2       1.0000 0.55910  0.33240  0.82390  Biso   1.000  N
  N3       1.0000 0.94090  0.83240  0.67610  Biso   1.000  N
  N4       1.0000 0.44090  0.66760  0.17610  Biso   1.000  N
  N5       1.0000 0.29920  0.32250  0.98510  Biso   1.000  N
  N6       1.0000 0.79920  0.17750  0.48510  Biso   1.000  N
  N7       1.0000 0.70080  0.67750  0.01490  Biso   1.000  N
  N8       1.0000 0.20080  0.82250  0.51490  Biso   1.000  N
  C1       1.0000 0.05020  0.15240  0.22130  Biso   1.000  C
  C2       1.0000 0.55020  0.34760  0.72130  Biso   1.000  C
  C3       1.0000 0.94980  0.84760  0.77870  Biso   1.000  C
  C4       1.0000 0.44980  0.65240  0.27870  Biso   1.000  C
  C5       1.0000 0.00650  0.27020  0.15490  Biso   1.000  C
  C6       1.0000 0.50650  0.22980  0.65490  Biso   1.000  C
  C7       1.0000 0.99350  0.72980  0.84510  Biso   1.000  C
  C8       1.0000 0.49350  0.77020  0.34510  Biso   1.000  C
  C9       1.0000 0.97350  0.40870  0.19430  Biso   1.000  C
  C10      1.0000 0.47350  0.09130  0.69430  Biso   1.000  C
  C11      1.0000 0.02650  0.59130  0.80570  Biso   1.000  C
  C12      1.0000 0.52650  0.90870  0.30570  Biso   1.000  C
  C13      1.0000 0.98420  0.42690  0.29810  Biso   1.000  C
  C14      1.0000 0.48420  0.07310  0.79810  Biso   1.000  C
  C15      1.0000 0.01580  0.57310  0.70190  Biso   1.000  C
  C16      1.0000 0.51580  0.92690  0.20190  Biso   1.000  C
  C17      1.0000 0.02730  0.30520  0.36040  Biso   1.000  C
  C18      1.0000 0.52730  0.19480  0.86040  Biso   1.000  C
  C19      1.0000 0.97270  0.69480  0.63960  Biso   1.000  C
  C20      1.0000 0.47270  0.80520  0.13960  Biso   1.000  C
  C21      1.0000 0.23760  0.99530  0.18940  Biso   1.000  C
  C22      1.0000 0.73760  0.50470  0.68940  Biso   1.000  C
  C23      1.0000 0.76240  0.00470  0.81060  Biso   1.000  C
  C24      1.0000 0.26240  0.49530  0.31060  Biso   1.000  C
  C25      1.0000 0.26890  0.18540  0.02270  Biso   1.000  C
  C26      1.0000 0.76890  0.31460  0.52270  Biso   1.000  C
  C27      1.0000 0.73110  0.81460  0.97730  Biso   1.000  C
  C28      1.0000 0.23110  0.68540  0.47730  Biso   1.000  C
  C29      1.0000 0.21940  0.06780  0.95940  Biso   1.000  C
  C30      1.0000 0.71940  0.43220  0.45940  Biso   1.000  C
  C31      1.0000 0.78060  0.93220  0.04060  Biso   1.000  C
  C32      1.0000 0.28060  0.56780  0.54060  Biso   1.000  C
  C33      1.0000 0.19760  0.09570  0.85510  Biso   1.000  C
  C34      1.0000 0.69760  0.40430  0.35510  Biso   1.000  C
  C35      1.0000 0.80240  0.90430  0.14490  Biso   1.000  C
  C36      1.0000 0.30240  0.59570  0.64490  Biso   1.000  C
  C37      1.0000 0.22630  0.23750  0.81680  Biso   1.000  C
  C38      1.0000 0.72630  0.26250  0.31680  Biso   1.000  C
  C39      1.0000 0.77370  0.76250  0.18320  Biso   1.000  C
  C40      1.0000 0.27370  0.73750  0.68320  Biso   1.000  C
  C41      1.0000 0.27680  0.34680  0.88380  Biso   1.000  C
  C42      1.0000 0.77680  0.15320  0.38380  Biso   1.000  C
  C43      1.0000 0.72320  0.65320  0.11620  Biso   1.000  C
  C44      1.0000 0.22320  0.84680  0.61620  Biso   1.000  C
  H1       1.0000 0.00300  0.24700  0.08100  Biso   1.000  H
  H2       1.0000 0.50300  0.25300  0.58100  Biso   1.000  H
  H3       1.0000 0.99700  0.75300  0.91900  Biso   1.000  H
  H4       1.0000 0.49700  0.74700  0.41900  Biso   1.000  H
  H5       1.0000 0.95000  0.49400  0.15000  Biso   1.000  H
  H6       1.0000 0.45000  0.00600  0.65000  Biso   1.000  H
  H7       1.0000 0.05000  0.50600  0.85000  Biso   1.000  H
  H8       1.0000 0.55000  0.99400  0.35000  Biso   1.000  H
  H9       1.0000 0.96100  0.52400  0.33200  Biso   1.000  H
  H10      1.0000 0.46100  0.97600  0.83200  Biso   1.000  H
  H11      1.0000 0.03900  0.47600  0.66800  Biso   1.000  H
  H12      1.0000 0.53900  0.02400  0.16800  Biso   1.000  H
  H13      1.0000 0.03400  0.31200  0.42600  Biso   1.000  H
  H14      1.0000 0.53400  0.18800  0.92600  Biso   1.000  H
  H15      1.0000 0.96600  0.68800  0.57400  Biso   1.000  H
  H16      1.0000 0.46600  0.81200  0.07400  Biso   1.000  H
  H17      1.0000 0.26400  0.98500  0.25600  Biso   1.000  H
  H18      1.0000 0.76400  0.51500  0.75600  Biso   1.000  H
  H19      1.0000 0.73600  0.01500  0.74400  Biso   1.000  H
  H20      1.0000 0.23600  0.48500  0.24400  Biso   1.000  H
  H21      1.0000 0.26200  0.91200  0.15200  Biso   1.000  H
  H22      1.0000 0.76200  0.58800  0.65200  Biso   1.000  H
  H23      1.0000 0.73800  0.08800  0.84800  Biso   1.000  H
  H24      1.0000 0.23800  0.41200  0.34800  Biso   1.000  H
  H25      1.0000 0.20000  0.97400  0.98600  Biso   1.000  H
  H26      1.0000 0.70000  0.52600  0.48600  Biso   1.000  H
  H27      1.0000 0.80000  0.02600  0.01400  Biso   1.000  H
  H28      1.0000 0.30000  0.47400  0.51400  Biso   1.000  H
  H29      1.0000 0.17000  0.02500  0.81300  Biso   1.000  H
  H30      1.0000 0.67000  0.47500  0.31300  Biso   1.000  H
  H31      1.0000 0.83000  0.97500  0.18700  Biso   1.000  H
  H32      1.0000 0.33000  0.52500  0.68700  Biso   1.000  H
  H33      1.0000 0.21300  0.25100  0.75000  Biso   1.000  H
  H34      1.0000 0.71300  0.24900  0.25000  Biso   1.000  H
  H35      1.0000 0.78700  0.74900  0.25000  Biso   1.000  H
  H36      1.0000 0.28700  0.75100  0.75000  Biso   1.000  H
  H37      1.0000 0.30000  0.44800  0.86300  Biso   1.000  H
  H38      1.0000 0.80000  0.05200  0.36300  Biso   1.000  H
  H39      1.0000 0.70000  0.55200  0.13700  Biso   1.000  H
  H40      1.0000 0.20000  0.94800  0.63700  Biso   1.000  H
