data_image0
_cell_length_a       9.4
_cell_length_b       10.269
_cell_length_c       10.685
_cell_angle_alpha    64.61
_cell_angle_beta     75.77
_cell_angle_gamma    69.34

_symmetry_space_group_name_H-M    "P 1"
_symmetry_int_tables_number       1

loop_
  _symmetry_equiv_pos_as_xyz
  'x, y, z'

loop_
  _atom_site_label
  _atom_site_occupancy
  _atom_site_fract_x
  _atom_site_fract_y
  _atom_site_fract_z
  _atom_site_thermal_displace_type
  _atom_site_B_iso_or_equiv
  _atom_site_type_symbol
  Cs1      1.0000 0.53473  0.24328  0.88483  Biso   1.000  Cs
  Cs2      1.0000 0.46527  0.75672  0.11517  Biso   1.000  Cs
  Cu1      1.0000 0.10438  0.12665  0.48444  Biso   1.000  Cu
  Cu2      1.0000 0.89562  0.87335  0.51556  Biso   1.000  Cu
  O1       1.0000 0.89440  0.14960  0.44420  Biso   1.000  O
  O2       1.0000 0.10560  0.85040  0.55580  Biso   1.000  O
  O3       1.0000 0.01580  0.10900  0.66950  Biso   1.000  O
  O4       1.0000 0.98420  0.89100  0.33050  Biso   1.000  O
  C1       1.0000 0.95610  0.22110  0.70560  Biso   1.000  C
  C2       1.0000 0.04390  0.77890  0.29440  Biso   1.000  C
  O5       1.0000 0.88050  0.21800  0.81900  Biso   1.000  O
  O6       1.0000 0.11950  0.78200  0.18100  Biso   1.000  O
  C3       1.0000 0.97760  0.37140  0.59870  Biso   1.000  C
  C4       1.0000 0.02240  0.62860  0.40130  Biso   1.000  C
  N1       1.0000 0.05100  0.37040  0.47350  Biso   1.000  N
  N2       1.0000 0.94900  0.62960  0.52650  Biso   1.000  N
  C5       1.0000 0.92600  0.50430  0.62520  Biso   1.000  C
  C6       1.0000 0.07400  0.49570  0.37480  Biso   1.000  C
  C7       1.0000 0.84010  0.51910  0.76090  Biso   1.000  C
  C8       1.0000 0.15990  0.48090  0.23910  Biso   1.000  C
  O7       1.0000 0.91810  0.48820  0.85460  Biso   1.000  O
  O8       1.0000 0.08190  0.51180  0.14540  Biso   1.000  O
  O9       1.0000 0.69690  0.56640  0.76220  Biso   1.000  O
  O10      1.0000 0.30310  0.43360  0.23780  Biso   1.000  O
  O11      1.0000 0.18730  0.12930  0.30060  Biso   1.000  O
  O12      1.0000 0.81270  0.87070  0.69940  Biso   1.000  O
  C9       1.0000 0.33110  0.07190  0.27960  Biso   1.000  C
  C10      1.0000 0.66890  0.92810  0.72040  Biso   1.000  C
  O13      1.0000 0.39510  0.04800  0.17370  Biso   1.000  O
  O14      1.0000 0.60490  0.95200  0.82630  Biso   1.000  O
  C11      1.0000 0.42440  0.03230  0.39510  Biso   1.000  C
  C12      1.0000 0.57560  0.96770  0.60490  Biso   1.000  C
  N3       1.0000 0.34210  0.05170  0.51110  Biso   1.000  N
  N4       1.0000 0.65790  0.94830  0.48890  Biso   1.000  N
  C13      1.0000 0.58430  0.98090  0.38220  Biso   1.000  C
  C14      1.0000 0.41570  0.01910  0.61780  Biso   1.000  C
  C15      1.0000 0.67890  0.95230  0.25180  Biso   1.000  C
  C16      1.0000 0.32110  0.04770  0.74820  Biso   1.000  C
  O15      1.0000 0.71280  0.05650  0.15260  Biso   1.000  O
  O16      1.0000 0.28720  0.94350  0.84740  Biso   1.000  O
  O17      1.0000 0.71540  0.81720  0.26560  Biso   1.000  O
  O18      1.0000 0.28460  0.18280  0.73440  Biso   1.000  O
  H1       1.0000 0.83700  0.19400  0.48800  Biso   1.000  H
  H2       1.0000 0.16300  0.80600  0.51200  Biso   1.000  H
  H3       1.0000 0.87200  0.18700  0.35800  Biso   1.000  H
  H4       1.0000 0.12800  0.81300  0.64200  Biso   1.000  H
  O19      1.0000 0.66520  0.32010  0.55930  Biso   1.000  O
  O20      1.0000 0.33480  0.67990  0.44070  Biso   1.000  O
  H5       1.0000 0.67800  0.42000  0.53800  Biso   1.000  H
  H6       1.0000 0.32200  0.58000  0.46200  Biso   1.000  H
  H7       1.0000 0.57300  0.33900  0.53800  Biso   1.000  H
  H8       1.0000 0.42700  0.66100  0.46200  Biso   1.000  H
  O21      1.0000 0.38670  0.37810  0.48810  Biso   1.000  O
  O22      1.0000 0.61330  0.62190  0.51190  Biso   1.000  O
  H9       1.0000 0.35700  0.38700  0.58900  Biso   1.000  H
  H10      1.0000 0.64300  0.61300  0.41100  Biso   1.000  H
  H11      1.0000 0.33800  0.31300  0.57300  Biso   1.000  H
  H12      1.0000 0.66200  0.68700  0.42700  Biso   1.000  H
  O23      1.0000 0.20920  0.43560  0.91870  Biso   1.000  O
  O24      1.0000 0.79080  0.56440  0.08130  Biso   1.000  O
  H13      1.0000 0.13800  0.47800  0.87500  Biso   1.000  H
  H14      1.0000 0.86200  0.52200  0.12500  Biso   1.000  H
  H15      1.0000 0.16200  0.46300  0.00200  Biso   1.000  H
  H16      1.0000 0.83800  0.53700  0.99800  Biso   1.000  H
  O25      1.0000 0.76410  0.26470  0.21820  Biso   1.000  O
  O26      1.0000 0.23590  0.73530  0.78180  Biso   1.000  O
  H17      1.0000 0.75000  0.21300  0.20500  Biso   1.000  H
  H18      1.0000 0.25000  0.78700  0.79500  Biso   1.000  H
  H19      1.0000 0.71500  0.36300  0.17100  Biso   1.000  H
  H20      1.0000 0.28500  0.63700  0.82900  Biso   1.000  H
  Cs3      1.0000 0.07481  0.14265  0.04269  Biso   1.000  Cs
  Cs4      1.0000 0.92519  0.85735  0.95731  Biso   1.000  Cs
  O27      1.0000 0.45380  0.53320  0.97670  Biso   1.000  O
  O28      1.0000 0.54620  0.46680  0.02330  Biso   1.000  O
  H21      1.0000 0.40400  0.48200  0.06200  Biso   1.000  H
  H22      1.0000 0.59600  0.51800  0.93800  Biso   1.000  H
