data_image0
_cell_length_a       9.354
_cell_length_b       10.211
_cell_length_c       10.424
_cell_angle_alpha    64.04
_cell_angle_beta     75.72
_cell_angle_gamma    68.9

_symmetry_space_group_name_H-M    "P 1"
_symmetry_int_tables_number       1

loop_
  _symmetry_equiv_pos_as_xyz
  'x, y, z'

loop_
  _atom_site_label
  _atom_site_occupancy
  _atom_site_fract_x
  _atom_site_fract_y
  _atom_site_fract_z
  _atom_site_thermal_displace_type
  _atom_site_B_iso_or_equiv
  _atom_site_type_symbol
  Rb1      1.0000 0.53859  0.23467  0.88963  Biso   1.000  Rb
  Rb2      1.0000 0.46141  0.76533  0.11037  Biso   1.000  Rb
  Cu1      1.0000 0.10244  0.12505  0.48369  Biso   1.000  Cu
  Cu2      1.0000 0.89756  0.87495  0.51631  Biso   1.000  Cu
  O1       1.0000 0.89119  0.15230  0.44132  Biso   1.000  O
  O2       1.0000 0.10881  0.84770  0.55868  Biso   1.000  O
  O3       1.0000 0.01506  0.10417  0.67543  Biso   1.000  O
  O4       1.0000 0.98494  0.89583  0.32457  Biso   1.000  O
  C1       1.0000 0.95430  0.21760  0.71250  Biso   1.000  C
  C2       1.0000 0.04570  0.78240  0.28750  Biso   1.000  C
  O5       1.0000 0.87980  0.21430  0.82829  Biso   1.000  O
  O6       1.0000 0.12020  0.78570  0.17171  Biso   1.000  O
  C3       1.0000 0.97580  0.36950  0.60200  Biso   1.000  C
  C4       1.0000 0.02420  0.63050  0.39800  Biso   1.000  C
  N1       1.0000 0.04710  0.36850  0.47390  Biso   1.000  N
  N2       1.0000 0.95290  0.63150  0.52610  Biso   1.000  N
  C5       1.0000 0.92770  0.50140  0.62950  Biso   1.000  C
  C6       1.0000 0.07230  0.49860  0.37050  Biso   1.000  C
  C7       1.0000 0.83980  0.51780  0.76850  Biso   1.000  C
  C8       1.0000 0.16020  0.48220  0.23150  Biso   1.000  C
  O7       1.0000 0.91740  0.48280  0.86440  Biso   1.000  O
  O8       1.0000 0.08260  0.51720  0.13560  Biso   1.000  O
  O9       1.0000 0.69810  0.57160  0.76670  Biso   1.000  O
  O10      1.0000 0.30190  0.42840  0.23330  Biso   1.000  O
  O11      1.0000 0.18555  0.12660  0.29678  Biso   1.000  O
  O12      1.0000 0.81445  0.87340  0.70322  Biso   1.000  O
  C9       1.0000 0.32970  0.06920  0.27370  Biso   1.000  C
  C10      1.0000 0.67030  0.93080  0.72630  Biso   1.000  C
  O13      1.0000 0.39460  0.04230  0.16623  Biso   1.000  O
  O14      1.0000 0.60540  0.95770  0.83377  Biso   1.000  O
  C11      1.0000 0.42360  0.03120  0.39200  Biso   1.000  C
  C12      1.0000 0.57640  0.96880  0.60800  Biso   1.000  C
  N3       1.0000 0.34010  0.05110  0.51080  Biso   1.000  N
  N4       1.0000 0.65990  0.94890  0.48920  Biso   1.000  N
  C13      1.0000 0.58430  0.98000  0.37910  Biso   1.000  C
  C14      1.0000 0.41570  0.02000  0.62090  Biso   1.000  C
  C15      1.0000 0.68060  0.94690  0.24880  Biso   1.000  C
  C16      1.0000 0.31940  0.05310  0.75120  Biso   1.000  C
  O15      1.0000 0.71300  0.05630  0.14356  Biso   1.000  O
  O16      1.0000 0.28700  0.94370  0.85644  Biso   1.000  O
  O17      1.0000 0.71900  0.81260  0.26230  Biso   1.000  O
  O18      1.0000 0.28100  0.18740  0.73770  Biso   1.000  O
  H1       1.0000 0.88500  0.18700  0.35700  Biso   1.000  H
  H2       1.0000 0.11500  0.81300  0.64300  Biso   1.000  H
  H3       1.0000 0.83000  0.19400  0.48700  Biso   1.000  H
  H4       1.0000 0.17000  0.80600  0.51300  Biso   1.000  H
  O19      1.0000 0.66000  0.31530  0.57120  Biso   1.000  O
  O20      1.0000 0.34000  0.68470  0.42880  Biso   1.000  O
  H5       1.0000 0.66300  0.41300  0.54300  Biso   1.000  H
  H6       1.0000 0.33700  0.58700  0.45700  Biso   1.000  H
  H7       1.0000 0.59800  0.32400  0.52500  Biso   1.000  H
  H8       1.0000 0.40200  0.67600  0.47500  Biso   1.000  H
  O21      1.0000 0.38580  0.38160  0.48570  Biso   1.000  O
  O22      1.0000 0.61420  0.61840  0.51430  Biso   1.000  O
  H9       1.0000 0.35900  0.38600  0.40700  Biso   1.000  H
  H10      1.0000 0.64100  0.61400  0.59300  Biso   1.000  H
  H11      1.0000 0.33700  0.32600  0.54600  Biso   1.000  H
  H12      1.0000 0.66300  0.67400  0.45400  Biso   1.000  H
  O23      1.0000 0.22220  0.41430  0.91630  Biso   1.000  O
  O24      1.0000 0.77780  0.58570  0.08370  Biso   1.000  O
  H13      1.0000 0.13800  0.44800  0.88100  Biso   1.000  H
  H14      1.0000 0.86200  0.55200  0.11900  Biso   1.000  H
  H15      1.0000 0.19000  0.43800  0.97800  Biso   1.000  H
  H16      1.0000 0.81000  0.56200  0.02200  Biso   1.000  H
  O25      1.0000 0.78500  0.26350  0.19400  Biso   1.000  O
  O26      1.0000 0.21500  0.73650  0.80600  Biso   1.000  O
  H17      1.0000 0.74900  0.20200  0.18300  Biso   1.000  H
  H18      1.0000 0.25100  0.79800  0.81700  Biso   1.000  H
  H19      1.0000 0.71300  0.34100  0.16200  Biso   1.000  H
  H20      1.0000 0.28700  0.65900  0.83800  Biso   1.000  H
  Rb3      1.0000 0.08149  0.13841  0.04101  Biso   1.000  Rb
  Rb4      1.0000 0.91851  0.86159  0.95899  Biso   1.000  Rb
  O27      1.0000 0.45980  0.50820  0.96530  Biso   1.000  O
  O28      1.0000 0.54020  0.49180  0.03470  Biso   1.000  O
  H21      1.0000 0.52800  0.44700  0.01800  Biso   1.000  H
  H22      1.0000 0.47200  0.55300  0.98200  Biso   1.000  H
