data_image0
_cell_length_a       9.34
_cell_length_b       10.166
_cell_length_c       10.208
_cell_angle_alpha    63.7
_cell_angle_beta     75.73
_cell_angle_gamma    68.27

_symmetry_space_group_name_H-M    "P 1"
_symmetry_int_tables_number       1

loop_
  _symmetry_equiv_pos_as_xyz
  'x, y, z'

loop_
  _atom_site_label
  _atom_site_occupancy
  _atom_site_fract_x
  _atom_site_fract_y
  _atom_site_fract_z
  _atom_site_thermal_displace_type
  _atom_site_B_iso_or_equiv
  _atom_site_type_symbol
  K1       1.0000 0.53824  0.22612  0.89309  Biso   1.000  K
  K2       1.0000 0.46176  0.77388  0.10691  Biso   1.000  K
  Cu1      1.0000 0.10072  0.12384  0.48345  Biso   1.000  Cu
  Cu2      1.0000 0.89928  0.87616  0.51655  Biso   1.000  Cu
  O1       1.0000 0.88814  0.15442  0.43868  Biso   1.000  O
  O2       1.0000 0.11186  0.84558  0.56132  Biso   1.000  O
  O3       1.0000 0.01418  0.10086  0.68068  Biso   1.000  O
  O4       1.0000 0.98582  0.89914  0.31932  Biso   1.000  O
  C1       1.0000 0.95450  0.21590  0.71800  Biso   1.000  C
  C2       1.0000 0.04550  0.78410  0.28200  Biso   1.000  C
  O5       1.0000 0.88187  0.21074  0.83718  Biso   1.000  O
  O6       1.0000 0.11813  0.78926  0.16282  Biso   1.000  O
  C3       1.0000 0.97689  0.36853  0.60398  Biso   1.000  C
  C4       1.0000 0.02311  0.63147  0.39602  Biso   1.000  C
  N1       1.0000 0.04674  0.36819  0.47300  Biso   1.000  N
  N2       1.0000 0.95326  0.63181  0.52700  Biso   1.000  N
  C5       1.0000 0.92940  0.50150  0.63179  Biso   1.000  C
  C6       1.0000 0.07060  0.49850  0.36821  Biso   1.000  C
  C7       1.0000 0.84240  0.51660  0.77420  Biso   1.000  C
  C8       1.0000 0.15760  0.48340  0.22580  Biso   1.000  C
  O7       1.0000 0.92010  0.47840  0.87334  Biso   1.000  O
  O8       1.0000 0.07990  0.52160  0.12666  Biso   1.000  O
  O9       1.0000 0.69940  0.57740  0.77190  Biso   1.000  O
  O10      1.0000 0.30060  0.42260  0.22810  Biso   1.000  O
  O11      1.0000 0.18322  0.12370  0.29260  Biso   1.000  O
  O12      1.0000 0.81678  0.87630  0.70740  Biso   1.000  O
  C9       1.0000 0.32860  0.06600  0.26970  Biso   1.000  C
  C10      1.0000 0.67140  0.93400  0.73030  Biso   1.000  C
  O13      1.0000 0.39426  0.03713  0.16122  Biso   1.000  O
  O14      1.0000 0.60574  0.96287  0.83878  Biso   1.000  O
  C11      1.0000 0.42288  0.03027  0.39047  Biso   1.000  C
  C12      1.0000 0.57712  0.96973  0.60953  Biso   1.000  C
  N3       1.0000 0.34006  0.05035  0.51114  Biso   1.000  N
  N4       1.0000 0.65994  0.94965  0.48886  Biso   1.000  N
  C13      1.0000 0.58530  0.97875  0.37740  Biso   1.000  C
  C14      1.0000 0.41470  0.02125  0.62260  Biso   1.000  C
  C15      1.0000 0.68130  0.94650  0.24370  Biso   1.000  C
  C16      1.0000 0.31870  0.05350  0.75630  Biso   1.000  C
  O15      1.0000 0.70974  0.05700  0.13456  Biso   1.000  O
  O16      1.0000 0.29026  0.94300  0.86544  Biso   1.000  O
  O17      1.0000 0.72375  0.80899  0.25954  Biso   1.000  O
  O18      1.0000 0.27625  0.19101  0.74046  Biso   1.000  O
  H1       1.0000 0.87800  0.19100  0.35600  Biso   1.000  H
  H2       1.0000 0.12200  0.80900  0.64400  Biso   1.000  H
  H3       1.0000 0.82200  0.22100  0.48200  Biso   1.000  H
  H4       1.0000 0.17800  0.77900  0.51800  Biso   1.000  H
  O19      1.0000 0.65730  0.31160  0.58070  Biso   1.000  O
  O20      1.0000 0.34270  0.68840  0.41930  Biso   1.000  O
  H5       1.0000 0.66500  0.41000  0.53800  Biso   1.000  H
  H6       1.0000 0.33500  0.59000  0.46200  Biso   1.000  H
  H7       1.0000 0.59400  0.33500  0.53000  Biso   1.000  H
  H8       1.0000 0.40600  0.66500  0.47000  Biso   1.000  H
  O21      1.0000 0.38590  0.38160  0.48280  Biso   1.000  O
  O22      1.0000 0.61410  0.61840  0.51720  Biso   1.000  O
  H9       1.0000 0.38400  0.37400  0.39400  Biso   1.000  H
  H10      1.0000 0.61600  0.62600  0.60600  Biso   1.000  H
  H11      1.0000 0.33700  0.34300  0.54800  Biso   1.000  H
  H12      1.0000 0.66300  0.65700  0.45200  Biso   1.000  H
  O23      1.0000 0.23460  0.39470  0.91880  Biso   1.000  O
  O24      1.0000 0.76540  0.60530  0.08120  Biso   1.000  O
  H13      1.0000 0.19200  0.42500  0.99800  Biso   1.000  H
  H14      1.0000 0.80800  0.57500  0.00200  Biso   1.000  H
  H15      1.0000 0.16100  0.42600  0.88400  Biso   1.000  H
  H16      1.0000 0.83900  0.57400  0.11600  Biso   1.000  H
  O25      1.0000 0.79740  0.26120  0.17790  Biso   1.000  O
  O26      1.0000 0.20260  0.73880  0.82210  Biso   1.000  O
  H17      1.0000 0.72100  0.33700  0.17500  Biso   1.000  H
  H18      1.0000 0.27900  0.66300  0.82500  Biso   1.000  H
  H19      1.0000 0.76300  0.19600  0.16000  Biso   1.000  H
  H20      1.0000 0.23700  0.80400  0.84000  Biso   1.000  H
  K3       1.0000 0.08737  0.13329  0.04176  Biso   1.000  K
  K4       1.0000 0.91263  0.86671  0.95824  Biso   1.000  K
  O27      1.0000 0.47900  0.47130  0.96190  Biso   1.000  O
  O28      1.0000 0.52100  0.52870  0.03810  Biso   1.000  O
  H21      1.0000 0.55500  0.41600  0.02400  Biso   1.000  H
  H22      1.0000 0.44500  0.58400  0.97600  Biso   1.000  H
