data_image0
_cell_length_a       6.019
_cell_length_b       7.003
_cell_length_c       11.185
_cell_angle_alpha    89.19
_cell_angle_beta     74.61
_cell_angle_gamma    89.83

_symmetry_space_group_name_H-M    "P 1"
_symmetry_int_tables_number       1

loop_
  _symmetry_equiv_pos_as_xyz
  'x, y, z'

loop_
  _atom_site_label
  _atom_site_occupancy
  _atom_site_fract_x
  _atom_site_fract_y
  _atom_site_fract_z
  _atom_site_thermal_displace_type
  _atom_site_B_iso_or_equiv
  _atom_site_type_symbol
  Cu1      1.0000 0.00000  0.00000  0.00000  Biso   1.000  Cu
  N1       1.0000 0.97077  0.69537  0.01218  Biso   1.000  N
  N2       1.0000 0.02923  0.30463  0.98782  Biso   1.000  N
  O1       1.0000 0.29237  0.93748  0.89299  Biso   1.000  O
  O2       1.0000 0.70763  0.06252  0.10701  Biso   1.000  O
  O3       1.0000 0.52385  0.70501  0.80143  Biso   1.000  O
  O4       1.0000 0.47615  0.29499  0.19857  Biso   1.000  O
  O5       1.0000 0.62350  0.69310  0.26873  Biso   1.000  O
  O6       1.0000 0.37650  0.30690  0.73127  Biso   1.000  O
  O7       1.0000 0.41912  0.69196  0.12795  Biso   1.000  O
  O8       1.0000 0.58088  0.30804  0.87205  Biso   1.000  O
  C1       1.0000 0.16360  0.62068  0.93904  Biso   1.000  C
  C2       1.0000 0.83640  0.37932  0.06096  Biso   1.000  C
  C3       1.0000 0.80390  0.57540  0.07429  Biso   1.000  C
  C4       1.0000 0.19610  0.42460  0.92571  Biso   1.000  C
  C5       1.0000 0.34260  0.76376  0.87153  Biso   1.000  C
  C6       1.0000 0.65740  0.23624  0.12847  Biso   1.000  C
  C7       1.0000 0.59320  0.66087  0.16440  Biso   1.000  C
  C8       1.0000 0.40680  0.33913  0.83560  Biso   1.000  C
  O9       1.0000 0.15590  0.01350  0.17387  Biso   1.000  O
  O10      1.0000 0.84410  0.98650  0.82613  Biso   1.000  O
  H1       1.0000 0.24900  0.92800  0.16900  Biso   1.000  H
  H2       1.0000 0.75100  0.07200  0.83100  Biso   1.000  H
  H3       1.0000 0.22000  0.08900  0.17900  Biso   1.000  H
  H4       1.0000 0.78000  0.91100  0.82100  Biso   1.000  H
  Mg1      1.0000 0.00000  0.50000  0.50000  Biso   1.000  Mg
  O11      1.0000 0.29350  0.64870  0.49191  Biso   1.000  O
  O12      1.0000 0.70650  0.35130  0.50809  Biso   1.000  O
  O13      1.0000 0.02210  0.55840  0.31621  Biso   1.000  O
  O14      1.0000 0.97790  0.44160  0.68379  Biso   1.000  O
  O15      1.0000 0.80790  0.74270  0.55824  Biso   1.000  O
  O16      1.0000 0.19210  0.25730  0.44176  Biso   1.000  O
  H5       1.0000 0.38400  0.66000  0.44300  Biso   1.000  H
  H6       1.0000 0.61600  0.34000  0.55700  Biso   1.000  H
  H7       1.0000 0.28300  0.74200  0.52600  Biso   1.000  H
  H8       1.0000 0.71700  0.25800  0.47400  Biso   1.000  H
  H9       1.0000 0.93400  0.59000  0.30300  Biso   1.000  H
  H10      1.0000 0.06600  0.41000  0.69700  Biso   1.000  H
  H11      1.0000 0.12400  0.59200  0.27500  Biso   1.000  H
  H12      1.0000 0.87600  0.40800  0.72500  Biso   1.000  H
  H13      1.0000 0.79600  0.82600  0.51500  Biso   1.000  H
  H14      1.0000 0.20400  0.17400  0.48500  Biso   1.000  H
  H15      1.0000 0.73400  0.74100  0.61600  Biso   1.000  H
  H16      1.0000 0.26600  0.25900  0.38400  Biso   1.000  H
  O17      1.0000 0.76420  0.01224  0.38163  Biso   1.000  O
  O18      1.0000 0.23580  0.98776  0.61837  Biso   1.000  O
  H17      1.0000 0.68600  0.95900  0.34600  Biso   1.000  H
  H18      1.0000 0.31400  0.04100  0.65400  Biso   1.000  H
  H19      1.0000 0.87100  0.01500  0.34100  Biso   1.000  H
  H20      1.0000 0.12900  0.98500  0.65900  Biso   1.000  H
