data_image0
_cell_length_a       27.347
_cell_length_b       13.317
_cell_length_c       13.523
_cell_angle_alpha    90
_cell_angle_beta     110.869
_cell_angle_gamma    90

_symmetry_space_group_name_H-M    "P 1"
_symmetry_int_tables_number       1

loop_
  _symmetry_equiv_pos_as_xyz
  'x, y, z'

loop_
  _atom_site_label
  _atom_site_occupancy
  _atom_site_fract_x
  _atom_site_fract_y
  _atom_site_fract_z
  _atom_site_thermal_displace_type
  _atom_site_B_iso_or_equiv
  _atom_site_type_symbol
  Cu1      1.0000 0.64040  0.38788  0.20276  Biso   1.000  Cu
  Cu2      1.0000 0.35960  0.38788  0.29724  Biso   1.000  Cu
  Cu3      1.0000 0.14040  0.88788  0.20276  Biso   1.000  Cu
  Cu4      1.0000 0.85960  0.88788  0.29724  Biso   1.000  Cu
  Cu5      1.0000 0.35960  0.61212  0.79724  Biso   1.000  Cu
  Cu6      1.0000 0.64040  0.61212  0.70276  Biso   1.000  Cu
  Cu7      1.0000 0.85960  0.11212  0.79724  Biso   1.000  Cu
  Cu8      1.0000 0.14040  0.11212  0.70276  Biso   1.000  Cu
  C1       1.0000 0.70416  0.48170  0.35840  Biso   1.000  C
  C2       1.0000 0.29584  0.48170  0.14160  Biso   1.000  C
  C3       1.0000 0.20416  0.98170  0.35840  Biso   1.000  C
  C4       1.0000 0.79584  0.98170  0.14160  Biso   1.000  C
  C5       1.0000 0.29584  0.51830  0.64160  Biso   1.000  C
  C6       1.0000 0.70416  0.51830  0.85840  Biso   1.000  C
  C7       1.0000 0.79584  0.01830  0.64160  Biso   1.000  C
  C8       1.0000 0.20416  0.01830  0.85840  Biso   1.000  C
  C9       1.0000 0.74166  0.55500  0.42990  Biso   1.000  C
  C10      1.0000 0.25834  0.55500  0.07010  Biso   1.000  C
  C11      1.0000 0.24166  0.05500  0.42990  Biso   1.000  C
  C12      1.0000 0.75834  0.05500  0.07010  Biso   1.000  C
  C13      1.0000 0.25834  0.44500  0.57010  Biso   1.000  C
  C14      1.0000 0.74166  0.44500  0.92990  Biso   1.000  C
  C15      1.0000 0.75834  0.94500  0.57010  Biso   1.000  C
  C16      1.0000 0.24166  0.94500  0.92990  Biso   1.000  C
  C17      1.0000 0.76811  0.62440  0.39140  Biso   1.000  C
  C18      1.0000 0.23189  0.62440  0.10860  Biso   1.000  C
  C19      1.0000 0.26811  0.12440  0.39140  Biso   1.000  C
  C20      1.0000 0.73189  0.12440  0.10860  Biso   1.000  C
  C21      1.0000 0.23189  0.37560  0.60860  Biso   1.000  C
  C22      1.0000 0.76811  0.37560  0.89140  Biso   1.000  C
  C23      1.0000 0.73189  0.87560  0.60860  Biso   1.000  C
  C24      1.0000 0.26811  0.87560  0.89140  Biso   1.000  C
  H1       1.0000 0.76250  0.62600  0.31790  Biso   1.000  H
  H2       1.0000 0.23750  0.62600  0.18210  Biso   1.000  H
  H3       1.0000 0.26250  0.12600  0.31790  Biso   1.000  H
  H4       1.0000 0.73750  0.12600  0.18210  Biso   1.000  H
  H5       1.0000 0.23750  0.37400  0.68210  Biso   1.000  H
  H6       1.0000 0.76250  0.37400  0.81790  Biso   1.000  H
  H7       1.0000 0.73750  0.87400  0.68210  Biso   1.000  H
  H8       1.0000 0.26250  0.87400  0.81790  Biso   1.000  H
  C25      1.0000 0.80265  0.69130  0.45920  Biso   1.000  C
  C26      1.0000 0.19735  0.69130  0.04080  Biso   1.000  C
  C27      1.0000 0.30265  0.19130  0.45920  Biso   1.000  C
  C28      1.0000 0.69735  0.19130  0.04080  Biso   1.000  C
  C29      1.0000 0.19735  0.30870  0.54080  Biso   1.000  C
  C30      1.0000 0.80265  0.30870  0.95920  Biso   1.000  C
  C31      1.0000 0.69735  0.80870  0.54080  Biso   1.000  C
  C32      1.0000 0.30265  0.80870  0.95920  Biso   1.000  C
  C33      1.0000 0.81094  0.68740  0.56490  Biso   1.000  C
  C34      1.0000 0.18906  0.68740  0.93510  Biso   1.000  C
  C35      1.0000 0.31094  0.18740  0.56490  Biso   1.000  C
  C36      1.0000 0.68906  0.18740  0.93510  Biso   1.000  C
  C37      1.0000 0.18906  0.31260  0.43510  Biso   1.000  C
  C38      1.0000 0.81094  0.31260  0.06490  Biso   1.000  C
  C39      1.0000 0.68906  0.81260  0.43510  Biso   1.000  C
  C40      1.0000 0.31094  0.81260  0.06490  Biso   1.000  C
  H9       1.0000 0.83490  0.73310  0.61160  Biso   1.000  H
  H10      1.0000 0.16510  0.73310  0.88840  Biso   1.000  H
  H11      1.0000 0.33490  0.23310  0.61160  Biso   1.000  H
  H12      1.0000 0.66510  0.23310  0.88840  Biso   1.000  H
  H13      1.0000 0.16510  0.26690  0.38840  Biso   1.000  H
  H14      1.0000 0.83490  0.26690  0.11160  Biso   1.000  H
  H15      1.0000 0.66510  0.76690  0.38840  Biso   1.000  H
  H16      1.0000 0.33490  0.76690  0.11160  Biso   1.000  H
  C41      1.0000 0.78525  0.61840  0.60520  Biso   1.000  C
  C42      1.0000 0.21475  0.61840  0.89480  Biso   1.000  C
  C43      1.0000 0.28525  0.11840  0.60520  Biso   1.000  C
  C44      1.0000 0.71475  0.11840  0.89480  Biso   1.000  C
  C45      1.0000 0.21475  0.38160  0.39480  Biso   1.000  C
  C46      1.0000 0.78525  0.38160  0.10520  Biso   1.000  C
  C47      1.0000 0.71475  0.88160  0.39480  Biso   1.000  C
  C48      1.0000 0.28525  0.88160  0.10520  Biso   1.000  C
  C49      1.0000 0.75013  0.55260  0.53690  Biso   1.000  C
  C50      1.0000 0.24987  0.55260  0.96310  Biso   1.000  C
  C51      1.0000 0.25013  0.05260  0.53690  Biso   1.000  C
  C52      1.0000 0.74987  0.05260  0.96310  Biso   1.000  C
  C53      1.0000 0.24987  0.44740  0.46310  Biso   1.000  C
  C54      1.0000 0.75013  0.44740  0.03690  Biso   1.000  C
  C55      1.0000 0.74987  0.94740  0.46310  Biso   1.000  C
  C56      1.0000 0.25013  0.94740  0.03690  Biso   1.000  C
  H17      1.0000 0.73180  0.50560  0.56350  Biso   1.000  H
  H18      1.0000 0.26820  0.50560  0.93650  Biso   1.000  H
  H19      1.0000 0.23180  0.00560  0.56350  Biso   1.000  H
  H20      1.0000 0.76820  0.00560  0.93650  Biso   1.000  H
  H21      1.0000 0.26820  0.49440  0.43650  Biso   1.000  H
  H22      1.0000 0.73180  0.49440  0.06350  Biso   1.000  H
  H23      1.0000 0.76820  0.99440  0.43650  Biso   1.000  H
  H24      1.0000 0.23180  0.99440  0.06350  Biso   1.000  H
  C57      1.0000 0.83066  0.77050  0.41980  Biso   1.000  C
  C58      1.0000 0.16934  0.77050  0.08020  Biso   1.000  C
  C59      1.0000 0.33066  0.27050  0.41980  Biso   1.000  C
  C60      1.0000 0.66934  0.27050  0.08020  Biso   1.000  C
  C61      1.0000 0.16934  0.22950  0.58020  Biso   1.000  C
  C62      1.0000 0.83066  0.22950  0.91980  Biso   1.000  C
  C63      1.0000 0.66934  0.72950  0.58020  Biso   1.000  C
  C64      1.0000 0.33066  0.72950  0.91980  Biso   1.000  C
  C65      1.0000 0.84010  0.61420  0.79300  Biso   1.000  C
  C66      1.0000 0.15990  0.61420  0.70700  Biso   1.000  C
  C67      1.0000 0.34010  0.11420  0.79300  Biso   1.000  C
  C68      1.0000 0.65990  0.11420  0.70700  Biso   1.000  C
  C69      1.0000 0.15990  0.38580  0.20700  Biso   1.000  C
  C70      1.0000 0.84010  0.38580  0.29300  Biso   1.000  C
  C71      1.0000 0.65990  0.88580  0.20700  Biso   1.000  C
  C72      1.0000 0.34010  0.88580  0.29300  Biso   1.000  C
  C73      1.0000 0.83950  0.61480  0.90240  Biso   1.000  C
  C74      1.0000 0.16050  0.61480  0.59760  Biso   1.000  C
  C75      1.0000 0.33950  0.11480  0.90240  Biso   1.000  C
  C76      1.0000 0.66050  0.11480  0.59760  Biso   1.000  C
  C77      1.0000 0.16050  0.38520  0.09760  Biso   1.000  C
  C78      1.0000 0.83950  0.38520  0.40240  Biso   1.000  C
  C79      1.0000 0.66050  0.88520  0.09760  Biso   1.000  C
  C80      1.0000 0.33950  0.88520  0.40240  Biso   1.000  C
  C81      1.0000 0.87000  0.54690  0.97660  Biso   1.000  C
  C82      1.0000 0.13000  0.54690  0.52340  Biso   1.000  C
  C83      1.0000 0.37000  0.04690  0.97660  Biso   1.000  C
  C84      1.0000 0.63000  0.04690  0.52340  Biso   1.000  C
  C85      1.0000 0.13000  0.45310  0.02340  Biso   1.000  C
  C86      1.0000 0.87000  0.45310  0.47660  Biso   1.000  C
  C87      1.0000 0.63000  0.95310  0.02340  Biso   1.000  C
  C88      1.0000 0.37000  0.95310  0.47660  Biso   1.000  C
  H25      1.0000 0.89010  0.49770  0.95700  Biso   1.000  H
  H26      1.0000 0.10990  0.49770  0.54300  Biso   1.000  H
  H27      1.0000 0.39010  0.99770  0.95700  Biso   1.000  H
  H28      1.0000 0.60990  0.99770  0.54300  Biso   1.000  H
  H29      1.0000 0.10990  0.50230  0.04300  Biso   1.000  H
  H30      1.0000 0.89010  0.50230  0.45700  Biso   1.000  H
  H31      1.0000 0.60990  0.00230  0.04300  Biso   1.000  H
  H32      1.0000 0.39010  0.00230  0.45700  Biso   1.000  H
  C89      1.0000 0.87100  0.55160  0.07780  Biso   1.000  C
  C90      1.0000 0.12900  0.55160  0.42220  Biso   1.000  C
  C91      1.0000 0.37100  0.05160  0.07780  Biso   1.000  C
  C92      1.0000 0.62900  0.05160  0.42220  Biso   1.000  C
  C93      1.0000 0.12900  0.44840  0.92220  Biso   1.000  C
  C94      1.0000 0.87100  0.44840  0.57780  Biso   1.000  C
  C95      1.0000 0.62900  0.94840  0.92220  Biso   1.000  C
  C96      1.0000 0.37100  0.94840  0.57780  Biso   1.000  C
  H33      1.0000 0.89070  0.50240  0.12660  Biso   1.000  H
  H34      1.0000 0.10930  0.50240  0.37340  Biso   1.000  H
  H35      1.0000 0.39070  0.00240  0.12660  Biso   1.000  H
  H36      1.0000 0.60930  0.00240  0.37340  Biso   1.000  H
  H37      1.0000 0.10930  0.49760  0.87340  Biso   1.000  H
  H38      1.0000 0.89070  0.49760  0.62660  Biso   1.000  H
  H39      1.0000 0.60930  0.99760  0.87340  Biso   1.000  H
  H40      1.0000 0.39070  0.99760  0.62660  Biso   1.000  H
  C97      1.0000 0.81700  0.68490  0.04260  Biso   1.000  C
  C98      1.0000 0.18300  0.68490  0.45740  Biso   1.000  C
  C99      1.0000 0.31700  0.18490  0.04260  Biso   1.000  C
  C100     1.0000 0.68300  0.18490  0.45740  Biso   1.000  C
  C101     1.0000 0.18300  0.31510  0.95740  Biso   1.000  C
  C102     1.0000 0.81700  0.31510  0.54260  Biso   1.000  C
  C103     1.0000 0.68300  0.81510  0.95740  Biso   1.000  C
  C104     1.0000 0.31700  0.81510  0.54260  Biso   1.000  C
  H41      1.0000 0.79870  0.73460  0.06610  Biso   1.000  H
  H42      1.0000 0.20130  0.73460  0.43390  Biso   1.000  H
  H43      1.0000 0.29870  0.23460  0.06610  Biso   1.000  H
  H44      1.0000 0.70130  0.23460  0.43390  Biso   1.000  H
  H45      1.0000 0.20130  0.26540  0.93390  Biso   1.000  H
  H46      1.0000 0.79870  0.26540  0.56610  Biso   1.000  H
  H47      1.0000 0.70130  0.76540  0.93390  Biso   1.000  H
  H48      1.0000 0.29870  0.76540  0.56610  Biso   1.000  H
  C105     1.0000 0.81170  0.68380  0.93520  Biso   1.000  C
  C106     1.0000 0.18830  0.68380  0.56480  Biso   1.000  C
  C107     1.0000 0.31170  0.18380  0.93520  Biso   1.000  C
  C108     1.0000 0.68830  0.18380  0.56480  Biso   1.000  C
  C109     1.0000 0.18830  0.31620  0.06480  Biso   1.000  C
  C110     1.0000 0.81170  0.31620  0.43520  Biso   1.000  C
  C111     1.0000 0.68830  0.81620  0.06480  Biso   1.000  C
  C112     1.0000 0.31170  0.81620  0.43520  Biso   1.000  C
  H49      1.0000 0.78920  0.73020  0.88660  Biso   1.000  H
  H50      1.0000 0.21080  0.73020  0.61340  Biso   1.000  H
  H51      1.0000 0.28920  0.23020  0.88660  Biso   1.000  H
  H52      1.0000 0.71080  0.23020  0.61340  Biso   1.000  H
  H53      1.0000 0.21080  0.26980  0.11340  Biso   1.000  H
  H54      1.0000 0.78920  0.26980  0.38660  Biso   1.000  H
  H55      1.0000 0.71080  0.76980  0.11340  Biso   1.000  H
  H56      1.0000 0.28920  0.76980  0.38660  Biso   1.000  H
  C113     1.0000 0.57300  0.20400  0.16750  Biso   1.000  C
  C114     1.0000 0.42700  0.20400  0.33250  Biso   1.000  C
  C115     1.0000 0.07300  0.70400  0.16750  Biso   1.000  C
  C116     1.0000 0.92700  0.70400  0.33250  Biso   1.000  C
  C117     1.0000 0.42700  0.79600  0.83250  Biso   1.000  C
  C118     1.0000 0.57300  0.79600  0.66750  Biso   1.000  C
  C119     1.0000 0.92700  0.29600  0.83250  Biso   1.000  C
  C120     1.0000 0.07300  0.29600  0.66750  Biso   1.000  C
  H57      1.0000 0.60390  0.16430  0.18740  Biso   1.000  H
  H58      1.0000 0.39610  0.16430  0.31260  Biso   1.000  H
  H59      1.0000 0.10390  0.66430  0.18740  Biso   1.000  H
  H60      1.0000 0.89610  0.66430  0.31260  Biso   1.000  H
  H61      1.0000 0.39610  0.83570  0.81260  Biso   1.000  H
  H62      1.0000 0.60390  0.83570  0.68740  Biso   1.000  H
  H63      1.0000 0.89610  0.33570  0.81260  Biso   1.000  H
  H64      1.0000 0.10390  0.33570  0.68740  Biso   1.000  H
  C121     1.0000 0.52350  0.15710  0.13460  Biso   1.000  C
  C122     1.0000 0.47650  0.15710  0.36540  Biso   1.000  C
  C123     1.0000 0.02350  0.65710  0.13460  Biso   1.000  C
  C124     1.0000 0.97650  0.65710  0.36540  Biso   1.000  C
  C125     1.0000 0.47650  0.84290  0.86540  Biso   1.000  C
  C126     1.0000 0.52350  0.84290  0.63460  Biso   1.000  C
  C127     1.0000 0.97650  0.34290  0.86540  Biso   1.000  C
  C128     1.0000 0.02350  0.34290  0.63460  Biso   1.000  C
  H65      1.0000 0.52080  0.08600  0.13210  Biso   1.000  H
  H66      1.0000 0.47920  0.08600  0.36790  Biso   1.000  H
  H67      1.0000 0.02080  0.58600  0.13210  Biso   1.000  H
  H68      1.0000 0.97920  0.58600  0.36790  Biso   1.000  H
  H69      1.0000 0.47920  0.91400  0.86790  Biso   1.000  H
  H70      1.0000 0.52080  0.91400  0.63210  Biso   1.000  H
  H71      1.0000 0.97920  0.41400  0.86790  Biso   1.000  H
  H72      1.0000 0.02080  0.41400  0.63210  Biso   1.000  H
  C129     1.0000 0.48070  0.21380  0.10720  Biso   1.000  C
  C130     1.0000 0.51930  0.21380  0.39280  Biso   1.000  C
  C131     1.0000 0.98070  0.71380  0.10720  Biso   1.000  C
  C132     1.0000 0.01930  0.71380  0.39280  Biso   1.000  C
  C133     1.0000 0.51930  0.78620  0.89280  Biso   1.000  C
  C134     1.0000 0.48070  0.78620  0.60720  Biso   1.000  C
  C135     1.0000 0.01930  0.28620  0.89280  Biso   1.000  C
  C136     1.0000 0.98070  0.28620  0.60720  Biso   1.000  C
  H73      1.0000 0.44760  0.18130  0.08320  Biso   1.000  H
  H74      1.0000 0.55240  0.18130  0.41680  Biso   1.000  H
  H75      1.0000 0.94760  0.68130  0.08320  Biso   1.000  H
  H76      1.0000 0.05240  0.68130  0.41680  Biso   1.000  H
  H77      1.0000 0.55240  0.81870  0.91680  Biso   1.000  H
  H78      1.0000 0.44760  0.81870  0.58320  Biso   1.000  H
  H79      1.0000 0.05240  0.31870  0.91680  Biso   1.000  H
  H80      1.0000 0.94760  0.31870  0.58320  Biso   1.000  H
  C137     1.0000 0.48180  0.31810  0.11180  Biso   1.000  C
  C138     1.0000 0.51820  0.31810  0.38820  Biso   1.000  C
  C139     1.0000 0.98180  0.81810  0.11180  Biso   1.000  C
  C140     1.0000 0.01820  0.81810  0.38820  Biso   1.000  C
  C141     1.0000 0.51820  0.68190  0.88820  Biso   1.000  C
  C142     1.0000 0.48180  0.68190  0.61180  Biso   1.000  C
  C143     1.0000 0.01820  0.18190  0.88820  Biso   1.000  C
  C144     1.0000 0.98180  0.18190  0.61180  Biso   1.000  C
  C145     1.0000 0.43770  0.38690  0.08520  Biso   1.000  C
  C146     1.0000 0.56230  0.38690  0.41480  Biso   1.000  C
  C147     1.0000 0.93770  0.88690  0.08520  Biso   1.000  C
  C148     1.0000 0.06230  0.88690  0.41480  Biso   1.000  C
  C149     1.0000 0.56230  0.61310  0.91480  Biso   1.000  C
  C150     1.0000 0.43770  0.61310  0.58520  Biso   1.000  C
  C151     1.0000 0.06230  0.11310  0.91480  Biso   1.000  C
  C152     1.0000 0.93770  0.11310  0.58520  Biso   1.000  C
  H81      1.0000 0.40320  0.36090  0.06400  Biso   1.000  H
  H82      1.0000 0.59680  0.36090  0.43600  Biso   1.000  H
  H83      1.0000 0.90320  0.86090  0.06400  Biso   1.000  H
  H84      1.0000 0.09680  0.86090  0.43600  Biso   1.000  H
  H85      1.0000 0.59680  0.63910  0.93600  Biso   1.000  H
  H86      1.0000 0.40320  0.63910  0.56400  Biso   1.000  H
  H87      1.0000 0.09680  0.13910  0.93600  Biso   1.000  H
  H88      1.0000 0.90320  0.13910  0.56400  Biso   1.000  H
  C153     1.0000 0.44480  0.48220  0.08980  Biso   1.000  C
  C154     1.0000 0.55520  0.48220  0.41020  Biso   1.000  C
  C155     1.0000 0.94480  0.98220  0.08980  Biso   1.000  C
  C156     1.0000 0.05520  0.98220  0.41020  Biso   1.000  C
  C157     1.0000 0.55520  0.51780  0.91020  Biso   1.000  C
  C158     1.0000 0.44480  0.51780  0.58980  Biso   1.000  C
  C159     1.0000 0.05520  0.01780  0.91020  Biso   1.000  C
  C160     1.0000 0.94480  0.01780  0.58980  Biso   1.000  C
  H89      1.0000 0.41450  0.52350  0.07000  Biso   1.000  H
  H90      1.0000 0.58550  0.52350  0.43000  Biso   1.000  H
  H91      1.0000 0.91450  0.02350  0.07000  Biso   1.000  H
  H92      1.0000 0.08550  0.02350  0.43000  Biso   1.000  H
  H93      1.0000 0.58550  0.47650  0.93000  Biso   1.000  H
  H94      1.0000 0.41450  0.47650  0.57000  Biso   1.000  H
  H95      1.0000 0.08550  0.97650  0.93000  Biso   1.000  H
  H96      1.0000 0.91450  0.97650  0.57000  Biso   1.000  H
  C161     1.0000 0.49350  0.53040  0.12160  Biso   1.000  C
  C162     1.0000 0.50650  0.53040  0.37840  Biso   1.000  C
  C163     1.0000 0.99350  0.03040  0.12160  Biso   1.000  C
  C164     1.0000 0.00650  0.03040  0.37840  Biso   1.000  C
  C165     1.0000 0.50650  0.46960  0.87840  Biso   1.000  C
  C166     1.0000 0.49350  0.46960  0.62160  Biso   1.000  C
  C167     1.0000 0.00650  0.96960  0.87840  Biso   1.000  C
  C168     1.0000 0.99350  0.96960  0.62160  Biso   1.000  C
  C169     1.0000 0.50460  0.63070  0.12860  Biso   1.000  C
  C170     1.0000 0.49540  0.63070  0.37140  Biso   1.000  C
  C171     1.0000 0.00460  0.13070  0.12860  Biso   1.000  C
  C172     1.0000 0.99540  0.13070  0.37140  Biso   1.000  C
  C173     1.0000 0.49540  0.36930  0.87140  Biso   1.000  C
  C174     1.0000 0.50460  0.36930  0.62860  Biso   1.000  C
  C175     1.0000 0.99540  0.86930  0.87140  Biso   1.000  C
  C176     1.0000 0.00460  0.86930  0.62860  Biso   1.000  C
  H97      1.0000 0.47640  0.67720  0.10920  Biso   1.000  H
  H98      1.0000 0.52360  0.67720  0.39080  Biso   1.000  H
  H99      1.0000 0.97640  0.17720  0.10920  Biso   1.000  H
  H100     1.0000 0.02360  0.17720  0.39080  Biso   1.000  H
  H101     1.0000 0.52360  0.32280  0.89080  Biso   1.000  H
  H102     1.0000 0.47640  0.32280  0.60920  Biso   1.000  H
  H103     1.0000 0.02360  0.82280  0.89080  Biso   1.000  H
  H104     1.0000 0.97640  0.82280  0.60920  Biso   1.000  H
  C177     1.0000 0.55250  0.66510  0.16090  Biso   1.000  C
  C178     1.0000 0.44750  0.66510  0.33910  Biso   1.000  C
  C179     1.0000 0.05250  0.16510  0.16090  Biso   1.000  C
  C180     1.0000 0.94750  0.16510  0.33910  Biso   1.000  C
  C181     1.0000 0.44750  0.33490  0.83910  Biso   1.000  C
  C182     1.0000 0.55250  0.33490  0.66090  Biso   1.000  C
  C183     1.0000 0.94750  0.83490  0.83910  Biso   1.000  C
  C184     1.0000 0.05250  0.83490  0.66090  Biso   1.000  C
  H105     1.0000 0.55880  0.73540  0.16710  Biso   1.000  H
  H106     1.0000 0.44120  0.73540  0.33290  Biso   1.000  H
  H107     1.0000 0.05880  0.23540  0.16710  Biso   1.000  H
  H108     1.0000 0.94120  0.23540  0.33290  Biso   1.000  H
  H109     1.0000 0.44120  0.26460  0.83290  Biso   1.000  H
  H110     1.0000 0.55880  0.26460  0.66710  Biso   1.000  H
  H111     1.0000 0.94120  0.76460  0.83290  Biso   1.000  H
  H112     1.0000 0.05880  0.76460  0.66710  Biso   1.000  H
  C185     1.0000 0.59480  0.59720  0.18660  Biso   1.000  C
  C186     1.0000 0.40520  0.59720  0.31340  Biso   1.000  C
  C187     1.0000 0.09480  0.09720  0.18660  Biso   1.000  C
  C188     1.0000 0.90520  0.09720  0.31340  Biso   1.000  C
  C189     1.0000 0.40520  0.40280  0.81340  Biso   1.000  C
  C190     1.0000 0.59480  0.40280  0.68660  Biso   1.000  C
  C191     1.0000 0.90520  0.90280  0.81340  Biso   1.000  C
  C192     1.0000 0.09480  0.90280  0.68660  Biso   1.000  C
  H113     1.0000 0.62950  0.62290  0.21030  Biso   1.000  H
  H114     1.0000 0.37050  0.62290  0.28970  Biso   1.000  H
  H115     1.0000 0.12950  0.12290  0.21030  Biso   1.000  H
  H116     1.0000 0.87050  0.12290  0.28970  Biso   1.000  H
  H117     1.0000 0.37050  0.37710  0.78970  Biso   1.000  H
  H118     1.0000 0.62950  0.37710  0.71030  Biso   1.000  H
  H119     1.0000 0.87050  0.87710  0.78970  Biso   1.000  H
  H120     1.0000 0.12950  0.87710  0.71030  Biso   1.000  H
  C193     1.0000 0.53830  0.46460  0.14820  Biso   1.000  C
  C194     1.0000 0.46170  0.46460  0.35180  Biso   1.000  C
  C195     1.0000 0.03830  0.96460  0.14820  Biso   1.000  C
  C196     1.0000 0.96170  0.96460  0.35180  Biso   1.000  C
  C197     1.0000 0.46170  0.53540  0.85180  Biso   1.000  C
  C198     1.0000 0.53830  0.53540  0.64820  Biso   1.000  C
  C199     1.0000 0.96170  0.03540  0.85180  Biso   1.000  C
  C200     1.0000 0.03830  0.03540  0.64820  Biso   1.000  C
  C201     1.0000 0.53170  0.35750  0.14310  Biso   1.000  C
  C202     1.0000 0.46830  0.35750  0.35690  Biso   1.000  C
  C203     1.0000 0.03170  0.85750  0.14310  Biso   1.000  C
  C204     1.0000 0.96830  0.85750  0.35690  Biso   1.000  C
  C205     1.0000 0.46830  0.64250  0.85690  Biso   1.000  C
  C206     1.0000 0.53170  0.64250  0.64310  Biso   1.000  C
  C207     1.0000 0.96830  0.14250  0.85690  Biso   1.000  C
  C208     1.0000 0.03170  0.14250  0.64310  Biso   1.000  C
  N1       1.0000 0.79323  0.61400  0.71520  Biso   1.000  N
  N2       1.0000 0.20677  0.61400  0.78480  Biso   1.000  N
  N3       1.0000 0.29323  0.11400  0.71520  Biso   1.000  N
  N4       1.0000 0.70677  0.11400  0.78480  Biso   1.000  N
  N5       1.0000 0.20677  0.38600  0.28480  Biso   1.000  N
  N6       1.0000 0.79323  0.38600  0.21520  Biso   1.000  N
  N7       1.0000 0.70677  0.88600  0.28480  Biso   1.000  N
  N8       1.0000 0.29323  0.88600  0.21520  Biso   1.000  N
  H121     1.0000 0.76530  0.61100  0.73320  Biso   1.000  H
  H122     1.0000 0.23470  0.61100  0.76680  Biso   1.000  H
  H123     1.0000 0.26530  0.11100  0.73320  Biso   1.000  H
  H124     1.0000 0.73470  0.11100  0.76680  Biso   1.000  H
  H125     1.0000 0.23470  0.38900  0.26680  Biso   1.000  H
  H126     1.0000 0.76530  0.38900  0.23320  Biso   1.000  H
  H127     1.0000 0.73470  0.88900  0.26680  Biso   1.000  H
  H128     1.0000 0.26530  0.88900  0.23320  Biso   1.000  H
  N9       1.0000 0.84640  0.61940  0.11210  Biso   1.000  N
  N10      1.0000 0.15360  0.61940  0.38790  Biso   1.000  N
  N11      1.0000 0.34640  0.11940  0.11210  Biso   1.000  N
  N12      1.0000 0.65360  0.11940  0.38790  Biso   1.000  N
  N13      1.0000 0.15360  0.38060  0.88790  Biso   1.000  N
  N14      1.0000 0.84640  0.38060  0.61210  Biso   1.000  N
  N15      1.0000 0.65360  0.88060  0.88790  Biso   1.000  N
  N16      1.0000 0.34640  0.88060  0.61210  Biso   1.000  N
  N17      1.0000 0.57656  0.30300  0.17050  Biso   1.000  N
  N18      1.0000 0.42344  0.30300  0.32950  Biso   1.000  N
  N19      1.0000 0.07656  0.80300  0.17050  Biso   1.000  N
  N20      1.0000 0.92344  0.80300  0.32950  Biso   1.000  N
  N21      1.0000 0.42344  0.69700  0.82950  Biso   1.000  N
  N22      1.0000 0.57656  0.69700  0.67050  Biso   1.000  N
  N23      1.0000 0.92344  0.19700  0.82950  Biso   1.000  N
  N24      1.0000 0.07656  0.19700  0.67050  Biso   1.000  N
  N25      1.0000 0.58775  0.49930  0.17880  Biso   1.000  N
  N26      1.0000 0.41225  0.49930  0.32120  Biso   1.000  N
  N27      1.0000 0.08775  0.99930  0.17880  Biso   1.000  N
  N28      1.0000 0.91225  0.99930  0.32120  Biso   1.000  N
  N29      1.0000 0.41225  0.50070  0.82120  Biso   1.000  N
  N30      1.0000 0.58775  0.50070  0.67880  Biso   1.000  N
  N31      1.0000 0.91225  0.00070  0.82120  Biso   1.000  N
  N32      1.0000 0.08775  0.00070  0.67880  Biso   1.000  N
  O1       1.0000 0.69999  0.48060  0.26150  Biso   1.000  O
  O2       1.0000 0.30001  0.48060  0.23850  Biso   1.000  O
  O3       1.0000 0.19999  0.98060  0.26150  Biso   1.000  O
  O4       1.0000 0.80001  0.98060  0.23850  Biso   1.000  O
  O5       1.0000 0.30001  0.51940  0.73850  Biso   1.000  O
  O6       1.0000 0.69999  0.51940  0.76150  Biso   1.000  O
  O7       1.0000 0.80001  0.01940  0.73850  Biso   1.000  O
  O8       1.0000 0.19999  0.01940  0.76150  Biso   1.000  O
  O9       1.0000 0.67762  0.42600  0.39340  Biso   1.000  O
  O10      1.0000 0.32238  0.42600  0.10660  Biso   1.000  O
  O11      1.0000 0.17762  0.92600  0.39340  Biso   1.000  O
  O12      1.0000 0.82238  0.92600  0.10660  Biso   1.000  O
  O13      1.0000 0.32238  0.57400  0.60660  Biso   1.000  O
  O14      1.0000 0.67762  0.57400  0.89340  Biso   1.000  O
  O15      1.0000 0.82238  0.07400  0.60660  Biso   1.000  O
  O16      1.0000 0.17762  0.07400  0.89340  Biso   1.000  O
  O17      1.0000 0.81588  0.78250  0.32000  Biso   1.000  O
  O18      1.0000 0.18412  0.78250  0.18000  Biso   1.000  O
  O19      1.0000 0.31588  0.28250  0.32000  Biso   1.000  O
  O20      1.0000 0.68412  0.28250  0.18000  Biso   1.000  O
  O21      1.0000 0.18412  0.21750  0.68000  Biso   1.000  O
  O22      1.0000 0.81588  0.21750  0.82000  Biso   1.000  O
  O23      1.0000 0.68412  0.71750  0.68000  Biso   1.000  O
  O24      1.0000 0.31588  0.71750  0.82000  Biso   1.000  O
  O25      1.0000 0.86573  0.81980  0.48250  Biso   1.000  O
  O26      1.0000 0.13427  0.81980  0.01750  Biso   1.000  O
  O27      1.0000 0.36573  0.31980  0.48250  Biso   1.000  O
  O28      1.0000 0.63427  0.31980  0.01750  Biso   1.000  O
  O29      1.0000 0.13427  0.18020  0.51750  Biso   1.000  O
  O30      1.0000 0.86573  0.18020  0.98250  Biso   1.000  O
  O31      1.0000 0.63427  0.68020  0.51750  Biso   1.000  O
  O32      1.0000 0.36573  0.68020  0.98250  Biso   1.000  O
  O33      1.0000 0.88176  0.61240  0.77860  Biso   1.000  O
  O34      1.0000 0.11824  0.61240  0.72140  Biso   1.000  O
  O35      1.0000 0.38176  0.11240  0.77860  Biso   1.000  O
  O36      1.0000 0.61824  0.11240  0.72140  Biso   1.000  O
  O37      1.0000 0.11824  0.38760  0.22140  Biso   1.000  O
  O38      1.0000 0.88176  0.38760  0.27860  Biso   1.000  O
  O39      1.0000 0.61824  0.88760  0.22140  Biso   1.000  O
  O40      1.0000 0.38176  0.88760  0.27860  Biso   1.000  O
  O41      1.0000 0.43870  0.16500  0.63610  Biso   1.000  O
  O42      1.0000 0.56130  0.16500  0.86390  Biso   1.000  O
  O43      1.0000 0.93870  0.66500  0.63610  Biso   1.000  O
  O44      1.0000 0.06130  0.66500  0.86390  Biso   1.000  O
  O45      1.0000 0.56130  0.83500  0.36390  Biso   1.000  O
  O46      1.0000 0.43870  0.83500  0.13610  Biso   1.000  O
  O47      1.0000 0.06130  0.33500  0.36390  Biso   1.000  O
  O48      1.0000 0.93870  0.33500  0.13610  Biso   1.000  O
  H129     1.0000 0.41960  0.20790  0.59290  Biso   1.000  H
  H130     1.0000 0.58040  0.20790  0.90710  Biso   1.000  H
  H131     1.0000 0.91960  0.70790  0.59290  Biso   1.000  H
  H132     1.0000 0.08040  0.70790  0.90710  Biso   1.000  H
  H133     1.0000 0.58040  0.79210  0.40710  Biso   1.000  H
  H134     1.0000 0.41960  0.79210  0.09290  Biso   1.000  H
  H135     1.0000 0.08040  0.29210  0.40710  Biso   1.000  H
  H136     1.0000 0.91960  0.29210  0.09290  Biso   1.000  H
  H137     1.0000 0.42350  0.14790  0.67850  Biso   1.000  H
  H138     1.0000 0.57650  0.14790  0.82150  Biso   1.000  H
  H139     1.0000 0.92350  0.64790  0.67850  Biso   1.000  H
  H140     1.0000 0.07650  0.64790  0.82150  Biso   1.000  H
  H141     1.0000 0.57650  0.85210  0.32150  Biso   1.000  H
  H142     1.0000 0.42350  0.85210  0.17850  Biso   1.000  H
  H143     1.0000 0.07650  0.35210  0.32150  Biso   1.000  H
  H144     1.0000 0.92350  0.35210  0.17850  Biso   1.000  H
  H145     1.0000 0.51200  0.90160  0.17440  Biso   1.000  H
  H146     1.0000 0.48800  0.90160  0.32560  Biso   1.000  H
  H147     1.0000 0.01200  0.40160  0.17440  Biso   1.000  H
  H148     1.0000 0.98800  0.40160  0.32560  Biso   1.000  H
  H149     1.0000 0.48800  0.09840  0.82560  Biso   1.000  H
  H150     1.0000 0.51200  0.09840  0.67440  Biso   1.000  H
  H151     1.0000 0.98800  0.59840  0.82560  Biso   1.000  H
  H152     1.0000 0.01200  0.59840  0.67440  Biso   1.000  H
  H153     1.0000 0.54210  0.92410  0.11520  Biso   1.000  H
  H154     1.0000 0.45790  0.92410  0.38480  Biso   1.000  H
  H155     1.0000 0.04210  0.42410  0.11520  Biso   1.000  H
  H156     1.0000 0.95790  0.42410  0.38480  Biso   1.000  H
  H157     1.0000 0.45790  0.07590  0.88480  Biso   1.000  H
  H158     1.0000 0.54210  0.07590  0.61520  Biso   1.000  H
  H159     1.0000 0.95790  0.57590  0.88480  Biso   1.000  H
  H160     1.0000 0.04210  0.57590  0.61520  Biso   1.000  H
  O49      1.0000 0.51110  0.92520  0.11540  Biso   1.000  O
  O50      1.0000 0.48890  0.92520  0.38460  Biso   1.000  O
  O51      1.0000 0.01110  0.42520  0.11540  Biso   1.000  O
  O52      1.0000 0.98890  0.42520  0.38460  Biso   1.000  O
  O53      1.0000 0.48890  0.07480  0.88460  Biso   1.000  O
  O54      1.0000 0.51110  0.07480  0.61540  Biso   1.000  O
  O55      1.0000 0.98890  0.57480  0.88460  Biso   1.000  O
  O56      1.0000 0.01110  0.57480  0.61540  Biso   1.000  O
