data_image0
_cell_length_a       9.9649
_cell_length_b       11.0985
_cell_length_c       17.6722
_cell_angle_alpha    71.044
_cell_angle_beta     82.983
_cell_angle_gamma    73.748

_symmetry_space_group_name_H-M    "P 1"
_symmetry_int_tables_number       1

loop_
  _symmetry_equiv_pos_as_xyz
  'x, y, z'

loop_
  _atom_site_label
  _atom_site_occupancy
  _atom_site_fract_x
  _atom_site_fract_y
  _atom_site_fract_z
  _atom_site_thermal_displace_type
  _atom_site_B_iso_or_equiv
  _atom_site_type_symbol
  Cu1      1.0000 0.45193  0.95294  0.07257  Biso   1.000  Cu
  Cu2      1.0000 0.54807  0.04706  0.92743  Biso   1.000  Cu
  Cu3      1.0000 0.08055  0.95639  0.44545  Biso   1.000  Cu
  Cu4      1.0000 0.91945  0.04361  0.55455  Biso   1.000  Cu
  N1       1.0000 0.38243  0.89729  0.20318  Biso   1.000  N
  N2       1.0000 0.61757  0.10271  0.79682  Biso   1.000  N
  N3       1.0000 0.22686  0.90556  0.34682  Biso   1.000  N
  N4       1.0000 0.77314  0.09444  0.65318  Biso   1.000  N
  O1       1.0000 0.33287  0.13387  0.05455  Biso   1.000  O
  O2       1.0000 0.66713  0.86613  0.94545  Biso   1.000  O
  O3       1.0000 0.42015  0.21505  0.93118  Biso   1.000  O
  O4       1.0000 0.57985  0.78495  0.06882  Biso   1.000  O
  O5       1.0000 0.31160  0.91072  0.02521  Biso   1.000  O
  O6       1.0000 0.68840  0.08928  0.97479  Biso   1.000  O
  O7       1.0000 0.39881  0.98712  0.90082  Biso   1.000  O
  O8       1.0000 0.60119  0.01288  0.09918  Biso   1.000  O
  O9       1.0000 0.22834  0.00012  0.48750  Biso   1.000  O
  O10      1.0000 0.77166  0.99988  0.51250  Biso   1.000  O
  O11      1.0000 0.08911  0.07512  0.58136  Biso   1.000  O
  O12      1.0000 0.91089  0.92488  0.41864  Biso   1.000  O
  O13      1.0000 0.02422  0.14288  0.37888  Biso   1.000  O
  O14      1.0000 0.97578  0.85712  0.62112  Biso   1.000  O
  O15      1.0000 0.88618  0.21674  0.47266  Biso   1.000  O
  O16      1.0000 0.11382  0.78326  0.52734  Biso   1.000  O
  C1       1.0000 0.34320  0.22680  0.99197  Biso   1.000  C
  C2       1.0000 0.65680  0.77320  0.00803  Biso   1.000  C
  C3       1.0000 0.25830  0.36560  0.98790  Biso   1.000  C
  C4       1.0000 0.74170  0.63440  0.01210  Biso   1.000  C
  C5       1.0000 0.25770  0.40950  0.06191  Biso   1.000  C
  C6       1.0000 0.74230  0.59050  0.93809  Biso   1.000  C
  C7       1.0000 0.40570  0.37170  0.09110  Biso   1.000  C
  C8       1.0000 0.59430  0.62830  0.90890  Biso   1.000  C
  H1       1.0000 0.43800  0.27550  0.11250  Biso   1.000  H
  H2       1.0000 0.56200  0.72450  0.88750  Biso   1.000  H
  H3       1.0000 0.40650  0.41110  0.13320  Biso   1.000  H
  H4       1.0000 0.59350  0.58890  0.86680  Biso   1.000  H
  H5       1.0000 0.46800  0.40400  0.04630  Biso   1.000  H
  H6       1.0000 0.53200  0.59600  0.95370  Biso   1.000  H
  C9       1.0000 0.20190  0.55950  0.03590  Biso   1.000  C
  C10      1.0000 0.79810  0.44050  0.96410  Biso   1.000  C
  C11      1.0000 0.16210  0.34980  0.12919  Biso   1.000  C
  C12      1.0000 0.83790  0.65020  0.87081  Biso   1.000  C
  H7       1.0000 0.06610  0.37870  0.11080  Biso   1.000  H
  H8       1.0000 0.93390  0.62130  0.88920  Biso   1.000  H
  H9       1.0000 0.16510  0.37890  0.17560  Biso   1.000  H
  H10      1.0000 0.83490  0.62110  0.82440  Biso   1.000  H
  H11      1.0000 0.19370  0.25340  0.14440  Biso   1.000  H
  H12      1.0000 0.80630  0.74660  0.85560  Biso   1.000  H
  C13      1.0000 0.31230  0.93470  0.95046  Biso   1.000  C
  C14      1.0000 0.68770  0.06530  0.04954  Biso   1.000  C
  C15      1.0000 0.20460  0.89560  0.91670  Biso   1.000  C
  C16      1.0000 0.79540  0.10440  0.08330  Biso   1.000  C
  C17      1.0000 0.11140  0.00640  0.85301  Biso   1.000  C
  C18      1.0000 0.88860  0.99360  0.14699  Biso   1.000  C
  C19      1.0000 0.05480  0.12770  0.88270  Biso   1.000  C
  C20      1.0000 0.94520  0.87230  0.11730  Biso   1.000  C
  H13      1.0000 0.13260  0.16220  0.88760  Biso   1.000  H
  H14      1.0000 0.86740  0.83780  0.11240  Biso   1.000  H
  H15      1.0000 0.00690  0.10240  0.93500  Biso   1.000  H
  H16      1.0000 0.99310  0.89760  0.06500  Biso   1.000  H
  H17      1.0000 0.98880  0.19580  0.84440  Biso   1.000  H
  H18      1.0000 0.01120  0.80420  0.15560  Biso   1.000  H
  C21      1.0000 0.99030  0.95320  0.84249  Biso   1.000  C
  C22      1.0000 0.00970  0.04680  0.15751  Biso   1.000  C
  H19      1.0000 0.93500  0.93500  0.89280  Biso   1.000  H
  H20      1.0000 0.06500  0.06500  0.10720  Biso   1.000  H
  H21      1.0000 0.02810  0.87180  0.82800  Biso   1.000  H
  H22      1.0000 0.97190  0.12820  0.17200  Biso   1.000  H
  H23      1.0000 0.93060  0.01900  0.80000  Biso   1.000  H
  H24      1.0000 0.06940  0.98100  0.20000  Biso   1.000  H
  C23      1.0000 0.19020  0.04550  0.77350  Biso   1.000  C
  C24      1.0000 0.80980  0.95450  0.22650  Biso   1.000  C
  H25      1.0000 0.26520  0.08240  0.78000  Biso   1.000  H
  H26      1.0000 0.73480  0.91760  0.22000  Biso   1.000  H
  H27      1.0000 0.12570  0.11180  0.73360  Biso   1.000  H
  H28      1.0000 0.87430  0.88820  0.26640  Biso   1.000  H
  H29      1.0000 0.23070  0.96770  0.75560  Biso   1.000  H
  H30      1.0000 0.76930  0.03230  0.24440  Biso   1.000  H
  C25      1.0000 0.20460  0.05200  0.54321  Biso   1.000  C
  C26      1.0000 0.79540  0.94800  0.45679  Biso   1.000  C
  C27      1.0000 0.32410  0.09300  0.56524  Biso   1.000  C
  C28      1.0000 0.67590  0.90700  0.43476  Biso   1.000  C
  C29      1.0000 0.32750  0.23730  0.51821  Biso   1.000  C
  C30      1.0000 0.67250  0.76270  0.48179  Biso   1.000  C
  C31      1.0000 0.34730  0.25670  0.42807  Biso   1.000  C
  C32      1.0000 0.65270  0.74330  0.57193  Biso   1.000  C
  H31      1.0000 0.26620  0.24340  0.40860  Biso   1.000  H
  H32      1.0000 0.73380  0.75660  0.59140  Biso   1.000  H
  H33      1.0000 0.43210  0.19280  0.41780  Biso   1.000  H
  H34      1.0000 0.56790  0.80720  0.58220  Biso   1.000  H
  H35      1.0000 0.35630  0.34620  0.40010  Biso   1.000  H
  H36      1.0000 0.64370  0.65380  0.59990  Biso   1.000  H
  C33      1.0000 0.45140  0.26350  0.54770  Biso   1.000  C
  C34      1.0000 0.54860  0.73650  0.45230  Biso   1.000  C
  C35      1.0000 0.19170  0.33410  0.53440  Biso   1.000  C
  C36      1.0000 0.80830  0.66590  0.46560  Biso   1.000  C
  C37      1.0000 0.94420  0.23310  0.40310  Biso   1.000  C
  C38      1.0000 0.05580  0.76690  0.59690  Biso   1.000  C
  C39      1.0000 0.91760  0.37160  0.34657  Biso   1.000  C
  C40      1.0000 0.08240  0.62840  0.65343  Biso   1.000  C
  C41      1.0000 0.77800  0.42280  0.30213  Biso   1.000  C
  C42      1.0000 0.22200  0.57720  0.69787  Biso   1.000  C
  C43      1.0000 0.77380  0.56190  0.24730  Biso   1.000  C
  C44      1.0000 0.22620  0.43810  0.75270  Biso   1.000  C
  C45      1.0000 0.65470  0.42720  0.36160  Biso   1.000  C
  C46      1.0000 0.34530  0.57280  0.63840  Biso   1.000  C
  H37      1.0000 0.66230  0.47910  0.39560  Biso   1.000  H
  H38      1.0000 0.33770  0.52090  0.60440  Biso   1.000  H
  H39      1.0000 0.65460  0.33730  0.39500  Biso   1.000  H
  H40      1.0000 0.34540  0.66270  0.60500  Biso   1.000  H
  H41      1.0000 0.56750  0.46790  0.33260  Biso   1.000  H
  H42      1.0000 0.43250  0.53210  0.66740  Biso   1.000  H
  C47      1.0000 0.77710  0.33520  0.25130  Biso   1.000  C
  C48      1.0000 0.22290  0.66480  0.74870  Biso   1.000  C
  C49      1.0000 0.37310  0.98940  0.23694  Biso   1.000  C
  C50      1.0000 0.62690  0.01060  0.76306  Biso   1.000  C
  C51      1.0000 0.29510  0.99430  0.30793  Biso   1.000  C
  C52      1.0000 0.70490  0.00570  0.69207  Biso   1.000  C
  C53      1.0000 0.23920  0.80400  0.31602  Biso   1.000  C
  C54      1.0000 0.76080  0.19600  0.68398  Biso   1.000  C
  C55      1.0000 0.16930  0.70450  0.35540  Biso   1.000  C
  C56      1.0000 0.83070  0.29550  0.64460  Biso   1.000  C
  C57      1.0000 0.17860  0.60620  0.32399  Biso   1.000  C
  C58      1.0000 0.82140  0.39380  0.67601  Biso   1.000  C
  C59      1.0000 0.25720  0.60070  0.25330  Biso   1.000  C
  C60      1.0000 0.74280  0.39930  0.74670  Biso   1.000  C
  C61      1.0000 0.32550  0.69550  0.21325  Biso   1.000  C
  C62      1.0000 0.67450  0.30450  0.78675  Biso   1.000  C
  C63      1.0000 0.31750  0.79930  0.24422  Biso   1.000  C
  C64      1.0000 0.68250  0.20070  0.75578  Biso   1.000  C
  H43      1.0000 0.30400  0.42200  0.94710  Biso   1.000  H
  H44      1.0000 0.69600  0.57800  0.05290  Biso   1.000  H
  H45      1.0000 0.16600  0.36800  0.98120  Biso   1.000  H
  H46      1.0000 0.83400  0.63200  0.01880  Biso   1.000  H
  H47      1.0000 0.25900  0.59200  0.00200  Biso   1.000  H
  H48      1.0000 0.74100  0.40800  0.99800  Biso   1.000  H
  H49      1.0000 0.11200  0.58900  0.01050  Biso   1.000  H
  H50      1.0000 0.88800  0.41100  0.98950  Biso   1.000  H
  H51      1.0000 0.19400  0.59600  0.07760  Biso   1.000  H
  H52      1.0000 0.80600  0.40400  0.92240  Biso   1.000  H
  H53      1.0000 0.14600  0.86500  0.95720  Biso   1.000  H
  H54      1.0000 0.85400  0.13500  0.04280  Biso   1.000  H
  H55      1.0000 0.25800  0.83000  0.89170  Biso   1.000  H
  H56      1.0000 0.74200  0.17000  0.10830  Biso   1.000  H
  H57      1.0000 0.41400  0.03000  0.55930  Biso   1.000  H
  H58      1.0000 0.58600  0.97000  0.44070  Biso   1.000  H
  H59      1.0000 0.32300  0.08100  0.62450  Biso   1.000  H
  H60      1.0000 0.67700  0.91900  0.37550  Biso   1.000  H
  H61      1.0000 0.53800  0.20100  0.53920  Biso   1.000  H
  H62      1.0000 0.46200  0.79900  0.46080  Biso   1.000  H
  H63      1.0000 0.45600  0.35500  0.52160  Biso   1.000  H
  H64      1.0000 0.54400  0.64500  0.47840  Biso   1.000  H
  H65      1.0000 0.43900  0.25200  0.60350  Biso   1.000  H
  H66      1.0000 0.56100  0.74800  0.39650  Biso   1.000  H
  H67      1.0000 0.10900  0.32600  0.50960  Biso   1.000  H
  H68      1.0000 0.89100  0.67400  0.49040  Biso   1.000  H
  H69      1.0000 0.19900  0.41900  0.50950  Biso   1.000  H
  H70      1.0000 0.80100  0.58100  0.49050  Biso   1.000  H
  H71      1.0000 0.18000  0.32100  0.58650  Biso   1.000  H
  H72      1.0000 0.82000  0.67900  0.41350  Biso   1.000  H
  H73      1.0000 0.91900  0.43200  0.37530  Biso   1.000  H
  H74      1.0000 0.08100  0.56800  0.62470  Biso   1.000  H
  H75      1.0000 0.99700  0.37900  0.30260  Biso   1.000  H
  H76      1.0000 0.00300  0.62100  0.69740  Biso   1.000  H
  H77      1.0000 0.84600  0.55700  0.20900  Biso   1.000  H
  H78      1.0000 0.15400  0.44300  0.79100  Biso   1.000  H
  H79      1.0000 0.69900  0.59400  0.22400  Biso   1.000  H
  H80      1.0000 0.30100  0.40600  0.77600  Biso   1.000  H
  H81      1.0000 0.77500  0.62300  0.28300  Biso   1.000  H
  H82      1.0000 0.22500  0.37700  0.71700  Biso   1.000  H
  H83      1.0000 0.77300  0.25600  0.28270  Biso   1.000  H
  H84      1.0000 0.22700  0.74400  0.71730  Biso   1.000  H
  H85      1.0000 0.69800  0.36300  0.22600  Biso   1.000  H
  H86      1.0000 0.30200  0.63700  0.77400  Biso   1.000  H
  H87      1.0000 0.86900  0.31300  0.21600  Biso   1.000  H
  H88      1.0000 0.13100  0.68700  0.78400  Biso   1.000  H
  H89      1.0000 0.41600  0.05100  0.20910  Biso   1.000  H
  H90      1.0000 0.58400  0.94900  0.79090  Biso   1.000  H
  H91      1.0000 0.28900  0.07000  0.32620  Biso   1.000  H
  H92      1.0000 0.71100  0.93000  0.67380  Biso   1.000  H
  H93      1.0000 0.11100  0.71000  0.39970  Biso   1.000  H
  H94      1.0000 0.88900  0.29000  0.60030  Biso   1.000  H
  H95      1.0000 0.12600  0.53900  0.34780  Biso   1.000  H
  H96      1.0000 0.87400  0.46100  0.65220  Biso   1.000  H
  H97      1.0000 0.26600  0.53400  0.23410  Biso   1.000  H
  H98      1.0000 0.73400  0.46600  0.76590  Biso   1.000  H
  H99      1.0000 0.38800  0.69800  0.16410  Biso   1.000  H
  H100     1.0000 0.61200  0.30200  0.83590  Biso   1.000  H
