data_image0
_cell_length_a       21.2259
_cell_length_b       17.237
_cell_length_c       9.3165
_cell_angle_alpha    90
_cell_angle_beta     90
_cell_angle_gamma    90

_symmetry_space_group_name_H-M    "P 1"
_symmetry_int_tables_number       1

loop_
  _symmetry_equiv_pos_as_xyz
  'x, y, z'

loop_
  _atom_site_label
  _atom_site_occupancy
  _atom_site_fract_x
  _atom_site_fract_y
  _atom_site_fract_z
  _atom_site_thermal_displace_type
  _atom_site_B_iso_or_equiv
  _atom_site_type_symbol
  Cu1      1.0000 0.73191  0.15250  0.83170  Biso   1.000  Cu
  Cu2      1.0000 0.26809  0.84750  0.33170  Biso   1.000  Cu
  Cu3      1.0000 0.76809  0.65250  0.33170  Biso   1.000  Cu
  Cu4      1.0000 0.23191  0.34750  0.83170  Biso   1.000  Cu
  Cu5      1.0000 0.76060  0.02871  0.68500  Biso   1.000  Cu
  Cu6      1.0000 0.23940  0.97129  0.18500  Biso   1.000  Cu
  Cu7      1.0000 0.73940  0.52871  0.18500  Biso   1.000  Cu
  Cu8      1.0000 0.26060  0.47129  0.68500  Biso   1.000  Cu
  O1       1.0000 0.69250  0.18420  0.65250  Biso   1.000  O
  O2       1.0000 0.30750  0.81580  0.15250  Biso   1.000  O
  O3       1.0000 0.80750  0.68420  0.15250  Biso   1.000  O
  O4       1.0000 0.19250  0.31580  0.65250  Biso   1.000  O
  O5       1.0000 0.71380  0.07820  0.52920  Biso   1.000  O
  O6       1.0000 0.28620  0.92180  0.02920  Biso   1.000  O
  O7       1.0000 0.78620  0.57820  0.02920  Biso   1.000  O
  O8       1.0000 0.21380  0.42180  0.52920  Biso   1.000  O
  C1       1.0000 0.69070  0.14480  0.54270  Biso   1.000  C
  C2       1.0000 0.30930  0.85520  0.04270  Biso   1.000  C
  C3       1.0000 0.80930  0.64480  0.04270  Biso   1.000  C
  C4       1.0000 0.19070  0.35520  0.54270  Biso   1.000  C
  C5       1.0000 0.65450  0.17960  0.41470  Biso   1.000  C
  C6       1.0000 0.34550  0.82040  0.91470  Biso   1.000  C
  C7       1.0000 0.84550  0.67960  0.91470  Biso   1.000  C
  C8       1.0000 0.15450  0.32040  0.41470  Biso   1.000  C
  C9       1.0000 0.64290  0.11960  0.29930  Biso   1.000  C
  C10      1.0000 0.35710  0.88040  0.79930  Biso   1.000  C
  C11      1.0000 0.85710  0.61960  0.79930  Biso   1.000  C
  C12      1.0000 0.14290  0.38040  0.29930  Biso   1.000  C
  H1       1.0000 0.61690  0.14160  0.22540  Biso   1.000  H
  H2       1.0000 0.38310  0.85840  0.72540  Biso   1.000  H
  H3       1.0000 0.88310  0.64160  0.72540  Biso   1.000  H
  H4       1.0000 0.11690  0.35840  0.22540  Biso   1.000  H
  H5       1.0000 0.62200  0.07550  0.34040  Biso   1.000  H
  H6       1.0000 0.37800  0.92450  0.84040  Biso   1.000  H
  H7       1.0000 0.87800  0.57550  0.84040  Biso   1.000  H
  H8       1.0000 0.12200  0.42450  0.34040  Biso   1.000  H
  H9       1.0000 0.68240  0.10370  0.25880  Biso   1.000  H
  H10      1.0000 0.31760  0.89630  0.75880  Biso   1.000  H
  H11      1.0000 0.81760  0.60370  0.75880  Biso   1.000  H
  H12      1.0000 0.18240  0.39630  0.25880  Biso   1.000  H
  C13      1.0000 0.59400  0.21630  0.46600  Biso   1.000  C
  C14      1.0000 0.40600  0.78370  0.96600  Biso   1.000  C
  C15      1.0000 0.90600  0.71630  0.96600  Biso   1.000  C
  C16      1.0000 0.09400  0.28370  0.46600  Biso   1.000  C
  H13      1.0000 0.57020  0.23430  0.38560  Biso   1.000  H
  H14      1.0000 0.42980  0.76570  0.88560  Biso   1.000  H
  H15      1.0000 0.92980  0.73430  0.88560  Biso   1.000  H
  H16      1.0000 0.07020  0.26570  0.38560  Biso   1.000  H
  H17      1.0000 0.60370  0.25920  0.52830  Biso   1.000  H
  H18      1.0000 0.39630  0.74080  0.02830  Biso   1.000  H
  H19      1.0000 0.89630  0.75920  0.02830  Biso   1.000  H
  H20      1.0000 0.10370  0.24080  0.52830  Biso   1.000  H
  H21      1.0000 0.56980  0.17860  0.51850  Biso   1.000  H
  H22      1.0000 0.43020  0.82140  0.01850  Biso   1.000  H
  H23      1.0000 0.93020  0.67860  0.01850  Biso   1.000  H
  H24      1.0000 0.06980  0.32140  0.51850  Biso   1.000  H
  C17      1.0000 0.69740  0.24330  0.35400  Biso   1.000  C
  C18      1.0000 0.30260  0.75670  0.85400  Biso   1.000  C
  C19      1.0000 0.80260  0.74330  0.85400  Biso   1.000  C
  C20      1.0000 0.19740  0.25670  0.35400  Biso   1.000  C
  H25      1.0000 0.68020  0.26210  0.26530  Biso   1.000  H
  H26      1.0000 0.31980  0.73790  0.76530  Biso   1.000  H
  H27      1.0000 0.81980  0.76210  0.76530  Biso   1.000  H
  H28      1.0000 0.18020  0.23790  0.26530  Biso   1.000  H
  H29      1.0000 0.73870  0.22250  0.33750  Biso   1.000  H
  H30      1.0000 0.26130  0.77750  0.83750  Biso   1.000  H
  H31      1.0000 0.76130  0.72250  0.83750  Biso   1.000  H
  H32      1.0000 0.23870  0.27750  0.33750  Biso   1.000  H
  H33      1.0000 0.70000  0.28530  0.42160  Biso   1.000  H
  H34      1.0000 0.30000  0.71470  0.92160  Biso   1.000  H
  H35      1.0000 0.80000  0.78530  0.92160  Biso   1.000  H
  H36      1.0000 0.20000  0.21470  0.42160  Biso   1.000  H
  O9       1.0000 0.65550  0.09680  0.88180  Biso   1.000  O
  O10      1.0000 0.34450  0.90320  0.38180  Biso   1.000  O
  O11      1.0000 0.84450  0.59680  0.38180  Biso   1.000  O
  O12      1.0000 0.15550  0.40320  0.88180  Biso   1.000  O
  O13      1.0000 0.68000  0.98950  0.75690  Biso   1.000  O
  O14      1.0000 0.32000  0.01050  0.25690  Biso   1.000  O
  O15      1.0000 0.82000  0.48950  0.25690  Biso   1.000  O
  O16      1.0000 0.18000  0.51050  0.75690  Biso   1.000  O
  C21      1.0000 0.64390  0.03020  0.83370  Biso   1.000  C
  C22      1.0000 0.35610  0.96980  0.33370  Biso   1.000  C
  C23      1.0000 0.85610  0.53020  0.33370  Biso   1.000  C
  C24      1.0000 0.14390  0.46980  0.83370  Biso   1.000  C
  C25      1.0000 0.57990  0.99270  0.87500  Biso   1.000  C
  C26      1.0000 0.42010  0.00730  0.37500  Biso   1.000  C
  C27      1.0000 0.92010  0.49270  0.37500  Biso   1.000  C
  C28      1.0000 0.07990  0.50730  0.87500  Biso   1.000  C
  C29      1.0000 0.56180  0.92870  0.77000  Biso   1.000  C
  C30      1.0000 0.43820  0.07130  0.27000  Biso   1.000  C
  C31      1.0000 0.93820  0.42870  0.27000  Biso   1.000  C
  C32      1.0000 0.06180  0.57130  0.77000  Biso   1.000  C
  H37      1.0000 0.59450  0.89030  0.76650  Biso   1.000  H
  H38      1.0000 0.40550  0.10970  0.26650  Biso   1.000  H
  H39      1.0000 0.90550  0.39030  0.26650  Biso   1.000  H
  H40      1.0000 0.09450  0.60970  0.76650  Biso   1.000  H
  H41      1.0000 0.55620  0.95060  0.67560  Biso   1.000  H
  H42      1.0000 0.44380  0.04940  0.17560  Biso   1.000  H
  H43      1.0000 0.94380  0.45060  0.17560  Biso   1.000  H
  H44      1.0000 0.05620  0.54940  0.67560  Biso   1.000  H
  H45      1.0000 0.52310  0.90490  0.80010  Biso   1.000  H
  H46      1.0000 0.47690  0.09510  0.30010  Biso   1.000  H
  H47      1.0000 0.97690  0.40490  0.30010  Biso   1.000  H
  H48      1.0000 0.02310  0.59510  0.80010  Biso   1.000  H
  C33      1.0000 0.58920  0.95690  0.02300  Biso   1.000  C
  C34      1.0000 0.41080  0.04310  0.52300  Biso   1.000  C
  C35      1.0000 0.91080  0.45690  0.52300  Biso   1.000  C
  C36      1.0000 0.08920  0.54310  0.02300  Biso   1.000  C
  H49      1.0000 0.59530  0.99740  0.09240  Biso   1.000  H
  H50      1.0000 0.40470  0.00260  0.59240  Biso   1.000  H
  H51      1.0000 0.90470  0.49740  0.59240  Biso   1.000  H
  H52      1.0000 0.09530  0.50260  0.09240  Biso   1.000  H
  H53      1.0000 0.62550  0.92370  0.02170  Biso   1.000  H
  H54      1.0000 0.37450  0.07630  0.52170  Biso   1.000  H
  H55      1.0000 0.87450  0.42370  0.52170  Biso   1.000  H
  H56      1.0000 0.12550  0.57630  0.02170  Biso   1.000  H
  H57      1.0000 0.55260  0.92720  0.04820  Biso   1.000  H
  H58      1.0000 0.44740  0.07280  0.54820  Biso   1.000  H
  H59      1.0000 0.94740  0.42720  0.54820  Biso   1.000  H
  H60      1.0000 0.05260  0.57280  0.04820  Biso   1.000  H
  C37      1.0000 0.52870  0.05370  0.88100  Biso   1.000  C
  C38      1.0000 0.47130  0.94630  0.38100  Biso   1.000  C
  C39      1.0000 0.97130  0.55370  0.38100  Biso   1.000  C
  C40      1.0000 0.02870  0.44630  0.88100  Biso   1.000  C
  H61      1.0000 0.53780  0.08990  0.95630  Biso   1.000  H
  H62      1.0000 0.46220  0.91010  0.45630  Biso   1.000  H
  H63      1.0000 0.96220  0.58990  0.45630  Biso   1.000  H
  H64      1.0000 0.03780  0.41010  0.95630  Biso   1.000  H
  H65      1.0000 0.48890  0.02920  0.89940  Biso   1.000  H
  H66      1.0000 0.51110  0.97080  0.39940  Biso   1.000  H
  H67      1.0000 0.01110  0.52920  0.39940  Biso   1.000  H
  H68      1.0000 0.98890  0.47080  0.89940  Biso   1.000  H
  H69      1.0000 0.52680  0.08060  0.79080  Biso   1.000  H
  H70      1.0000 0.47320  0.91940  0.29080  Biso   1.000  H
  H71      1.0000 0.97320  0.58060  0.29080  Biso   1.000  H
  H72      1.0000 0.02680  0.41940  0.79080  Biso   1.000  H
  O17      1.0000 0.80110  0.99890  0.86310  Biso   1.000  O
  O18      1.0000 0.19890  0.00110  0.36310  Biso   1.000  O
  O19      1.0000 0.69890  0.49890  0.36310  Biso   1.000  O
  O20      1.0000 0.30110  0.50110  0.86310  Biso   1.000  O
  O21      1.0000 0.77450  0.10250  0.99140  Biso   1.000  O
  O22      1.0000 0.22550  0.89750  0.49140  Biso   1.000  O
  O23      1.0000 0.72550  0.60250  0.49140  Biso   1.000  O
  O24      1.0000 0.27450  0.39750  0.99140  Biso   1.000  O
  C41      1.0000 0.79920  0.03720  0.97970  Biso   1.000  C
  C42      1.0000 0.20080  0.96280  0.47970  Biso   1.000  C
  C43      1.0000 0.70080  0.53720  0.47970  Biso   1.000  C
  C44      1.0000 0.29920  0.46280  0.97970  Biso   1.000  C
  C45      1.0000 0.83210  0.00080  0.10900  Biso   1.000  C
  C46      1.0000 0.16790  0.99920  0.60900  Biso   1.000  C
  C47      1.0000 0.66790  0.50080  0.60900  Biso   1.000  C
  C48      1.0000 0.33210  0.49920  0.10900  Biso   1.000  C
  C49      1.0000 0.88930  0.95870  0.06700  Biso   1.000  C
  C50      1.0000 0.11070  0.04130  0.56700  Biso   1.000  C
  C51      1.0000 0.61070  0.45870  0.56700  Biso   1.000  C
  C52      1.0000 0.38930  0.54130  0.06700  Biso   1.000  C
  H73      1.0000 0.90360  0.92740  0.14530  Biso   1.000  H
  H74      1.0000 0.09640  0.07260  0.64530  Biso   1.000  H
  H75      1.0000 0.59640  0.42740  0.64530  Biso   1.000  H
  H76      1.0000 0.40360  0.57260  0.14530  Biso   1.000  H
  H77      1.0000 0.92160  0.99520  0.04070  Biso   1.000  H
  H78      1.0000 0.07840  0.00480  0.54070  Biso   1.000  H
  H79      1.0000 0.57840  0.49520  0.54070  Biso   1.000  H
  H80      1.0000 0.42160  0.50480  0.04070  Biso   1.000  H
  H81      1.0000 0.88010  0.92600  0.98580  Biso   1.000  H
  H82      1.0000 0.11990  0.07400  0.48580  Biso   1.000  H
  H83      1.0000 0.61990  0.42600  0.48580  Biso   1.000  H
  H84      1.0000 0.38010  0.57400  0.98580  Biso   1.000  H
  C53      1.0000 0.78630  0.93690  0.15900  Biso   1.000  C
  C54      1.0000 0.21370  0.06310  0.65900  Biso   1.000  C
  C55      1.0000 0.71370  0.43690  0.65900  Biso   1.000  C
  C56      1.0000 0.28630  0.56310  0.15900  Biso   1.000  C
  H85      1.0000 0.80620  0.90600  0.23160  Biso   1.000  H
  H86      1.0000 0.19380  0.09400  0.73160  Biso   1.000  H
  H87      1.0000 0.69380  0.40600  0.73160  Biso   1.000  H
  H88      1.0000 0.30620  0.59400  0.23160  Biso   1.000  H
  H89      1.0000 0.77540  0.90450  0.07860  Biso   1.000  H
  H90      1.0000 0.22460  0.09550  0.57860  Biso   1.000  H
  H91      1.0000 0.72460  0.40450  0.57860  Biso   1.000  H
  H92      1.0000 0.27540  0.59550  0.07860  Biso   1.000  H
  H93      1.0000 0.74890  0.96020  0.19700  Biso   1.000  H
  H94      1.0000 0.25110  0.03980  0.69700  Biso   1.000  H
  H95      1.0000 0.75110  0.46020  0.69700  Biso   1.000  H
  H96      1.0000 0.24890  0.53980  0.19700  Biso   1.000  H
  C57      1.0000 0.84080  0.05470  0.22900  Biso   1.000  C
  C58      1.0000 0.15920  0.94530  0.72900  Biso   1.000  C
  C59      1.0000 0.65920  0.55470  0.72900  Biso   1.000  C
  C60      1.0000 0.34080  0.44530  0.22900  Biso   1.000  C
  H97      1.0000 0.85530  0.02650  0.31200  Biso   1.000  H
  H98      1.0000 0.14470  0.97350  0.81200  Biso   1.000  H
  H99      1.0000 0.64470  0.52650  0.81200  Biso   1.000  H
  H100     1.0000 0.35530  0.47350  0.31200  Biso   1.000  H
  H101     1.0000 0.80140  0.07940  0.25130  Biso   1.000  H
  H102     1.0000 0.19860  0.92060  0.75130  Biso   1.000  H
  H103     1.0000 0.69860  0.57940  0.75130  Biso   1.000  H
  H104     1.0000 0.30140  0.42060  0.25130  Biso   1.000  H
  H105     1.0000 0.87140  0.09330  0.20380  Biso   1.000  H
  H106     1.0000 0.12860  0.90670  0.70380  Biso   1.000  H
  H107     1.0000 0.62860  0.59330  0.70380  Biso   1.000  H
  H108     1.0000 0.37140  0.40670  0.20380  Biso   1.000  H
  O25      1.0000 0.83600  0.08400  0.62730  Biso   1.000  O
  O26      1.0000 0.16400  0.91600  0.12730  Biso   1.000  O
  O27      1.0000 0.66400  0.58400  0.12730  Biso   1.000  O
  O28      1.0000 0.33600  0.41600  0.62730  Biso   1.000  O
  O29      1.0000 0.81360  0.18780  0.76010  Biso   1.000  O
  O30      1.0000 0.18640  0.81220  0.26010  Biso   1.000  O
  O31      1.0000 0.68640  0.68780  0.26010  Biso   1.000  O
  O32      1.0000 0.31360  0.31220  0.76010  Biso   1.000  O
  C61      1.0000 0.84950  0.15060  0.67710  Biso   1.000  C
  C62      1.0000 0.15050  0.84940  0.17710  Biso   1.000  C
  C63      1.0000 0.65050  0.65060  0.17710  Biso   1.000  C
  C64      1.0000 0.34950  0.34940  0.67710  Biso   1.000  C
  C65      1.0000 0.90980  0.18820  0.62500  Biso   1.000  C
  C66      1.0000 0.09020  0.81180  0.12500  Biso   1.000  C
  C67      1.0000 0.59020  0.68820  0.12500  Biso   1.000  C
  C68      1.0000 0.40980  0.31180  0.62500  Biso   1.000  C
  C69      1.0000 0.92720  0.25740  0.72200  Biso   1.000  C
  C70      1.0000 0.07280  0.74260  0.22200  Biso   1.000  C
  C71      1.0000 0.57280  0.75740  0.22200  Biso   1.000  C
  C72      1.0000 0.42720  0.24260  0.72200  Biso   1.000  C
  H109     1.0000 0.89770  0.29880  0.70780  Biso   1.000  H
  H110     1.0000 0.10230  0.70120  0.20780  Biso   1.000  H
  H111     1.0000 0.60230  0.79880  0.20780  Biso   1.000  H
  H112     1.0000 0.39770  0.20120  0.70780  Biso   1.000  H
  H113     1.0000 0.96890  0.27510  0.69900  Biso   1.000  H
  H114     1.0000 0.03110  0.72490  0.19900  Biso   1.000  H
  H115     1.0000 0.53110  0.77510  0.19900  Biso   1.000  H
  H116     1.0000 0.46890  0.22490  0.69900  Biso   1.000  H
  H117     1.0000 0.92610  0.24130  0.82100  Biso   1.000  H
  H118     1.0000 0.07390  0.75870  0.32100  Biso   1.000  H
  H119     1.0000 0.57390  0.74130  0.32100  Biso   1.000  H
  H120     1.0000 0.42610  0.25870  0.82100  Biso   1.000  H
  C73      1.0000 0.89600  0.22180  0.47600  Biso   1.000  C
  C74      1.0000 0.10400  0.77820  0.97600  Biso   1.000  C
  C75      1.0000 0.60400  0.72180  0.97600  Biso   1.000  C
  C76      1.0000 0.39600  0.27820  0.47600  Biso   1.000  C
  H121     1.0000 0.85800  0.25180  0.47930  Biso   1.000  H
  H122     1.0000 0.14200  0.74820  0.97930  Biso   1.000  H
  H123     1.0000 0.64200  0.75180  0.97930  Biso   1.000  H
  H124     1.0000 0.35800  0.24820  0.47930  Biso   1.000  H
  H125     1.0000 0.89110  0.18020  0.40840  Biso   1.000  H
  H126     1.0000 0.10890  0.81980  0.90840  Biso   1.000  H
  H127     1.0000 0.60890  0.68020  0.90840  Biso   1.000  H
  H128     1.0000 0.39110  0.31980  0.40840  Biso   1.000  H
  H129     1.0000 0.93040  0.25430  0.44670  Biso   1.000  H
  H130     1.0000 0.06960  0.74570  0.94670  Biso   1.000  H
  H131     1.0000 0.56960  0.75430  0.94670  Biso   1.000  H
  H132     1.0000 0.43040  0.24570  0.44670  Biso   1.000  H
  C77      1.0000 0.95990  0.13050  0.61700  Biso   1.000  C
  C78      1.0000 0.04010  0.86950  0.11700  Biso   1.000  C
  C79      1.0000 0.54010  0.63050  0.11700  Biso   1.000  C
  C80      1.0000 0.45990  0.36950  0.61700  Biso   1.000  C
  H133     1.0000 0.99460  0.15110  0.56320  Biso   1.000  H
  H134     1.0000 0.00540  0.84890  0.06320  Biso   1.000  H
  H135     1.0000 0.50540  0.65110  0.06320  Biso   1.000  H
  H136     1.0000 0.49460  0.34890  0.56320  Biso   1.000  H
  H137     1.0000 0.94430  0.08460  0.57110  Biso   1.000  H
  H138     1.0000 0.05570  0.91540  0.07110  Biso   1.000  H
  H139     1.0000 0.55570  0.58460  0.07110  Biso   1.000  H
  H140     1.0000 0.44430  0.41540  0.57110  Biso   1.000  H
  H141     1.0000 0.97380  0.11790  0.71250  Biso   1.000  H
  H142     1.0000 0.02620  0.88210  0.21250  Biso   1.000  H
  H143     1.0000 0.52620  0.61790  0.21250  Biso   1.000  H
  H144     1.0000 0.47380  0.38210  0.71250  Biso   1.000  H
  N1       1.0000 0.77860  0.91590  0.57430  Biso   1.000  N
  N2       1.0000 0.22140  0.08410  0.07430  Biso   1.000  N
  N3       1.0000 0.72140  0.41590  0.07430  Biso   1.000  N
  N4       1.0000 0.27860  0.58410  0.57430  Biso   1.000  N
  N5       1.0000 0.77940  0.76790  0.44080  Biso   1.000  N
  N6       1.0000 0.22060  0.23210  0.94080  Biso   1.000  N
  N7       1.0000 0.72060  0.26790  0.94080  Biso   1.000  N
  N8       1.0000 0.27940  0.73210  0.44080  Biso   1.000  N
  C81      1.0000 0.72550  0.88170  0.53200  Biso   1.000  C
  C82      1.0000 0.27450  0.11830  0.03200  Biso   1.000  C
  C83      1.0000 0.77450  0.38170  0.03200  Biso   1.000  C
  C84      1.0000 0.22550  0.61830  0.53200  Biso   1.000  C
  H145     1.0000 0.68710  0.90650  0.54650  Biso   1.000  H
  H146     1.0000 0.31290  0.09350  0.04650  Biso   1.000  H
  H147     1.0000 0.81290  0.40650  0.04650  Biso   1.000  H
  H148     1.0000 0.18710  0.59350  0.54650  Biso   1.000  H
  C85      1.0000 0.72740  0.80560  0.46400  Biso   1.000  C
  C86      1.0000 0.27260  0.19440  0.96400  Biso   1.000  C
  C87      1.0000 0.77260  0.30560  0.96400  Biso   1.000  C
  C88      1.0000 0.22740  0.69440  0.46400  Biso   1.000  C
  H149     1.0000 0.68960  0.78300  0.43570  Biso   1.000  H
  H150     1.0000 0.31040  0.21700  0.93570  Biso   1.000  H
  H151     1.0000 0.81040  0.28300  0.93570  Biso   1.000  H
  H152     1.0000 0.18960  0.71700  0.43570  Biso   1.000  H
  C89      1.0000 0.83290  0.80270  0.48520  Biso   1.000  C
  C90      1.0000 0.16710  0.19730  0.98520  Biso   1.000  C
  C91      1.0000 0.66710  0.30270  0.98520  Biso   1.000  C
  C92      1.0000 0.33290  0.69730  0.48520  Biso   1.000  C
  C93      1.0000 0.83400  0.87570  0.55590  Biso   1.000  C
  C94      1.0000 0.16600  0.12430  0.05590  Biso   1.000  C
  C95      1.0000 0.66600  0.37570  0.05590  Biso   1.000  C
  C96      1.0000 0.33400  0.62430  0.55590  Biso   1.000  C
  C97      1.0000 0.89090  0.76570  0.46730  Biso   1.000  C
  C98      1.0000 0.10910  0.23430  0.96730  Biso   1.000  C
  C99      1.0000 0.60910  0.26570  0.96730  Biso   1.000  C
  C100     1.0000 0.39090  0.73430  0.46730  Biso   1.000  C
  H153     1.0000 0.89290  0.71830  0.41960  Biso   1.000  H
  H154     1.0000 0.10710  0.28170  0.91960  Biso   1.000  H
  H155     1.0000 0.60710  0.21830  0.91960  Biso   1.000  H
  H156     1.0000 0.39290  0.78170  0.41960  Biso   1.000  H
  C101     1.0000 0.94480  0.79890  0.52000  Biso   1.000  C
  C102     1.0000 0.05520  0.20110  0.02000  Biso   1.000  C
  C103     1.0000 0.55520  0.29890  0.02000  Biso   1.000  C
  C104     1.0000 0.44480  0.70110  0.52000  Biso   1.000  C
  H157     1.0000 0.98310  0.77360  0.50790  Biso   1.000  H
  H158     1.0000 0.01690  0.22640  0.00790  Biso   1.000  H
  H159     1.0000 0.51690  0.27360  0.00790  Biso   1.000  H
  H160     1.0000 0.48310  0.72640  0.50790  Biso   1.000  H
  C105     1.0000 0.94340  0.87040  0.59100  Biso   1.000  C
  C106     1.0000 0.05660  0.12960  0.09100  Biso   1.000  C
  C107     1.0000 0.55660  0.37040  0.09100  Biso   1.000  C
  C108     1.0000 0.44340  0.62960  0.59100  Biso   1.000  C
  H161     1.0000 0.98070  0.89010  0.62870  Biso   1.000  H
  H162     1.0000 0.01930  0.10990  0.12870  Biso   1.000  H
  H163     1.0000 0.51930  0.39010  0.12870  Biso   1.000  H
  H164     1.0000 0.48070  0.60990  0.62870  Biso   1.000  H
  C109     1.0000 0.88940  0.91180  0.60760  Biso   1.000  C
  C110     1.0000 0.11060  0.08820  0.10760  Biso   1.000  C
  C111     1.0000 0.61060  0.41180  0.10760  Biso   1.000  C
  C112     1.0000 0.38940  0.58820  0.60760  Biso   1.000  C
  H165     1.0000 0.88890  0.96070  0.65010  Biso   1.000  H
  H166     1.0000 0.11110  0.03930  0.15010  Biso   1.000  H
  H167     1.0000 0.61110  0.46070  0.15010  Biso   1.000  H
  H168     1.0000 0.38890  0.53930  0.65010  Biso   1.000  H
