data_image0
_cell_length_a       7.088
_cell_length_b       8.767
_cell_length_c       15.147
_cell_angle_alpha    90
_cell_angle_beta     90
_cell_angle_gamma    90

_symmetry_space_group_name_H-M    "P 1"
_symmetry_int_tables_number       1

loop_
  _symmetry_equiv_pos_as_xyz
  'x, y, z'

loop_
  _atom_site_label
  _atom_site_occupancy
  _atom_site_fract_x
  _atom_site_fract_y
  _atom_site_fract_z
  _atom_site_thermal_displace_type
  _atom_site_B_iso_or_equiv
  _atom_site_type_symbol
  Cu1      1.0000 0.98290  0.01486  0.16925  Biso   1.000  Cu
  Cu2      1.0000 0.51710  0.98514  0.66925  Biso   1.000  Cu
  Cu3      1.0000 0.01710  0.51486  0.33075  Biso   1.000  Cu
  Cu4      1.0000 0.48290  0.48514  0.83075  Biso   1.000  Cu
  O1       1.0000 0.98990  0.07435  0.04704  Biso   1.000  O
  O2       1.0000 0.51010  0.92565  0.54704  Biso   1.000  O
  O3       1.0000 0.01010  0.57435  0.45296  Biso   1.000  O
  O4       1.0000 0.48990  0.42565  0.95296  Biso   1.000  O
  O5       1.0000 0.96690  0.22546  0.20636  Biso   1.000  O
  O6       1.0000 0.53310  0.77454  0.70636  Biso   1.000  O
  O7       1.0000 0.03310  0.72546  0.29364  Biso   1.000  O
  O8       1.0000 0.46690  0.27454  0.79364  Biso   1.000  O
  O9       1.0000 0.08790  0.20830  0.93563  Biso   1.000  O
  O10      1.0000 0.41210  0.79170  0.43563  Biso   1.000  O
  O11      1.0000 0.91210  0.70830  0.56437  Biso   1.000  O
  O12      1.0000 0.58790  0.29170  0.06437  Biso   1.000  O
  O13      1.0000 0.03900  0.46871  0.20485  Biso   1.000  O
  O14      1.0000 0.46100  0.53129  0.70485  Biso   1.000  O
  O15      1.0000 0.96100  0.96871  0.29515  Biso   1.000  O
  O16      1.0000 0.53900  0.03129  0.79515  Biso   1.000  O
  C1       1.0000 0.04760  0.19880  0.01545  Biso   1.000  C
  C2       1.0000 0.45240  0.80120  0.51545  Biso   1.000  C
  C3       1.0000 0.95240  0.69880  0.48455  Biso   1.000  C
  C4       1.0000 0.54760  0.30120  0.98455  Biso   1.000  C
  C5       1.0000 0.06710  0.34340  0.07016  Biso   1.000  C
  C6       1.0000 0.43290  0.65660  0.57016  Biso   1.000  C
  C7       1.0000 0.93290  0.84340  0.42984  Biso   1.000  C
  C8       1.0000 0.56710  0.15660  0.92984  Biso   1.000  C
  H1       1.0000 0.19670  0.37770  0.06440  Biso   1.000  H
  H2       1.0000 0.30330  0.62230  0.56440  Biso   1.000  H
  H3       1.0000 0.80330  0.87770  0.43560  Biso   1.000  H
  H4       1.0000 0.69670  0.12230  0.93560  Biso   1.000  H
  H5       1.0000 0.98850  0.42060  0.04270  Biso   1.000  H
  H6       1.0000 0.51150  0.57940  0.54270  Biso   1.000  H
  H7       1.0000 0.01150  0.92060  0.45730  Biso   1.000  H
  H8       1.0000 0.48850  0.07940  0.95730  Biso   1.000  H
  C9       1.0000 0.02110  0.34260  0.16622  Biso   1.000  C
  C10      1.0000 0.47890  0.65740  0.66622  Biso   1.000  C
  C11      1.0000 0.97890  0.84260  0.33378  Biso   1.000  C
  C12      1.0000 0.52110  0.15740  0.83378  Biso   1.000  C
  O17      1.0000 0.62350  0.04110  0.14734  Biso   1.000  O
  O18      1.0000 0.87650  0.95890  0.64734  Biso   1.000  O
  O19      1.0000 0.37650  0.54110  0.35266  Biso   1.000  O
  O20      1.0000 0.12350  0.45890  0.85266  Biso   1.000  O
  O21      1.0000 0.48140  0.76680  0.04254  Biso   1.000  O
  O22      1.0000 0.01860  0.23320  0.54254  Biso   1.000  O
  O23      1.0000 0.51860  0.26680  0.45746  Biso   1.000  O
  O24      1.0000 0.98140  0.73320  0.95746  Biso   1.000  O
  O25      1.0000 0.31360  0.05150  0.16306  Biso   1.000  O
  O26      1.0000 0.18640  0.94850  0.66306  Biso   1.000  O
  O27      1.0000 0.68640  0.55150  0.33694  Biso   1.000  O
  O28      1.0000 0.81360  0.44850  0.83694  Biso   1.000  O
  O29      1.0000 0.52220  0.57520  0.13830  Biso   1.000  O
  O30      1.0000 0.97780  0.42480  0.63830  Biso   1.000  O
  O31      1.0000 0.47780  0.07520  0.36170  Biso   1.000  O
  O32      1.0000 0.02220  0.92480  0.86170  Biso   1.000  O
  H9       1.0000 0.53160  0.52320  0.09350  Biso   1.000  H
  H10      1.0000 0.96840  0.47680  0.59350  Biso   1.000  H
  H11      1.0000 0.46840  0.02320  0.40650  Biso   1.000  H
  H12      1.0000 0.03160  0.97680  0.90650  Biso   1.000  H
  C13      1.0000 0.46000  0.98170  0.16808  Biso   1.000  C
  C14      1.0000 0.04000  0.01830  0.66808  Biso   1.000  C
  C15      1.0000 0.54000  0.48170  0.33192  Biso   1.000  C
  C16      1.0000 0.96000  0.51830  0.83192  Biso   1.000  C
  C17      1.0000 0.47260  0.81820  0.19612  Biso   1.000  C
  C18      1.0000 0.02740  0.18180  0.69612  Biso   1.000  C
  C19      1.0000 0.52740  0.31820  0.30388  Biso   1.000  C
  C20      1.0000 0.97260  0.68180  0.80388  Biso   1.000  C
  C21      1.0000 0.49130  0.71830  0.11640  Biso   1.000  C
  C22      1.0000 0.00870  0.28170  0.61640  Biso   1.000  C
  C23      1.0000 0.50870  0.21830  0.38360  Biso   1.000  C
  C24      1.0000 0.99130  0.78170  0.88360  Biso   1.000  C
  O33      1.0000 0.96170  0.80560  0.12814  Biso   1.000  O
  O34      1.0000 0.53830  0.19440  0.62814  Biso   1.000  O
  O35      1.0000 0.03830  0.30560  0.37186  Biso   1.000  O
  O36      1.0000 0.46170  0.69440  0.87186  Biso   1.000  O
  H13      1.0000 0.36800  0.78400  0.23500  Biso   1.000  H
  H14      1.0000 0.13200  0.21600  0.73500  Biso   1.000  H
  H15      1.0000 0.63200  0.28400  0.26500  Biso   1.000  H
  H16      1.0000 0.86800  0.71600  0.76500  Biso   1.000  H
  H17      1.0000 0.56300  0.80900  0.22700  Biso   1.000  H
  H18      1.0000 0.93700  0.19100  0.72700  Biso   1.000  H
  H19      1.0000 0.43700  0.30900  0.27300  Biso   1.000  H
  H20      1.0000 0.06300  0.69100  0.77300  Biso   1.000  H
  H21      1.0000 0.61600  0.12100  0.12500  Biso   1.000  H
  H22      1.0000 0.88400  0.87900  0.62500  Biso   1.000  H
  H23      1.0000 0.38400  0.62100  0.37500  Biso   1.000  H
  H24      1.0000 0.11600  0.37900  0.87500  Biso   1.000  H
  H25      1.0000 0.99300  0.73900  0.16200  Biso   1.000  H
  H26      1.0000 0.50700  0.26100  0.66200  Biso   1.000  H
  H27      1.0000 0.00700  0.23900  0.33800  Biso   1.000  H
  H28      1.0000 0.49300  0.76100  0.83800  Biso   1.000  H
  H29      1.0000 0.95900  0.79000  0.08500  Biso   1.000  H
  H30      1.0000 0.54100  0.21000  0.58500  Biso   1.000  H
  H31      1.0000 0.04100  0.29000  0.41500  Biso   1.000  H
  H32      1.0000 0.45900  0.71000  0.91500  Biso   1.000  H
