data_image0
_cell_length_a       7.124
_cell_length_b       8.803
_cell_length_c       15.225
_cell_angle_alpha    90
_cell_angle_beta     90
_cell_angle_gamma    90

_symmetry_space_group_name_H-M    "P 1"
_symmetry_int_tables_number       1

loop_
  _symmetry_equiv_pos_as_xyz
  'x, y, z'

loop_
  _atom_site_label
  _atom_site_occupancy
  _atom_site_fract_x
  _atom_site_fract_y
  _atom_site_fract_z
  _atom_site_thermal_displace_type
  _atom_site_B_iso_or_equiv
  _atom_site_type_symbol
  Cu1      1.0000 0.98297  0.98516  0.16919  Biso   1.000  Cu
  Cu2      1.0000 0.51703  0.01484  0.66919  Biso   1.000  Cu
  Cu3      1.0000 0.01703  0.48516  0.33081  Biso   1.000  Cu
  Cu4      1.0000 0.48297  0.51484  0.83081  Biso   1.000  Cu
  O1       1.0000 0.99030  0.92490  0.04684  Biso   1.000  O
  O2       1.0000 0.50970  0.07510  0.54684  Biso   1.000  O
  O3       1.0000 0.00970  0.42490  0.45316  Biso   1.000  O
  O4       1.0000 0.49030  0.57510  0.95316  Biso   1.000  O
  O5       1.0000 0.96600  0.77460  0.20600  Biso   1.000  O
  O6       1.0000 0.53400  0.22540  0.70600  Biso   1.000  O
  O7       1.0000 0.03400  0.27460  0.29400  Biso   1.000  O
  O8       1.0000 0.46600  0.72540  0.79400  Biso   1.000  O
  O9       1.0000 0.03930  0.53070  0.20497  Biso   1.000  O
  O10      1.0000 0.46070  0.46930  0.70497  Biso   1.000  O
  O11      1.0000 0.96070  0.03070  0.29503  Biso   1.000  O
  O12      1.0000 0.53930  0.96930  0.79503  Biso   1.000  O
  O13      1.0000 0.96110  0.19510  0.12710  Biso   1.000  O
  O14      1.0000 0.53890  0.80490  0.62710  Biso   1.000  O
  O15      1.0000 0.03890  0.69510  0.37290  Biso   1.000  O
  O16      1.0000 0.46110  0.30490  0.87290  Biso   1.000  O
  H1       1.0000 0.03810  0.24860  0.15250  Biso   1.000  H
  H2       1.0000 0.46190  0.75140  0.65250  Biso   1.000  H
  H3       1.0000 0.96190  0.74860  0.34750  Biso   1.000  H
  H4       1.0000 0.53810  0.25140  0.84750  Biso   1.000  H
  O17      1.0000 0.31460  0.94880  0.16300  Biso   1.000  O
  O18      1.0000 0.18540  0.05120  0.66300  Biso   1.000  O
  O19      1.0000 0.68540  0.44880  0.33700  Biso   1.000  O
  O20      1.0000 0.81460  0.55120  0.83700  Biso   1.000  O
  O21      1.0000 0.62330  0.95890  0.14760  Biso   1.000  O
  O22      1.0000 0.87670  0.04110  0.64760  Biso   1.000  O
  O23      1.0000 0.37670  0.45890  0.35240  Biso   1.000  O
  O24      1.0000 0.12330  0.54110  0.85240  Biso   1.000  O
  H5       1.0000 0.60750  0.87840  0.12140  Biso   1.000  H
  H6       1.0000 0.89250  0.12160  0.62140  Biso   1.000  H
  H7       1.0000 0.39250  0.37840  0.37860  Biso   1.000  H
  H8       1.0000 0.10750  0.62160  0.87860  Biso   1.000  H
  C1       1.0000 0.45950  0.01800  0.16790  Biso   1.000  C
  C2       1.0000 0.04050  0.98200  0.66790  Biso   1.000  C
  C3       1.0000 0.54050  0.51800  0.33210  Biso   1.000  C
  C4       1.0000 0.95950  0.48200  0.83210  Biso   1.000  C
  C5       1.0000 0.47340  0.18250  0.19570  Biso   1.000  C
  C6       1.0000 0.02660  0.81750  0.69570  Biso   1.000  C
  C7       1.0000 0.52660  0.68250  0.30430  Biso   1.000  C
  C8       1.0000 0.97340  0.31750  0.80430  Biso   1.000  C
  H9       1.0000 0.36270  0.21050  0.22900  Biso   1.000  H
  H10      1.0000 0.13730  0.78950  0.72900  Biso   1.000  H
  H11      1.0000 0.63730  0.71050  0.27100  Biso   1.000  H
  H12      1.0000 0.86270  0.28950  0.77100  Biso   1.000  H
  H13      1.0000 0.58240  0.19620  0.23310  Biso   1.000  H
  H14      1.0000 0.91760  0.80380  0.73310  Biso   1.000  H
  H15      1.0000 0.41760  0.69620  0.26690  Biso   1.000  H
  H16      1.0000 0.08240  0.30380  0.76690  Biso   1.000  H
  C9       1.0000 0.01950  0.65710  0.16640  Biso   1.000  C
  C10      1.0000 0.48050  0.34290  0.66640  Biso   1.000  C
  C11      1.0000 0.98050  0.15710  0.33360  Biso   1.000  C
  C12      1.0000 0.51950  0.84290  0.83360  Biso   1.000  C
  O25      1.0000 0.08710  0.79100  0.93600  Biso   1.000  O
  O26      1.0000 0.41290  0.20900  0.43600  Biso   1.000  O
  O27      1.0000 0.91290  0.29100  0.56400  Biso   1.000  O
  O28      1.0000 0.58710  0.70900  0.06400  Biso   1.000  O
  O29      1.0000 0.52010  0.42380  0.13800  Biso   1.000  O
  O30      1.0000 0.97990  0.57620  0.63800  Biso   1.000  O
  O31      1.0000 0.47990  0.92380  0.36200  Biso   1.000  O
  O32      1.0000 0.02010  0.07620  0.86200  Biso   1.000  O
  H17      1.0000 0.56090  0.46970  0.09510  Biso   1.000  H
  H18      1.0000 0.93910  0.53030  0.59510  Biso   1.000  H
  H19      1.0000 0.43910  0.96970  0.40490  Biso   1.000  H
  H20      1.0000 0.06090  0.03030  0.90490  Biso   1.000  H
  C13      1.0000 0.04700  0.80160  0.01550  Biso   1.000  C
  C14      1.0000 0.45300  0.19840  0.51550  Biso   1.000  C
  C15      1.0000 0.95300  0.30160  0.48450  Biso   1.000  C
  C16      1.0000 0.54700  0.69840  0.98450  Biso   1.000  C
  O33      1.0000 0.48070  0.23350  0.04250  Biso   1.000  O
  O34      1.0000 0.01930  0.76650  0.54250  Biso   1.000  O
  O35      1.0000 0.51930  0.73350  0.45750  Biso   1.000  O
  O36      1.0000 0.98070  0.26650  0.95750  Biso   1.000  O
  C17      1.0000 0.48990  0.28180  0.11690  Biso   1.000  C
  C18      1.0000 0.01010  0.71820  0.61690  Biso   1.000  C
  C19      1.0000 0.51010  0.78180  0.38310  Biso   1.000  C
  C20      1.0000 0.98990  0.21820  0.88310  Biso   1.000  C
  C21      1.0000 0.06610  0.65620  0.07040  Biso   1.000  C
  C22      1.0000 0.43390  0.34380  0.57040  Biso   1.000  C
  C23      1.0000 0.93390  0.15620  0.42960  Biso   1.000  C
  C24      1.0000 0.56610  0.84380  0.92960  Biso   1.000  C
  H21      1.0000 0.98780  0.57950  0.04300  Biso   1.000  H
  H22      1.0000 0.51220  0.42050  0.54300  Biso   1.000  H
  H23      1.0000 0.01220  0.07950  0.45700  Biso   1.000  H
  H24      1.0000 0.48780  0.92050  0.95700  Biso   1.000  H
  H25      1.0000 0.19490  0.62200  0.06490  Biso   1.000  H
  H26      1.0000 0.30510  0.37800  0.56490  Biso   1.000  H
  H27      1.0000 0.80510  0.12200  0.43510  Biso   1.000  H
  H28      1.0000 0.69490  0.87800  0.93510  Biso   1.000  H
