data_image0
_cell_length_a       8.6409
_cell_length_b       14.0972
_cell_length_c       15.1477
_cell_angle_alpha    90
_cell_angle_beta     90
_cell_angle_gamma    90

_symmetry_space_group_name_H-M    "P 1"
_symmetry_int_tables_number       1

loop_
  _symmetry_equiv_pos_as_xyz
  'x, y, z'

loop_
  _atom_site_label
  _atom_site_occupancy
  _atom_site_fract_x
  _atom_site_fract_y
  _atom_site_fract_z
  _atom_site_thermal_displace_type
  _atom_site_B_iso_or_equiv
  _atom_site_type_symbol
  Cu1      1.0000 0.23457  0.16222  0.32854  Biso   1.000  Cu
  Cu2      1.0000 0.26543  0.83778  0.82854  Biso   1.000  Cu
  Cu3      1.0000 0.73457  0.33778  0.67146  Biso   1.000  Cu
  Cu4      1.0000 0.76543  0.66222  0.17146  Biso   1.000  Cu
  Cu5      1.0000 0.76543  0.83778  0.67146  Biso   1.000  Cu
  Cu6      1.0000 0.73457  0.16222  0.17146  Biso   1.000  Cu
  Cu7      1.0000 0.26543  0.66222  0.32854  Biso   1.000  Cu
  Cu8      1.0000 0.23457  0.33778  0.82854  Biso   1.000  Cu
  C1       1.0000 0.56460  0.16306  0.33527  Biso   1.000  C
  C2       1.0000 0.93540  0.83694  0.83527  Biso   1.000  C
  C3       1.0000 0.06460  0.33694  0.66473  Biso   1.000  C
  C4       1.0000 0.43540  0.66306  0.16473  Biso   1.000  C
  C5       1.0000 0.43540  0.83694  0.66473  Biso   1.000  C
  C6       1.0000 0.06460  0.16306  0.16473  Biso   1.000  C
  C7       1.0000 0.93540  0.66306  0.33527  Biso   1.000  C
  C8       1.0000 0.56460  0.33694  0.83527  Biso   1.000  C
  C9       1.0000 0.56340  0.14280  0.43346  Biso   1.000  C
  C10      1.0000 0.93660  0.85720  0.93346  Biso   1.000  C
  C11      1.0000 0.06340  0.35720  0.56654  Biso   1.000  C
  C12      1.0000 0.43660  0.64280  0.06654  Biso   1.000  C
  C13      1.0000 0.43660  0.85720  0.56654  Biso   1.000  C
  C14      1.0000 0.06340  0.14280  0.06654  Biso   1.000  C
  C15      1.0000 0.93660  0.64280  0.43346  Biso   1.000  C
  C16      1.0000 0.56340  0.35720  0.93346  Biso   1.000  C
  C17      1.0000 0.41500  0.15327  0.48526  Biso   1.000  C
  C18      1.0000 0.08500  0.84673  0.98526  Biso   1.000  C
  C19      1.0000 0.91500  0.34673  0.51474  Biso   1.000  C
  C20      1.0000 0.58500  0.65327  0.01474  Biso   1.000  C
  C21      1.0000 0.58500  0.84673  0.51474  Biso   1.000  C
  C22      1.0000 0.91500  0.15327  0.01474  Biso   1.000  C
  C23      1.0000 0.08500  0.65327  0.48526  Biso   1.000  C
  C24      1.0000 0.41500  0.34673  0.98526  Biso   1.000  C
  O1       1.0000 0.44620  0.18819  0.29399  Biso   1.000  O
  O2       1.0000 0.05380  0.81181  0.79399  Biso   1.000  O
  O3       1.0000 0.94620  0.31181  0.70601  Biso   1.000  O
  O4       1.0000 0.55380  0.68819  0.20601  Biso   1.000  O
  O5       1.0000 0.55380  0.81181  0.70601  Biso   1.000  O
  O6       1.0000 0.94620  0.18819  0.20601  Biso   1.000  O
  O7       1.0000 0.05380  0.68819  0.29399  Biso   1.000  O
  O8       1.0000 0.44620  0.31181  0.79399  Biso   1.000  O
  O9       1.0000 0.28760  0.17189  0.45034  Biso   1.000  O
  O10      1.0000 0.21240  0.82811  0.95034  Biso   1.000  O
  O11      1.0000 0.78760  0.32811  0.54966  Biso   1.000  O
  O12      1.0000 0.71240  0.67189  0.04966  Biso   1.000  O
  O13      1.0000 0.71240  0.82811  0.54966  Biso   1.000  O
  O14      1.0000 0.78760  0.17189  0.04966  Biso   1.000  O
  O15      1.0000 0.21240  0.67189  0.45034  Biso   1.000  O
  O16      1.0000 0.28760  0.32811  0.95034  Biso   1.000  O
  O17      1.0000 0.69410  0.15363  0.29806  Biso   1.000  O
  O18      1.0000 0.80590  0.84637  0.79806  Biso   1.000  O
  O19      1.0000 0.19410  0.34637  0.70194  Biso   1.000  O
  O20      1.0000 0.30590  0.65363  0.20194  Biso   1.000  O
  O21      1.0000 0.30590  0.84637  0.70194  Biso   1.000  O
  O22      1.0000 0.19410  0.15363  0.20194  Biso   1.000  O
  O23      1.0000 0.80590  0.65363  0.29806  Biso   1.000  O
  O24      1.0000 0.69410  0.34637  0.79806  Biso   1.000  O
  O25      1.0000 0.42380  0.14169  0.56675  Biso   1.000  O
  O26      1.0000 0.07620  0.85831  0.06675  Biso   1.000  O
  O27      1.0000 0.92380  0.35831  0.43325  Biso   1.000  O
  O28      1.0000 0.57620  0.64169  0.93325  Biso   1.000  O
  O29      1.0000 0.57620  0.85831  0.43325  Biso   1.000  O
  O30      1.0000 0.92380  0.14169  0.93325  Biso   1.000  O
  O31      1.0000 0.07620  0.64169  0.56675  Biso   1.000  O
  O32      1.0000 0.42380  0.35831  0.06675  Biso   1.000  O
  C25      1.0000 0.25560  0.92543  0.33268  Biso   1.000  C
  C26      1.0000 0.24440  0.07457  0.83268  Biso   1.000  C
  C27      1.0000 0.75560  0.57457  0.66732  Biso   1.000  C
  C28      1.0000 0.74440  0.42543  0.16732  Biso   1.000  C
  C29      1.0000 0.74440  0.07457  0.66732  Biso   1.000  C
  C30      1.0000 0.75560  0.92543  0.16732  Biso   1.000  C
  C31      1.0000 0.24440  0.42543  0.33268  Biso   1.000  C
  C32      1.0000 0.25560  0.57457  0.83268  Biso   1.000  C
  C33      1.0000 0.09290  0.91510  0.30141  Biso   1.000  C
  C34      1.0000 0.40710  0.08490  0.80141  Biso   1.000  C
  C35      1.0000 0.59290  0.58490  0.69859  Biso   1.000  C
  C36      1.0000 0.90710  0.41510  0.19859  Biso   1.000  C
  C37      1.0000 0.90710  0.08490  0.69859  Biso   1.000  C
  C38      1.0000 0.59290  0.91510  0.19859  Biso   1.000  C
  C39      1.0000 0.40710  0.41510  0.30141  Biso   1.000  C
  C40      1.0000 0.09290  0.58490  0.80141  Biso   1.000  C
  C41      1.0000 0.98480  0.89753  0.37701  Biso   1.000  C
  C42      1.0000 0.51520  0.10247  0.87701  Biso   1.000  C
  C43      1.0000 0.48480  0.60247  0.62299  Biso   1.000  C
  C44      1.0000 0.01520  0.39753  0.12299  Biso   1.000  C
  C45      1.0000 0.01520  0.10247  0.62299  Biso   1.000  C
  C46      1.0000 0.48480  0.89753  0.12299  Biso   1.000  C
  C47      1.0000 0.51520  0.39753  0.37701  Biso   1.000  C
  C48      1.0000 0.98480  0.60247  0.87701  Biso   1.000  C
  O33      1.0000 0.32040  0.00001  0.34380  Biso   1.000  O
  O34      1.0000 0.17960  0.99999  0.84380  Biso   1.000  O
  O35      1.0000 0.82040  0.49999  0.65620  Biso   1.000  O
  O36      1.0000 0.67960  0.50001  0.15620  Biso   1.000  O
  O37      1.0000 0.67960  0.99999  0.65620  Biso   1.000  O
  O38      1.0000 0.82040  0.00001  0.15620  Biso   1.000  O
  O39      1.0000 0.17960  0.50001  0.34380  Biso   1.000  O
  O40      1.0000 0.32040  0.49999  0.84380  Biso   1.000  O
  O41      1.0000 0.02730  0.88749  0.45175  Biso   1.000  O
  O42      1.0000 0.47270  0.11251  0.95175  Biso   1.000  O
  O43      1.0000 0.52730  0.61251  0.54825  Biso   1.000  O
  O44      1.0000 0.97270  0.38749  0.04825  Biso   1.000  O
  O45      1.0000 0.97270  0.11251  0.54825  Biso   1.000  O
  O46      1.0000 0.52730  0.88749  0.04825  Biso   1.000  O
  O47      1.0000 0.47270  0.38749  0.45175  Biso   1.000  O
  O48      1.0000 0.02730  0.61251  0.95175  Biso   1.000  O
  O49      1.0000 0.32210  0.84313  0.34941  Biso   1.000  O
  O50      1.0000 0.17790  0.15687  0.84941  Biso   1.000  O
  O51      1.0000 0.82210  0.65687  0.65059  Biso   1.000  O
  O52      1.0000 0.67790  0.34313  0.15059  Biso   1.000  O
  O53      1.0000 0.67790  0.15687  0.65059  Biso   1.000  O
  O54      1.0000 0.82210  0.84313  0.15059  Biso   1.000  O
  O55      1.0000 0.17790  0.34313  0.34941  Biso   1.000  O
  O56      1.0000 0.32210  0.65687  0.84941  Biso   1.000  O
  O57      1.0000 0.84130  0.89430  0.35033  Biso   1.000  O
  O58      1.0000 0.65870  0.10570  0.85033  Biso   1.000  O
  O59      1.0000 0.34130  0.60570  0.64967  Biso   1.000  O
  O60      1.0000 0.15870  0.39430  0.14967  Biso   1.000  O
  O61      1.0000 0.15870  0.10570  0.64967  Biso   1.000  O
  O62      1.0000 0.34130  0.89430  0.14967  Biso   1.000  O
  O63      1.0000 0.65870  0.39430  0.35033  Biso   1.000  O
  O64      1.0000 0.84130  0.60570  0.85033  Biso   1.000  O
  O65      1.0000 0.02610  0.13200  0.37067  Biso   1.000  O
  O66      1.0000 0.47390  0.86800  0.87067  Biso   1.000  O
  O67      1.0000 0.52610  0.36800  0.62933  Biso   1.000  O
  O68      1.0000 0.97390  0.63200  0.12933  Biso   1.000  O
  O69      1.0000 0.97390  0.86800  0.62933  Biso   1.000  O
  O70      1.0000 0.52610  0.13200  0.12933  Biso   1.000  O
  O71      1.0000 0.47390  0.63200  0.37067  Biso   1.000  O
  O72      1.0000 0.02610  0.36800  0.87067  Biso   1.000  O
  H1       1.0000 0.38900  0.85100  0.36800  Biso   1.000  H
  H2       1.0000 0.11100  0.14900  0.86800  Biso   1.000  H
  H3       1.0000 0.88900  0.64900  0.63200  Biso   1.000  H
  H4       1.0000 0.61100  0.35100  0.13200  Biso   1.000  H
  H5       1.0000 0.61100  0.14900  0.63200  Biso   1.000  H
  H6       1.0000 0.88900  0.85100  0.13200  Biso   1.000  H
  H7       1.0000 0.11100  0.35100  0.36800  Biso   1.000  H
  H8       1.0000 0.38900  0.64900  0.86800  Biso   1.000  H
  H9       1.0000 0.06400  0.96500  0.27340  Biso   1.000  H
  H10      1.0000 0.43600  0.03500  0.77340  Biso   1.000  H
  H11      1.0000 0.56400  0.53500  0.72660  Biso   1.000  H
  H12      1.0000 0.93600  0.46500  0.22660  Biso   1.000  H
  H13      1.0000 0.93600  0.03500  0.72660  Biso   1.000  H
  H14      1.0000 0.56400  0.96500  0.22660  Biso   1.000  H
  H15      1.0000 0.43600  0.46500  0.27340  Biso   1.000  H
  H16      1.0000 0.06400  0.53500  0.77340  Biso   1.000  H
  H17      1.0000 0.08300  0.86800  0.26590  Biso   1.000  H
  H18      1.0000 0.41700  0.13200  0.76590  Biso   1.000  H
  H19      1.0000 0.58300  0.63200  0.73410  Biso   1.000  H
  H20      1.0000 0.91700  0.36800  0.23410  Biso   1.000  H
  H21      1.0000 0.91700  0.13200  0.73410  Biso   1.000  H
  H22      1.0000 0.58300  0.86800  0.23410  Biso   1.000  H
  H23      1.0000 0.41700  0.36800  0.26590  Biso   1.000  H
  H24      1.0000 0.08300  0.63200  0.76590  Biso   1.000  H
  H25      1.0000 0.59700  0.08500  0.44400  Biso   1.000  H
  H26      1.0000 0.90300  0.91500  0.94400  Biso   1.000  H
  H27      1.0000 0.09700  0.41500  0.55600  Biso   1.000  H
  H28      1.0000 0.40300  0.58500  0.05600  Biso   1.000  H
  H29      1.0000 0.40300  0.91500  0.55600  Biso   1.000  H
  H30      1.0000 0.09700  0.08500  0.05600  Biso   1.000  H
  H31      1.0000 0.90300  0.58500  0.44400  Biso   1.000  H
  H32      1.0000 0.59700  0.41500  0.94400  Biso   1.000  H
  H33      1.0000 0.64000  0.18200  0.45900  Biso   1.000  H
  H34      1.0000 0.86000  0.81800  0.95900  Biso   1.000  H
  H35      1.0000 0.14000  0.31800  0.54100  Biso   1.000  H
  H36      1.0000 0.36000  0.68200  0.04100  Biso   1.000  H
  H37      1.0000 0.36000  0.81800  0.54100  Biso   1.000  H
  H38      1.0000 0.14000  0.18200  0.04100  Biso   1.000  H
  H39      1.0000 0.86000  0.68200  0.45900  Biso   1.000  H
  H40      1.0000 0.64000  0.31800  0.95900  Biso   1.000  H
  H41      1.0000 0.79300  0.88500  0.38000  Biso   1.000  H
  H42      1.0000 0.70700  0.11500  0.88000  Biso   1.000  H
  H43      1.0000 0.29300  0.61500  0.62000  Biso   1.000  H
  H44      1.0000 0.20700  0.38500  0.12000  Biso   1.000  H
  H45      1.0000 0.20700  0.11500  0.62000  Biso   1.000  H
  H46      1.0000 0.29300  0.88500  0.12000  Biso   1.000  H
  H47      1.0000 0.70700  0.38500  0.38000  Biso   1.000  H
  H48      1.0000 0.79300  0.61500  0.88000  Biso   1.000  H
  H49      1.0000 0.01300  0.12800  0.41200  Biso   1.000  H
  H50      1.0000 0.48700  0.87200  0.91200  Biso   1.000  H
  H51      1.0000 0.51300  0.37200  0.58800  Biso   1.000  H
  H52      1.0000 0.98700  0.62800  0.08800  Biso   1.000  H
  H53      1.0000 0.98700  0.87200  0.58800  Biso   1.000  H
  H54      1.0000 0.51300  0.12800  0.08800  Biso   1.000  H
  H55      1.0000 0.48700  0.62800  0.41200  Biso   1.000  H
  H56      1.0000 0.01300  0.37200  0.91200  Biso   1.000  H
  H57      1.0000 0.96400  0.14700  0.34900  Biso   1.000  H
  H58      1.0000 0.53600  0.85300  0.84900  Biso   1.000  H
  H59      1.0000 0.46400  0.35300  0.65100  Biso   1.000  H
  H60      1.0000 0.03600  0.64700  0.15100  Biso   1.000  H
  H61      1.0000 0.03600  0.85300  0.65100  Biso   1.000  H
  H62      1.0000 0.46400  0.14700  0.15100  Biso   1.000  H
  H63      1.0000 0.53600  0.64700  0.34900  Biso   1.000  H
  H64      1.0000 0.96400  0.35300  0.84900  Biso   1.000  H
