data_image0
_cell_length_a       10.1918
_cell_length_b       11.6258
_cell_length_c       22.35
_cell_angle_alpha    84.796
_cell_angle_beta     83.948
_cell_angle_gamma    84.632

_symmetry_space_group_name_H-M    "P 1"
_symmetry_int_tables_number       1

loop_
  _symmetry_equiv_pos_as_xyz
  'x, y, z'

loop_
  _atom_site_label
  _atom_site_occupancy
  _atom_site_fract_x
  _atom_site_fract_y
  _atom_site_fract_z
  _atom_site_thermal_displace_type
  _atom_site_B_iso_or_equiv
  _atom_site_type_symbol
  Cu1      1.0000 0.48614  0.01431  0.25532  Biso   1.000  Cu
  Cu2      1.0000 0.51386  0.98569  0.74468  Biso   1.000  Cu
  F1       1.0000 0.22820  0.43430  0.20383  Biso   1.000  F
  F2       1.0000 0.77180  0.56570  0.79617  Biso   1.000  F
  F3       1.0000 0.95340  0.63250  0.35030  Biso   1.000  F
  F4       1.0000 0.04660  0.36750  0.64970  Biso   1.000  F
  F5       1.0000 0.01890  0.40250  0.14782  Biso   1.000  F
  F6       1.0000 0.98110  0.59750  0.85218  Biso   1.000  F
  F7       1.0000 0.74150  0.60450  0.29310  Biso   1.000  F
  F8       1.0000 0.25850  0.39550  0.70690  Biso   1.000  F
  F9       1.0000 0.76710  0.11080  0.53971  Biso   1.000  F
  F10      1.0000 0.23290  0.88920  0.46029  Biso   1.000  F
  F11      1.0000 0.99170  0.21050  0.54319  Biso   1.000  F
  F12      1.0000 0.00830  0.78950  0.45681  Biso   1.000  F
  F13      1.0000 0.25990  0.98400  0.95968  Biso   1.000  F
  F14      1.0000 0.74010  0.01600  0.04032  Biso   1.000  F
  F15      1.0000 0.10580  0.82810  0.93141  Biso   1.000  F
  F16      1.0000 0.89420  0.17190  0.06859  Biso   1.000  F
  F17      1.0000 0.39070  0.67500  0.92732  Biso   1.000  F
  F18      1.0000 0.60930  0.32500  0.07268  Biso   1.000  F
  F19      1.0000 0.65410  0.62010  0.91514  Biso   1.000  F
  F20      1.0000 0.34590  0.37990  0.08486  Biso   1.000  F
  O1       1.0000 0.29500  0.10560  0.32482  Biso   1.000  O
  O2       1.0000 0.70500  0.89440  0.67518  Biso   1.000  O
  O3       1.0000 0.31560  0.25880  0.36300  Biso   1.000  O
  O4       1.0000 0.68440  0.74120  0.63700  Biso   1.000  O
  O5       1.0000 0.16020  0.25030  0.30460  Biso   1.000  O
  O6       1.0000 0.83980  0.74970  0.69540  Biso   1.000  O
  O7       1.0000 0.15840  0.22610  0.38120  Biso   1.000  O
  O8       1.0000 0.84160  0.77390  0.61880  Biso   1.000  O
  O9       1.0000 0.53920  0.81630  0.08590  Biso   1.000  O
  O10      1.0000 0.46080  0.18370  0.91410  Biso   1.000  O
  O11      1.0000 0.52580  0.63390  0.11850  Biso   1.000  O
  O12      1.0000 0.47420  0.36610  0.88150  Biso   1.000  O
  O13      1.0000 0.69510  0.65820  0.07520  Biso   1.000  O
  O14      1.0000 0.30490  0.34180  0.92480  Biso   1.000  O
  O15      1.0000 0.66520  0.91810  0.20171  Biso   1.000  O
  O16      1.0000 0.33480  0.08190  0.79829  Biso   1.000  O
  H1       1.0000 0.65170  0.84790  0.20140  Biso   1.000  H
  H2       1.0000 0.34830  0.15210  0.79860  Biso   1.000  H
  H3       1.0000 0.73040  0.95480  0.18620  Biso   1.000  H
  H4       1.0000 0.26960  0.04520  0.81380  Biso   1.000  H
  O17      1.0000 0.07040  0.04920  0.78452  Biso   1.000  O
  O18      1.0000 0.92960  0.95080  0.21548  Biso   1.000  O
  H5       1.0000 0.14910  0.06630  0.78250  Biso   1.000  H
  H6       1.0000 0.85090  0.93370  0.21750  Biso   1.000  H
  O19      1.0000 0.13800  0.49830  0.49870  Biso   1.000  O
  O20      1.0000 0.86200  0.50170  0.50130  Biso   1.000  O
  O21      1.0000 0.50400  0.32400  0.46370  Biso   1.000  O
  O22      1.0000 0.49600  0.67600  0.53630  Biso   1.000  O
  O23      1.0000 0.40300  0.53500  0.45820  Biso   1.000  O
  O24      1.0000 0.59700  0.46500  0.54180  Biso   1.000  O
  N1       1.0000 0.38930  0.86770  0.27319  Biso   1.000  N
  N2       1.0000 0.61070  0.13230  0.72681  Biso   1.000  N
  N3       1.0000 0.56940  0.16700  0.24014  Biso   1.000  N
  N4       1.0000 0.43060  0.83300  0.75986  Biso   1.000  N
  N5       1.0000 0.57640  0.97560  0.33247  Biso   1.000  N
  N6       1.0000 0.42360  0.02440  0.66753  Biso   1.000  N
  N7       1.0000 0.38670  0.05680  0.18180  Biso   1.000  N
  N8       1.0000 0.61330  0.94320  0.81820  Biso   1.000  N
  N9       1.0000 0.06180  0.82360  0.12760  Biso   1.000  N
  N10      1.0000 0.93820  0.17640  0.87240  Biso   1.000  N
  N11      1.0000 0.24030  0.20090  0.33480  Biso   1.000  N
  N12      1.0000 0.75970  0.79910  0.66520  Biso   1.000  N
  N13      1.0000 0.59750  0.73220  0.10190  Biso   1.000  N
  N14      1.0000 0.40250  0.26780  0.89810  Biso   1.000  N
  C1       1.0000 0.33130  0.83910  0.32770  Biso   1.000  C
  C2       1.0000 0.66870  0.16090  0.67230  Biso   1.000  C
  H7       1.0000 0.32910  0.89200  0.35790  Biso   1.000  H
  H8       1.0000 0.67090  0.10800  0.64210  Biso   1.000  H
  C3       1.0000 0.38840  0.79300  0.23080  Biso   1.000  C
  C4       1.0000 0.61160  0.20700  0.76920  Biso   1.000  C
  H9       1.0000 0.42750  0.81290  0.19120  Biso   1.000  H
  H10      1.0000 0.57250  0.18710  0.80880  Biso   1.000  H
  C5       1.0000 0.27360  0.73500  0.34280  Biso   1.000  C
  C6       1.0000 0.72640  0.26500  0.65720  Biso   1.000  C
  H11      1.0000 0.23460  0.71740  0.38270  Biso   1.000  H
  H12      1.0000 0.76540  0.28260  0.61730  Biso   1.000  H
  C7       1.0000 0.33290  0.68850  0.24240  Biso   1.000  C
  C8       1.0000 0.66710  0.31150  0.75760  Biso   1.000  C
  H13      1.0000 0.33560  0.63740  0.21140  Biso   1.000  H
  H14      1.0000 0.66440  0.36260  0.78860  Biso   1.000  H
  C9       1.0000 0.27330  0.65820  0.29970  Biso   1.000  C
  C10      1.0000 0.72670  0.34180  0.70030  Biso   1.000  C
  C11      1.0000 0.21510  0.54350  0.31410  Biso   1.000  C
  C12      1.0000 0.78490  0.45650  0.68590  Biso   1.000  C
  H15      1.0000 0.18650  0.53380  0.35780  Biso   1.000  H
  H16      1.0000 0.81350  0.46620  0.64220  Biso   1.000  H
  H17      1.0000 0.28430  0.48040  0.30460  Biso   1.000  H
  H18      1.0000 0.71570  0.51960  0.69540  Biso   1.000  H
  C13      1.0000 0.09610  0.53310  0.27840  Biso   1.000  C
  C14      1.0000 0.90390  0.46690  0.72160  Biso   1.000  C
  C15      1.0000 0.10830  0.47650  0.22680  Biso   1.000  C
  C16      1.0000 0.89170  0.52350  0.77320  Biso   1.000  C
  C17      1.0000 0.97110  0.57550  0.29900  Biso   1.000  C
  C18      1.0000 0.02890  0.42450  0.70100  Biso   1.000  C
  C19      1.0000 0.99960  0.46160  0.19850  Biso   1.000  C
  C20      1.0000 0.00040  0.53840  0.80150  Biso   1.000  C
  C21      1.0000 0.86310  0.56100  0.27010  Biso   1.000  C
  C22      1.0000 0.13690  0.43900  0.72990  Biso   1.000  C
  C23      1.0000 0.87250  0.50200  0.21990  Biso   1.000  C
  C24      1.0000 0.12750  0.49800  0.78010  Biso   1.000  C
  C25      1.0000 0.75340  0.48460  0.18760  Biso   1.000  C
  C26      1.0000 0.24660  0.51540  0.81240  Biso   1.000  C
  H19      1.0000 0.78110  0.48510  0.14380  Biso   1.000  H
  H20      1.0000 0.21890  0.51490  0.85620  Biso   1.000  H
  H21      1.0000 0.68640  0.55100  0.19370  Biso   1.000  H
  H22      1.0000 0.31360  0.44900  0.80630  Biso   1.000  H
  C27      1.0000 0.68920  0.37300  0.20830  Biso   1.000  C
  C28      1.0000 0.31080  0.62700  0.79170  Biso   1.000  C
  C29      1.0000 0.76290  0.26890  0.22210  Biso   1.000  C
  C30      1.0000 0.23710  0.73110  0.77790  Biso   1.000  C
  H23      1.0000 0.85650  0.26670  0.22090  Biso   1.000  H
  H24      1.0000 0.14350  0.73330  0.77910  Biso   1.000  H
  C31      1.0000 0.55420  0.37050  0.21140  Biso   1.000  C
  C32      1.0000 0.44580  0.62950  0.78860  Biso   1.000  C
  H25      1.0000 0.50000  0.43970  0.20260  Biso   1.000  H
  H26      1.0000 0.50000  0.56030  0.79740  Biso   1.000  H
  C33      1.0000 0.70050  0.16960  0.23750  Biso   1.000  C
  C34      1.0000 0.29950  0.83040  0.76250  Biso   1.000  C
  H27      1.0000 0.75280  0.09950  0.24670  Biso   1.000  H
  H28      1.0000 0.24720  0.90050  0.75330  Biso   1.000  H
  C35      1.0000 0.49760  0.26850  0.22700  Biso   1.000  C
  C36      1.0000 0.50240  0.73150  0.77300  Biso   1.000  C
  H29      1.0000 0.40410  0.26880  0.22880  Biso   1.000  H
  H30      1.0000 0.59590  0.73120  0.77120  Biso   1.000  H
  C37      1.0000 0.56690  0.05030  0.37520  Biso   1.000  C
  C38      1.0000 0.43310  0.94970  0.62480  Biso   1.000  C
  H31      1.0000 0.52080  0.12430  0.36810  Biso   1.000  H
  H32      1.0000 0.47920  0.87570  0.63190  Biso   1.000  H
  C39      1.0000 0.64240  0.87160  0.34420  Biso   1.000  C
  C40      1.0000 0.35760  0.12840  0.65580  Biso   1.000  C
  H33      1.0000 0.65030  0.81720  0.31450  Biso   1.000  H
  H34      1.0000 0.34970  0.18280  0.68550  Biso   1.000  H
  C41      1.0000 0.62190  0.02370  0.42940  Biso   1.000  C
  C42      1.0000 0.37810  0.97630  0.57060  Biso   1.000  C
  H35      1.0000 0.61200  0.07900  0.45870  Biso   1.000  H
  H36      1.0000 0.38800  0.92100  0.54130  Biso   1.000  H
  C43      1.0000 0.69870  0.84050  0.39690  Biso   1.000  C
  C44      1.0000 0.30130  0.15950  0.60310  Biso   1.000  C
  H37      1.0000 0.74340  0.76560  0.40320  Biso   1.000  H
  H38      1.0000 0.25660  0.23440  0.59680  Biso   1.000  H
  C45      1.0000 0.69080  0.91780  0.44110  Biso   1.000  C
  C46      1.0000 0.30920  0.08220  0.55890  Biso   1.000  C
  C47      1.0000 0.75420  0.88790  0.49950  Biso   1.000  C
  C48      1.0000 0.24580  0.11210  0.50050  Biso   1.000  C
  H39      1.0000 0.69100  0.91180  0.53380  Biso   1.000  H
  H40      1.0000 0.30900  0.08820  0.46620  Biso   1.000  H
  H41      1.0000 0.77470  0.80290  0.50530  Biso   1.000  H
  H42      1.0000 0.22530  0.19710  0.49470  Biso   1.000  H
  C49      1.0000 0.87960  0.94730  0.49920  Biso   1.000  C
  C50      1.0000 0.12040  0.05270  0.50080  Biso   1.000  C
  C51      1.0000 0.88200  0.05380  0.51960  Biso   1.000  C
  C52      1.0000 0.11800  0.94620  0.48040  Biso   1.000  C
  C53      1.0000 0.99820  0.10480  0.52070  Biso   1.000  C
  C54      1.0000 0.00180  0.89520  0.47930  Biso   1.000  C
  C55      1.0000 0.44900  0.06970  0.12660  Biso   1.000  C
  C56      1.0000 0.55100  0.93030  0.87340  Biso   1.000  C
  H43      1.0000 0.54240  0.05340  0.12150  Biso   1.000  H
  H44      1.0000 0.45760  0.94660  0.87850  Biso   1.000  H
  C57      1.0000 0.25520  0.07890  0.18860  Biso   1.000  C
  C58      1.0000 0.74480  0.92110  0.81140  Biso   1.000  C
  H45      1.0000 0.21020  0.06890  0.22790  Biso   1.000  H
  H46      1.0000 0.78980  0.93110  0.77210  Biso   1.000  H
  C59      1.0000 0.38260  0.10620  0.07630  Biso   1.000  C
  C60      1.0000 0.61740  0.89380  0.92370  Biso   1.000  C
  H47      1.0000 0.43010  0.11490  0.03750  Biso   1.000  H
  H48      1.0000 0.56990  0.88510  0.96250  Biso   1.000  H
  C61      1.0000 0.18300  0.11550  0.14120  Biso   1.000  C
  C62      1.0000 0.81700  0.88450  0.85880  Biso   1.000  C
  H49      1.0000 0.08960  0.13090  0.14790  Biso   1.000  H
  H50      1.0000 0.91040  0.86910  0.85210  Biso   1.000  H
  C63      1.0000 0.24590  0.13000  0.08320  Biso   1.000  C
  C64      1.0000 0.75410  0.87000  0.91680  Biso   1.000  C
  C65      1.0000 0.17110  0.17310  0.02990  Biso   1.000  C
  C66      1.0000 0.82890  0.82690  0.97010  Biso   1.000  C
  H51      1.0000 0.23480  0.19060  0.99440  Biso   1.000  H
  H52      1.0000 0.76520  0.80940  0.00560  Biso   1.000  H
  H53      1.0000 0.11680  0.24590  0.03880  Biso   1.000  H
  H54      1.0000 0.88320  0.75410  0.96120  Biso   1.000  H
  C67      1.0000 0.08070  0.08370  0.01490  Biso   1.000  C
  C68      1.0000 0.91930  0.91630  0.98510  Biso   1.000  C
  C69      1.0000 0.13000  0.99440  0.97990  Biso   1.000  C
  C70      1.0000 0.87000  0.00560  0.02010  Biso   1.000  C
  C71      1.0000 0.05030  0.91300  0.96580  Biso   1.000  C
  C72      1.0000 0.94970  0.08700  0.03420  Biso   1.000  C
  C73      1.0000 0.18950  0.81290  0.10580  Biso   1.000  C
  C74      1.0000 0.81050  0.18710  0.89420  Biso   1.000  C
  H55      1.0000 0.24590  0.86710  0.11610  Biso   1.000  H
  H56      1.0000 0.75410  0.13290  0.88390  Biso   1.000  H
  C75      1.0000 0.98550  0.74580  0.11220  Biso   1.000  C
  C76      1.0000 0.01450  0.25420  0.88780  Biso   1.000  C
  H57      1.0000 0.89470  0.75020  0.12740  Biso   1.000  H
  H58      1.0000 0.10530  0.24980  0.87260  Biso   1.000  H
  C77      1.0000 0.24330  0.72850  0.06970  Biso   1.000  C
  C78      1.0000 0.75670  0.27150  0.93030  Biso   1.000  C
  H59      1.0000 0.33480  0.72450  0.05570  Biso   1.000  H
  H60      1.0000 0.66520  0.27550  0.94430  Biso   1.000  H
  C79      1.0000 0.03280  0.66000  0.07560  Biso   1.000  C
  C80      1.0000 0.96720  0.34000  0.92440  Biso   1.000  C
  H61      1.0000 0.97440  0.60750  0.06530  Biso   1.000  H
  H62      1.0000 0.02560  0.39250  0.93470  Biso   1.000  H
  C81      1.0000 0.16350  0.64920  0.05360  Biso   1.000  C
  C82      1.0000 0.83650  0.35080  0.94640  Biso   1.000  C
  C83      1.0000 0.21150  0.55230  0.01160  Biso   1.000  C
  C84      1.0000 0.78850  0.44770  0.98840  Biso   1.000  C
  H63      1.0000 0.17000  0.48060  0.02750  Biso   1.000  H
  H64      1.0000 0.83000  0.51940  0.97250  Biso   1.000  H
  H65      1.0000 0.18230  0.57540  0.97100  Biso   1.000  H
  H66      1.0000 0.81770  0.42460  0.02900  Biso   1.000  H
  C85      1.0000 0.36080  0.52750  0.00600  Biso   1.000  C
  C86      1.0000 0.63920  0.47250  0.99400  Biso   1.000  C
  C87      1.0000 0.44250  0.58700  0.96390  Biso   1.000  C
  C88      1.0000 0.55750  0.41300  0.03610  Biso   1.000  C
  C89      1.0000 0.57880  0.55990  0.95810  Biso   1.000  C
  C90      1.0000 0.42120  0.44010  0.04190  Biso   1.000  C
  C91      1.0000 0.01310  0.09660  0.73180  Biso   1.000  C
  C92      1.0000 0.98690  0.90340  0.26820  Biso   1.000  C
  H67      1.0000 0.05830  0.16560  0.71450  Biso   1.000  H
  H68      1.0000 0.94170  0.83440  0.28550  Biso   1.000  H
  H69      1.0000 0.91850  0.12160  0.74220  Biso   1.000  H
  H70      1.0000 0.08150  0.87840  0.25780  Biso   1.000  H
  C93      1.0000 0.02480  0.00820  0.68550  Biso   1.000  C
  C94      1.0000 0.97520  0.99180  0.31450  Biso   1.000  C
  H71      1.0000 0.98450  0.04240  0.64940  Biso   1.000  H
  H72      1.0000 0.01550  0.95760  0.35060  Biso   1.000  H
  H73      1.0000 0.97900  0.94030  0.70250  Biso   1.000  H
  H74      1.0000 0.02100  0.05970  0.29750  Biso   1.000  H
  H75      1.0000 0.11850  0.98450  0.67470  Biso   1.000  H
  H76      1.0000 0.88150  0.01550  0.32530  Biso   1.000  H
  O25      1.0000 0.01100  0.36450  0.41710  Biso   1.000  O
  O26      1.0000 0.98900  0.63550  0.58290  Biso   1.000  O
  H77      1.0000 0.05860  0.30930  0.40200  Biso   1.000  H
  H78      1.0000 0.94140  0.69070  0.59800  Biso   1.000  H
  C95      1.0000 0.89900  0.35230  0.41400  Biso   1.000  C
  C96      1.0000 0.10100  0.64770  0.58600  Biso   1.000  C
  H79      1.0000 0.85980  0.43110  0.40230  Biso   1.000  H
  H80      1.0000 0.14020  0.56890  0.59770  Biso   1.000  H
  H81      1.0000 0.86330  0.33390  0.45630  Biso   1.000  H
  H82      1.0000 0.13670  0.66610  0.54370  Biso   1.000  H
  C97      1.0000 0.84270  0.28390  0.38260  Biso   1.000  C
  C98      1.0000 0.15730  0.71610  0.61740  Biso   1.000  C
  H83      1.0000 0.74640  0.30110  0.38800  Biso   1.000  H
  H84      1.0000 0.25360  0.69890  0.61200  Biso   1.000  H
  H85      1.0000 0.86540  0.20290  0.39670  Biso   1.000  H
  H86      1.0000 0.13460  0.79710  0.60330  Biso   1.000  H
  H87      1.0000 0.87410  0.29680  0.33980  Biso   1.000  H
  H88      1.0000 0.12590  0.70320  0.66020  Biso   1.000  H
  O27      1.0000 0.69100  0.34700  0.39290  Biso   1.000  O
  O28      1.0000 0.30900  0.65300  0.60710  Biso   1.000  O
  O29      1.0000 0.66330  0.73800  0.14090  Biso   1.000  O
  O30      1.0000 0.33670  0.26200  0.85910  Biso   1.000  O
