data_image0
_cell_length_a       28.476
_cell_length_b       15.156
_cell_length_c       15.346
_cell_angle_alpha    90
_cell_angle_beta     121.965
_cell_angle_gamma    90

_symmetry_space_group_name_H-M    "P 1"
_symmetry_int_tables_number       1

loop_
  _symmetry_equiv_pos_as_xyz
  'x, y, z'

loop_
  _atom_site_label
  _atom_site_occupancy
  _atom_site_fract_x
  _atom_site_fract_y
  _atom_site_fract_z
  _atom_site_thermal_displace_type
  _atom_site_B_iso_or_equiv
  _atom_site_type_symbol
  Cu1      1.0000 0.00000  0.79118  0.75000  Biso   1.000  Cu
  Cu2      1.0000 0.50000  0.29118  0.75000  Biso   1.000  Cu
  Cu3      1.0000 0.00000  0.20882  0.25000  Biso   1.000  Cu
  Cu4      1.0000 0.50000  0.70882  0.25000  Biso   1.000  Cu
  F1       1.0000 0.15519  0.51880  0.55772  Biso   1.000  F
  F2       1.0000 0.84481  0.51880  0.94228  Biso   1.000  F
  F3       1.0000 0.65519  0.01880  0.55772  Biso   1.000  F
  F4       1.0000 0.34481  0.01880  0.94228  Biso   1.000  F
  F5       1.0000 0.84481  0.48120  0.44228  Biso   1.000  F
  F6       1.0000 0.15519  0.48120  0.05772  Biso   1.000  F
  F7       1.0000 0.34481  0.98120  0.44228  Biso   1.000  F
  F8       1.0000 0.65519  0.98120  0.05772  Biso   1.000  F
  F9       1.0000 0.25927  0.54390  0.91586  Biso   1.000  F
  F10      1.0000 0.74073  0.54390  0.58414  Biso   1.000  F
  F11      1.0000 0.75927  0.04390  0.91586  Biso   1.000  F
  F12      1.0000 0.24073  0.04390  0.58414  Biso   1.000  F
  F13      1.0000 0.74073  0.45610  0.08414  Biso   1.000  F
  F14      1.0000 0.25927  0.45610  0.41586  Biso   1.000  F
  F15      1.0000 0.24073  0.95610  0.08414  Biso   1.000  F
  F16      1.0000 0.75927  0.95610  0.41586  Biso   1.000  F
  F17      1.0000 0.24182  0.56850  0.55001  Biso   1.000  F
  F18      1.0000 0.75818  0.56850  0.94999  Biso   1.000  F
  F19      1.0000 0.74182  0.06850  0.55001  Biso   1.000  F
  F20      1.0000 0.25818  0.06850  0.94999  Biso   1.000  F
  F21      1.0000 0.75818  0.43150  0.44999  Biso   1.000  F
  F22      1.0000 0.24182  0.43150  0.05001  Biso   1.000  F
  F23      1.0000 0.25818  0.93150  0.44999  Biso   1.000  F
  F24      1.0000 0.74182  0.93150  0.05001  Biso   1.000  F
  F25      1.0000 0.34796  0.58910  0.90971  Biso   1.000  F
  F26      1.0000 0.65204  0.58910  0.59029  Biso   1.000  F
  F27      1.0000 0.84796  0.08910  0.90971  Biso   1.000  F
  F28      1.0000 0.15204  0.08910  0.59029  Biso   1.000  F
  F29      1.0000 0.65204  0.41090  0.09029  Biso   1.000  F
  F30      1.0000 0.34796  0.41090  0.40971  Biso   1.000  F
  F31      1.0000 0.15204  0.91090  0.09029  Biso   1.000  F
  F32      1.0000 0.84796  0.91090  0.40971  Biso   1.000  F
  O1       1.0000 0.94473  0.78530  0.56320  Biso   1.000  O
  O2       1.0000 0.05527  0.78530  0.93680  Biso   1.000  O
  O3       1.0000 0.44473  0.28530  0.56320  Biso   1.000  O
  O4       1.0000 0.55527  0.28530  0.93680  Biso   1.000  O
  O5       1.0000 0.05527  0.21470  0.43680  Biso   1.000  O
  O6       1.0000 0.94473  0.21470  0.06320  Biso   1.000  O
  O7       1.0000 0.55527  0.71470  0.43680  Biso   1.000  O
  O8       1.0000 0.44473  0.71470  0.06320  Biso   1.000  O
  O9       1.0000 0.91540  0.70280  0.42560  Biso   1.000  O
  O10      1.0000 0.08460  0.70280  0.07440  Biso   1.000  O
  O11      1.0000 0.41540  0.20280  0.42560  Biso   1.000  O
  O12      1.0000 0.58460  0.20280  0.07440  Biso   1.000  O
  O13      1.0000 0.08460  0.29720  0.57440  Biso   1.000  O
  O14      1.0000 0.91540  0.29720  0.92560  Biso   1.000  O
  O15      1.0000 0.58460  0.79720  0.57440  Biso   1.000  O
  O16      1.0000 0.41540  0.79720  0.92560  Biso   1.000  O
  O17      1.0000 0.97141  0.79920  0.45900  Biso   1.000  O
  O18      1.0000 0.02859  0.79920  0.04100  Biso   1.000  O
  O19      1.0000 0.47141  0.29920  0.45900  Biso   1.000  O
  O20      1.0000 0.52859  0.29920  0.04100  Biso   1.000  O
  O21      1.0000 0.02859  0.20080  0.54100  Biso   1.000  O
  O22      1.0000 0.97141  0.20080  0.95900  Biso   1.000  O
  O23      1.0000 0.52859  0.70080  0.54100  Biso   1.000  O
  O24      1.0000 0.47141  0.70080  0.95900  Biso   1.000  O
  O25      1.0000 0.25757  0.32210  0.62210  Biso   1.000  O
  O26      1.0000 0.74243  0.32210  0.87790  Biso   1.000  O
  O27      1.0000 0.75757  0.82210  0.62210  Biso   1.000  O
  O28      1.0000 0.24243  0.82210  0.87790  Biso   1.000  O
  O29      1.0000 0.74243  0.67790  0.37790  Biso   1.000  O
  O30      1.0000 0.25757  0.67790  0.12210  Biso   1.000  O
  O31      1.0000 0.24243  0.17790  0.37790  Biso   1.000  O
  O32      1.0000 0.75757  0.17790  0.12210  Biso   1.000  O
  O33      1.0000 0.39790  0.33320  0.95170  Biso   1.000  O
  O34      1.0000 0.60210  0.33320  0.54830  Biso   1.000  O
  O35      1.0000 0.89790  0.83320  0.95170  Biso   1.000  O
  O36      1.0000 0.10210  0.83320  0.54830  Biso   1.000  O
  O37      1.0000 0.60210  0.66680  0.04830  Biso   1.000  O
  O38      1.0000 0.39790  0.66680  0.45170  Biso   1.000  O
  O39      1.0000 0.10210  0.16680  0.04830  Biso   1.000  O
  O40      1.0000 0.89790  0.16680  0.45170  Biso   1.000  O
  N1       1.0000 0.05141  0.69990  0.75110  Biso   1.000  N
  N2       1.0000 0.94859  0.69990  0.74890  Biso   1.000  N
  N3       1.0000 0.55141  0.19990  0.75110  Biso   1.000  N
  N4       1.0000 0.44859  0.19990  0.74890  Biso   1.000  N
  N5       1.0000 0.94859  0.30010  0.24890  Biso   1.000  N
  N6       1.0000 0.05141  0.30010  0.25110  Biso   1.000  N
  N7       1.0000 0.44859  0.80010  0.24890  Biso   1.000  N
  N8       1.0000 0.55141  0.80010  0.25110  Biso   1.000  N
  N9       1.0000 0.45013  0.38720  0.74710  Biso   1.000  N
  N10      1.0000 0.54987  0.38720  0.75290  Biso   1.000  N
  N11      1.0000 0.95013  0.88720  0.74710  Biso   1.000  N
  N12      1.0000 0.04987  0.88720  0.75290  Biso   1.000  N
  N13      1.0000 0.54987  0.61280  0.25290  Biso   1.000  N
  N14      1.0000 0.45013  0.61280  0.24710  Biso   1.000  N
  N15      1.0000 0.04987  0.11280  0.25290  Biso   1.000  N
  N16      1.0000 0.95013  0.11280  0.24710  Biso   1.000  N
  N17      1.0000 0.94486  0.75910  0.48650  Biso   1.000  N
  N18      1.0000 0.05514  0.75910  0.01350  Biso   1.000  N
  N19      1.0000 0.44486  0.25910  0.48650  Biso   1.000  N
  N20      1.0000 0.55514  0.25910  0.01350  Biso   1.000  N
  N21      1.0000 0.05514  0.24090  0.51350  Biso   1.000  N
  N22      1.0000 0.94486  0.24090  0.98650  Biso   1.000  N
  N23      1.0000 0.55514  0.74090  0.51350  Biso   1.000  N
  N24      1.0000 0.44486  0.74090  0.98650  Biso   1.000  N
  C1       1.0000 0.06995  0.70400  0.68650  Biso   1.000  C
  C2       1.0000 0.93005  0.70400  0.81350  Biso   1.000  C
  C3       1.0000 0.56995  0.20400  0.68650  Biso   1.000  C
  C4       1.0000 0.43005  0.20400  0.81350  Biso   1.000  C
  C5       1.0000 0.93005  0.29600  0.31350  Biso   1.000  C
  C6       1.0000 0.06995  0.29600  0.18650  Biso   1.000  C
  C7       1.0000 0.43005  0.79600  0.31350  Biso   1.000  C
  C8       1.0000 0.56995  0.79600  0.18650  Biso   1.000  C
  H1       1.0000 0.05830  0.75190  0.63950  Biso   1.000  H
  H2       1.0000 0.94170  0.75190  0.86050  Biso   1.000  H
  H3       1.0000 0.55830  0.25190  0.63950  Biso   1.000  H
  H4       1.0000 0.44170  0.25190  0.86050  Biso   1.000  H
  H5       1.0000 0.94170  0.24810  0.36050  Biso   1.000  H
  H6       1.0000 0.05830  0.24810  0.13950  Biso   1.000  H
  H7       1.0000 0.44170  0.74810  0.36050  Biso   1.000  H
  H8       1.0000 0.55830  0.74810  0.13950  Biso   1.000  H
  C9       1.0000 0.06886  0.62930  0.81460  Biso   1.000  C
  C10      1.0000 0.93114  0.62930  0.68540  Biso   1.000  C
  C11      1.0000 0.56886  0.12930  0.81460  Biso   1.000  C
  C12      1.0000 0.43114  0.12930  0.68540  Biso   1.000  C
  C13      1.0000 0.93114  0.37070  0.18540  Biso   1.000  C
  C14      1.0000 0.06886  0.37070  0.31460  Biso   1.000  C
  C15      1.0000 0.43114  0.87070  0.18540  Biso   1.000  C
  C16      1.0000 0.56886  0.87070  0.31460  Biso   1.000  C
  H9       1.0000 0.05700  0.62430  0.86170  Biso   1.000  H
  H10      1.0000 0.94300  0.62430  0.63830  Biso   1.000  H
  H11      1.0000 0.55700  0.12430  0.86170  Biso   1.000  H
  H12      1.0000 0.44300  0.12430  0.63830  Biso   1.000  H
  H13      1.0000 0.94300  0.37570  0.13830  Biso   1.000  H
  H14      1.0000 0.05700  0.37570  0.36170  Biso   1.000  H
  H15      1.0000 0.44300  0.87570  0.13830  Biso   1.000  H
  H16      1.0000 0.55700  0.87570  0.36170  Biso   1.000  H
  C17      1.0000 0.10468  0.64270  0.68550  Biso   1.000  C
  C18      1.0000 0.89532  0.64270  0.81450  Biso   1.000  C
  C19      1.0000 0.60468  0.14270  0.68550  Biso   1.000  C
  C20      1.0000 0.39532  0.14270  0.81450  Biso   1.000  C
  C21      1.0000 0.89532  0.35730  0.31450  Biso   1.000  C
  C22      1.0000 0.10468  0.35730  0.18550  Biso   1.000  C
  C23      1.0000 0.39532  0.85730  0.31450  Biso   1.000  C
  C24      1.0000 0.60468  0.85730  0.18550  Biso   1.000  C
  H17      1.0000 0.11770  0.65010  0.64030  Biso   1.000  H
  H18      1.0000 0.88230  0.65010  0.85970  Biso   1.000  H
  H19      1.0000 0.61770  0.15010  0.64030  Biso   1.000  H
  H20      1.0000 0.38230  0.15010  0.85970  Biso   1.000  H
  H21      1.0000 0.88230  0.34990  0.35970  Biso   1.000  H
  H22      1.0000 0.11770  0.34990  0.14030  Biso   1.000  H
  H23      1.0000 0.38230  0.84990  0.35970  Biso   1.000  H
  H24      1.0000 0.61770  0.84990  0.14030  Biso   1.000  H
  C25      1.0000 0.10257  0.56450  0.81530  Biso   1.000  C
  C26      1.0000 0.89743  0.56450  0.68470  Biso   1.000  C
  C27      1.0000 0.60257  0.06450  0.81530  Biso   1.000  C
  C28      1.0000 0.39743  0.06450  0.68470  Biso   1.000  C
  C29      1.0000 0.89743  0.43550  0.18470  Biso   1.000  C
  C30      1.0000 0.10257  0.43550  0.31530  Biso   1.000  C
  C31      1.0000 0.39743  0.93550  0.18470  Biso   1.000  C
  C32      1.0000 0.60257  0.93550  0.31530  Biso   1.000  C
  H25      1.0000 0.11300  0.51590  0.86110  Biso   1.000  H
  H26      1.0000 0.88700  0.51590  0.63890  Biso   1.000  H
  H27      1.0000 0.61300  0.01590  0.86110  Biso   1.000  H
  H28      1.0000 0.38700  0.01590  0.63890  Biso   1.000  H
  H29      1.0000 0.88700  0.48410  0.13890  Biso   1.000  H
  H30      1.0000 0.11300  0.48410  0.36110  Biso   1.000  H
  H31      1.0000 0.38700  0.98410  0.13890  Biso   1.000  H
  H32      1.0000 0.61300  0.98410  0.36110  Biso   1.000  H
  C33      1.0000 0.12120  0.57020  0.74920  Biso   1.000  C
  C34      1.0000 0.87880  0.57020  0.75080  Biso   1.000  C
  C35      1.0000 0.62120  0.07020  0.74920  Biso   1.000  C
  C36      1.0000 0.37880  0.07020  0.75080  Biso   1.000  C
  C37      1.0000 0.87880  0.42980  0.25080  Biso   1.000  C
  C38      1.0000 0.12120  0.42980  0.24920  Biso   1.000  C
  C39      1.0000 0.37880  0.92980  0.25080  Biso   1.000  C
  C40      1.0000 0.62120  0.92980  0.24920  Biso   1.000  C
  C41      1.0000 0.15582  0.49640  0.74410  Biso   1.000  C
  C42      1.0000 0.84418  0.49640  0.75590  Biso   1.000  C
  C43      1.0000 0.65582  0.99640  0.74410  Biso   1.000  C
  C44      1.0000 0.34418  0.99640  0.75590  Biso   1.000  C
  C45      1.0000 0.84418  0.50360  0.25590  Biso   1.000  C
  C46      1.0000 0.15582  0.50360  0.24410  Biso   1.000  C
  C47      1.0000 0.34418  0.00360  0.25590  Biso   1.000  C
  C48      1.0000 0.65582  0.00360  0.24410  Biso   1.000  C
  H33      1.0000 0.16990  0.45860  0.80560  Biso   1.000  H
  H34      1.0000 0.83010  0.45860  0.69440  Biso   1.000  H
  H35      1.0000 0.66990  0.95860  0.80560  Biso   1.000  H
  H36      1.0000 0.33010  0.95860  0.69440  Biso   1.000  H
  H37      1.0000 0.83010  0.54140  0.19440  Biso   1.000  H
  H38      1.0000 0.16990  0.54140  0.30560  Biso   1.000  H
  H39      1.0000 0.33010  0.04140  0.19440  Biso   1.000  H
  H40      1.0000 0.66990  0.04140  0.30560  Biso   1.000  H
  H41      1.0000 0.13180  0.45950  0.68300  Biso   1.000  H
  H42      1.0000 0.86820  0.45950  0.81700  Biso   1.000  H
  H43      1.0000 0.63180  0.95950  0.68300  Biso   1.000  H
  H44      1.0000 0.36820  0.95950  0.81700  Biso   1.000  H
  H45      1.0000 0.86820  0.54050  0.31700  Biso   1.000  H
  H46      1.0000 0.13180  0.54050  0.18300  Biso   1.000  H
  H47      1.0000 0.36820  0.04050  0.31700  Biso   1.000  H
  H48      1.0000 0.63180  0.04050  0.18300  Biso   1.000  H
  C49      1.0000 0.20434  0.52860  0.73820  Biso   1.000  C
  C50      1.0000 0.79566  0.52860  0.76180  Biso   1.000  C
  C51      1.0000 0.70434  0.02860  0.73820  Biso   1.000  C
  C52      1.0000 0.29566  0.02860  0.76180  Biso   1.000  C
  C53      1.0000 0.79566  0.47140  0.26180  Biso   1.000  C
  C54      1.0000 0.20434  0.47140  0.23820  Biso   1.000  C
  C55      1.0000 0.29566  0.97140  0.26180  Biso   1.000  C
  C56      1.0000 0.70434  0.97140  0.23820  Biso   1.000  C
  C57      1.0000 0.20349  0.53730  0.64790  Biso   1.000  C
  C58      1.0000 0.79651  0.53730  0.85210  Biso   1.000  C
  C59      1.0000 0.70349  0.03730  0.64790  Biso   1.000  C
  C60      1.0000 0.29651  0.03730  0.85210  Biso   1.000  C
  C61      1.0000 0.79651  0.46270  0.35210  Biso   1.000  C
  C62      1.0000 0.20349  0.46270  0.14790  Biso   1.000  C
  C63      1.0000 0.29651  0.96270  0.35210  Biso   1.000  C
  C64      1.0000 0.70349  0.96270  0.14790  Biso   1.000  C
  C65      1.0000 0.25418  0.54870  0.82400  Biso   1.000  C
  C66      1.0000 0.74582  0.54870  0.67600  Biso   1.000  C
  C67      1.0000 0.75418  0.04870  0.82400  Biso   1.000  C
  C68      1.0000 0.24582  0.04870  0.67600  Biso   1.000  C
  C69      1.0000 0.74582  0.45130  0.17600  Biso   1.000  C
  C70      1.0000 0.25418  0.45130  0.32400  Biso   1.000  C
  C71      1.0000 0.24582  0.95130  0.17600  Biso   1.000  C
  C72      1.0000 0.75418  0.95130  0.32400  Biso   1.000  C
  C73      1.0000 0.24769  0.56090  0.64370  Biso   1.000  C
  C74      1.0000 0.75231  0.56090  0.85630  Biso   1.000  C
  C75      1.0000 0.74769  0.06090  0.64370  Biso   1.000  C
  C76      1.0000 0.25231  0.06090  0.85630  Biso   1.000  C
  C77      1.0000 0.75231  0.43910  0.35630  Biso   1.000  C
  C78      1.0000 0.24769  0.43910  0.14370  Biso   1.000  C
  C79      1.0000 0.25231  0.93910  0.35630  Biso   1.000  C
  C80      1.0000 0.74769  0.93910  0.14370  Biso   1.000  C
  C81      1.0000 0.30026  0.57130  0.82090  Biso   1.000  C
  C82      1.0000 0.69974  0.57130  0.67910  Biso   1.000  C
  C83      1.0000 0.80026  0.07130  0.82090  Biso   1.000  C
  C84      1.0000 0.19974  0.07130  0.67910  Biso   1.000  C
  C85      1.0000 0.69974  0.42870  0.17910  Biso   1.000  C
  C86      1.0000 0.30026  0.42870  0.32090  Biso   1.000  C
  C87      1.0000 0.19974  0.92870  0.17910  Biso   1.000  C
  C88      1.0000 0.80026  0.92870  0.32090  Biso   1.000  C
  C89      1.0000 0.29822  0.57950  0.72950  Biso   1.000  C
  C90      1.0000 0.70178  0.57950  0.77050  Biso   1.000  C
  C91      1.0000 0.79822  0.07950  0.72950  Biso   1.000  C
  C92      1.0000 0.20178  0.07950  0.77050  Biso   1.000  C
  C93      1.0000 0.70178  0.42050  0.27050  Biso   1.000  C
  C94      1.0000 0.29822  0.42050  0.22950  Biso   1.000  C
  C95      1.0000 0.20178  0.92050  0.27050  Biso   1.000  C
  C96      1.0000 0.79822  0.92050  0.22950  Biso   1.000  C
  C97      1.0000 0.34853  0.60680  0.72660  Biso   1.000  C
  C98      1.0000 0.65147  0.60680  0.77340  Biso   1.000  C
  C99      1.0000 0.84853  0.10680  0.72660  Biso   1.000  C
  C100     1.0000 0.15147  0.10680  0.77340  Biso   1.000  C
  C101     1.0000 0.65147  0.39320  0.27340  Biso   1.000  C
  C102     1.0000 0.34853  0.39320  0.22660  Biso   1.000  C
  C103     1.0000 0.15147  0.89320  0.27340  Biso   1.000  C
  C104     1.0000 0.84853  0.89320  0.22660  Biso   1.000  C
  H49      1.0000 0.33620  0.63870  0.66170  Biso   1.000  H
  H50      1.0000 0.66380  0.63870  0.83830  Biso   1.000  H
  H51      1.0000 0.83620  0.13870  0.66170  Biso   1.000  H
  H52      1.0000 0.16380  0.13870  0.83830  Biso   1.000  H
  H53      1.0000 0.66380  0.36130  0.33830  Biso   1.000  H
  H54      1.0000 0.33620  0.36130  0.16170  Biso   1.000  H
  H55      1.0000 0.16380  0.86130  0.33830  Biso   1.000  H
  H56      1.0000 0.83620  0.86130  0.16170  Biso   1.000  H
  H57      1.0000 0.37110  0.64800  0.78410  Biso   1.000  H
  H58      1.0000 0.62890  0.64800  0.71590  Biso   1.000  H
  H59      1.0000 0.87110  0.14800  0.78410  Biso   1.000  H
  H60      1.0000 0.12890  0.14800  0.71590  Biso   1.000  H
  H61      1.0000 0.62890  0.35200  0.21590  Biso   1.000  H
  H62      1.0000 0.37110  0.35200  0.28410  Biso   1.000  H
  H63      1.0000 0.12890  0.85200  0.21590  Biso   1.000  H
  H64      1.0000 0.87110  0.85200  0.28410  Biso   1.000  H
  C105     1.0000 0.38401  0.52930  0.73470  Biso   1.000  C
  C106     1.0000 0.61599  0.52930  0.76530  Biso   1.000  C
  C107     1.0000 0.88401  0.02930  0.73470  Biso   1.000  C
  C108     1.0000 0.11599  0.02930  0.76530  Biso   1.000  C
  C109     1.0000 0.61599  0.47070  0.26530  Biso   1.000  C
  C110     1.0000 0.38401  0.47070  0.23470  Biso   1.000  C
  C111     1.0000 0.11599  0.97070  0.26530  Biso   1.000  C
  C112     1.0000 0.88401  0.97070  0.23470  Biso   1.000  C
  C113     1.0000 0.36657  0.47010  0.65540  Biso   1.000  C
  C114     1.0000 0.63343  0.47010  0.84460  Biso   1.000  C
  C115     1.0000 0.86657  0.97010  0.65540  Biso   1.000  C
  C116     1.0000 0.13343  0.97010  0.84460  Biso   1.000  C
  C117     1.0000 0.63343  0.52990  0.34460  Biso   1.000  C
  C118     1.0000 0.36657  0.52990  0.15540  Biso   1.000  C
  C119     1.0000 0.13343  0.02990  0.34460  Biso   1.000  C
  C120     1.0000 0.86657  0.02990  0.15540  Biso   1.000  C
  H65      1.0000 0.33120  0.47720  0.59450  Biso   1.000  H
  H66      1.0000 0.66880  0.47720  0.90550  Biso   1.000  H
  H67      1.0000 0.83120  0.97720  0.59450  Biso   1.000  H
  H68      1.0000 0.16880  0.97720  0.90550  Biso   1.000  H
  H69      1.0000 0.66880  0.52280  0.40550  Biso   1.000  H
  H70      1.0000 0.33120  0.52280  0.09450  Biso   1.000  H
  H71      1.0000 0.16880  0.02280  0.40550  Biso   1.000  H
  H72      1.0000 0.83120  0.02280  0.09450  Biso   1.000  H
  C121     1.0000 0.43596  0.51510  0.82130  Biso   1.000  C
  C122     1.0000 0.56404  0.51510  0.67870  Biso   1.000  C
  C123     1.0000 0.93596  0.01510  0.82130  Biso   1.000  C
  C124     1.0000 0.06404  0.01510  0.67870  Biso   1.000  C
  C125     1.0000 0.56404  0.48490  0.17870  Biso   1.000  C
  C126     1.0000 0.43596  0.48490  0.32130  Biso   1.000  C
  C127     1.0000 0.06404  0.98490  0.17870  Biso   1.000  C
  C128     1.0000 0.93596  0.98490  0.32130  Biso   1.000  C
  H73      1.0000 0.45000  0.55380  0.87840  Biso   1.000  H
  H74      1.0000 0.55000  0.55380  0.62160  Biso   1.000  H
  H75      1.0000 0.95000  0.05380  0.87840  Biso   1.000  H
  H76      1.0000 0.05000  0.05380  0.62160  Biso   1.000  H
  H77      1.0000 0.55000  0.44620  0.12160  Biso   1.000  H
  H78      1.0000 0.45000  0.44620  0.37840  Biso   1.000  H
  H79      1.0000 0.05000  0.94620  0.12160  Biso   1.000  H
  H80      1.0000 0.95000  0.94620  0.37840  Biso   1.000  H
  C129     1.0000 0.39916  0.40220  0.66310  Biso   1.000  C
  C130     1.0000 0.60084  0.40220  0.83690  Biso   1.000  C
  C131     1.0000 0.89916  0.90220  0.66310  Biso   1.000  C
  C132     1.0000 0.10084  0.90220  0.83690  Biso   1.000  C
  C133     1.0000 0.60084  0.59780  0.33690  Biso   1.000  C
  C134     1.0000 0.39916  0.59780  0.16310  Biso   1.000  C
  C135     1.0000 0.10084  0.09780  0.33690  Biso   1.000  C
  C136     1.0000 0.89916  0.09780  0.16310  Biso   1.000  C
  H81      1.0000 0.38570  0.36270  0.60680  Biso   1.000  H
  H82      1.0000 0.61430  0.36270  0.89320  Biso   1.000  H
  H83      1.0000 0.88570  0.86270  0.60680  Biso   1.000  H
  H84      1.0000 0.11430  0.86270  0.89320  Biso   1.000  H
  H85      1.0000 0.61430  0.63730  0.39320  Biso   1.000  H
  H86      1.0000 0.38570  0.63730  0.10680  Biso   1.000  H
  H87      1.0000 0.11430  0.13730  0.39320  Biso   1.000  H
  H88      1.0000 0.88570  0.13730  0.10680  Biso   1.000  H
  C137     1.0000 0.46717  0.44460  0.82400  Biso   1.000  C
  C138     1.0000 0.53283  0.44460  0.67600  Biso   1.000  C
  C139     1.0000 0.96717  0.94460  0.82400  Biso   1.000  C
  C140     1.0000 0.03283  0.94460  0.67600  Biso   1.000  C
  C141     1.0000 0.53283  0.55540  0.17600  Biso   1.000  C
  C142     1.0000 0.46717  0.55540  0.32400  Biso   1.000  C
  C143     1.0000 0.03283  0.05540  0.17600  Biso   1.000  C
  C144     1.0000 0.96717  0.05540  0.32400  Biso   1.000  C
  H89      1.0000 0.50280  0.43630  0.88400  Biso   1.000  H
  H90      1.0000 0.49720  0.43630  0.61600  Biso   1.000  H
  H91      1.0000 0.00280  0.93630  0.88400  Biso   1.000  H
  H92      1.0000 0.99720  0.93630  0.61600  Biso   1.000  H
  H93      1.0000 0.49720  0.56370  0.11600  Biso   1.000  H
  H94      1.0000 0.50280  0.56370  0.38400  Biso   1.000  H
  H95      1.0000 0.99720  0.06370  0.11600  Biso   1.000  H
  H96      1.0000 0.00280  0.06370  0.38400  Biso   1.000  H
  C145     1.0000 0.26450  0.31790  0.71800  Biso   1.000  C
  C146     1.0000 0.73550  0.31790  0.78200  Biso   1.000  C
  C147     1.0000 0.76450  0.81790  0.71800  Biso   1.000  C
  C148     1.0000 0.23550  0.81790  0.78200  Biso   1.000  C
  C149     1.0000 0.73550  0.68210  0.28200  Biso   1.000  C
  C150     1.0000 0.26450  0.68210  0.21800  Biso   1.000  C
  C151     1.0000 0.23550  0.18210  0.28200  Biso   1.000  C
  C152     1.0000 0.76450  0.18210  0.21800  Biso   1.000  C
  C153     1.0000 0.31790  0.33610  0.79820  Biso   1.000  C
  C154     1.0000 0.68210  0.33610  0.70180  Biso   1.000  C
  C155     1.0000 0.81790  0.83610  0.79820  Biso   1.000  C
  C156     1.0000 0.18210  0.83610  0.70180  Biso   1.000  C
  C157     1.0000 0.68210  0.66390  0.20180  Biso   1.000  C
  C158     1.0000 0.31790  0.66390  0.29820  Biso   1.000  C
  C159     1.0000 0.18210  0.16390  0.20180  Biso   1.000  C
  C160     1.0000 0.81790  0.16390  0.29820  Biso   1.000  C
  C161     1.0000 0.22170  0.30090  0.73180  Biso   1.000  C
  C162     1.0000 0.77830  0.30090  0.76820  Biso   1.000  C
  C163     1.0000 0.72170  0.80090  0.73180  Biso   1.000  C
  C164     1.0000 0.27830  0.80090  0.76820  Biso   1.000  C
  C165     1.0000 0.77830  0.69910  0.26820  Biso   1.000  C
  C166     1.0000 0.22170  0.69910  0.23180  Biso   1.000  C
  C167     1.0000 0.27830  0.19910  0.26820  Biso   1.000  C
  C168     1.0000 0.72170  0.19910  0.23180  Biso   1.000  C
  C169     1.0000 0.20120  0.30450  0.53450  Biso   1.000  C
  C170     1.0000 0.79880  0.30450  0.96550  Biso   1.000  C
  C171     1.0000 0.70120  0.80450  0.53450  Biso   1.000  C
  C172     1.0000 0.29880  0.80450  0.96550  Biso   1.000  C
  C173     1.0000 0.79880  0.69550  0.46550  Biso   1.000  C
  C174     1.0000 0.20120  0.69550  0.03450  Biso   1.000  C
  C175     1.0000 0.29880  0.19550  0.46550  Biso   1.000  C
  C176     1.0000 0.70120  0.19550  0.03450  Biso   1.000  C
  C177     1.0000 0.33890  0.32740  0.88600  Biso   1.000  C
  C178     1.0000 0.66110  0.32740  0.61400  Biso   1.000  C
  C179     1.0000 0.83890  0.82740  0.88600  Biso   1.000  C
  C180     1.0000 0.16110  0.82740  0.61400  Biso   1.000  C
  C181     1.0000 0.66110  0.67260  0.11400  Biso   1.000  C
  C182     1.0000 0.33890  0.67260  0.38600  Biso   1.000  C
  C183     1.0000 0.16110  0.17260  0.11400  Biso   1.000  C
  C184     1.0000 0.83890  0.17260  0.38600  Biso   1.000  C
  C185     1.0000 0.30070  0.31150  0.92350  Biso   1.000  C
  C186     1.0000 0.69930  0.31150  0.57650  Biso   1.000  C
  C187     1.0000 0.80070  0.81150  0.92350  Biso   1.000  C
  C188     1.0000 0.19930  0.81150  0.57650  Biso   1.000  C
  C189     1.0000 0.69930  0.68850  0.07650  Biso   1.000  C
  C190     1.0000 0.30070  0.68850  0.42350  Biso   1.000  C
  C191     1.0000 0.19930  0.18850  0.07650  Biso   1.000  C
  C192     1.0000 0.80070  0.18850  0.42350  Biso   1.000  C
  C193     1.0000 0.24550  0.30060  0.84950  Biso   1.000  C
  C194     1.0000 0.75450  0.30060  0.65050  Biso   1.000  C
  C195     1.0000 0.74550  0.80060  0.84950  Biso   1.000  C
  C196     1.0000 0.25450  0.80060  0.65050  Biso   1.000  C
  C197     1.0000 0.75450  0.69940  0.15050  Biso   1.000  C
  C198     1.0000 0.24550  0.69940  0.34950  Biso   1.000  C
  C199     1.0000 0.25450  0.19940  0.15050  Biso   1.000  C
  C200     1.0000 0.74550  0.19940  0.34950  Biso   1.000  C
  C201     1.0000 0.42140  0.33460  0.05820  Biso   1.000  C
  C202     1.0000 0.57860  0.33460  0.44180  Biso   1.000  C
  C203     1.0000 0.92140  0.83460  0.05820  Biso   1.000  C
  C204     1.0000 0.07860  0.83460  0.44180  Biso   1.000  C
  C205     1.0000 0.57860  0.66540  0.94180  Biso   1.000  C
  C206     1.0000 0.42140  0.66540  0.55820  Biso   1.000  C
  C207     1.0000 0.07860  0.16540  0.94180  Biso   1.000  C
  C208     1.0000 0.92140  0.16540  0.55820  Biso   1.000  C
  C209     1.0000 0.52130  0.93040  0.60780  Biso   1.000  C
  C210     1.0000 0.47870  0.93040  0.89220  Biso   1.000  C
  C211     1.0000 0.02130  0.43040  0.60780  Biso   1.000  C
  C212     1.0000 0.97870  0.43040  0.89220  Biso   1.000  C
  C213     1.0000 0.47870  0.06960  0.39220  Biso   1.000  C
  C214     1.0000 0.52130  0.06960  0.10780  Biso   1.000  C
  C215     1.0000 0.97870  0.56960  0.39220  Biso   1.000  C
  C216     1.0000 0.02130  0.56960  0.10780  Biso   1.000  C
  O41      1.0000 0.50000  0.85870  0.75000  Biso   1.000  O
  O42      1.0000 0.00000  0.35870  0.75000  Biso   1.000  O
  O43      1.0000 0.50000  0.14130  0.25000  Biso   1.000  O
  O44      1.0000 0.00000  0.64130  0.25000  Biso   1.000  O
  O45      1.0000 0.40780  0.81570  0.72430  Biso   1.000  O
  O46      1.0000 0.59220  0.81570  0.77570  Biso   1.000  O
  O47      1.0000 0.90780  0.31570  0.72430  Biso   1.000  O
  O48      1.0000 0.09220  0.31570  0.77570  Biso   1.000  O
  O49      1.0000 0.59220  0.18430  0.27570  Biso   1.000  O
  O50      1.0000 0.40780  0.18430  0.22430  Biso   1.000  O
  O51      1.0000 0.09220  0.68430  0.27570  Biso   1.000  O
  O52      1.0000 0.90780  0.68430  0.22430  Biso   1.000  O
  O53      1.0000 0.49120  0.98460  0.53620  Biso   1.000  O
  O54      1.0000 0.50880  0.98460  0.96380  Biso   1.000  O
  O55      1.0000 0.99120  0.48460  0.53620  Biso   1.000  O
  O56      1.0000 0.00880  0.48460  0.96380  Biso   1.000  O
  O57      1.0000 0.50880  0.01540  0.46380  Biso   1.000  O
  O58      1.0000 0.49120  0.01540  0.03620  Biso   1.000  O
  O59      1.0000 0.00880  0.51540  0.46380  Biso   1.000  O
  O60      1.0000 0.99120  0.51540  0.03620  Biso   1.000  O
  C217     1.0000 0.31470  0.33900  0.90710  Biso   1.000  C
  C218     1.0000 0.68530  0.33900  0.59290  Biso   1.000  C
  C219     1.0000 0.81470  0.83900  0.90710  Biso   1.000  C
  C220     1.0000 0.18530  0.83900  0.59290  Biso   1.000  C
  C221     1.0000 0.68530  0.66100  0.09290  Biso   1.000  C
  C222     1.0000 0.31470  0.66100  0.40710  Biso   1.000  C
  C223     1.0000 0.18530  0.16100  0.09290  Biso   1.000  C
  C224     1.0000 0.81470  0.16100  0.40710  Biso   1.000  C
  C225     1.0000 0.26570  0.32170  0.90250  Biso   1.000  C
  C226     1.0000 0.73430  0.32170  0.59750  Biso   1.000  C
  C227     1.0000 0.76570  0.82170  0.90250  Biso   1.000  C
  C228     1.0000 0.23430  0.82170  0.59750  Biso   1.000  C
  C229     1.0000 0.73430  0.67830  0.09750  Biso   1.000  C
  C230     1.0000 0.26570  0.67830  0.40250  Biso   1.000  C
  C231     1.0000 0.23430  0.17830  0.09750  Biso   1.000  C
  C232     1.0000 0.76570  0.17830  0.40250  Biso   1.000  C
  C233     1.0000 0.21600  0.29930  0.80610  Biso   1.000  C
  C234     1.0000 0.78400  0.29930  0.69390  Biso   1.000  C
  C235     1.0000 0.71600  0.79930  0.80610  Biso   1.000  C
  C236     1.0000 0.28400  0.79930  0.69390  Biso   1.000  C
  C237     1.0000 0.78400  0.70070  0.19390  Biso   1.000  C
  C238     1.0000 0.21600  0.70070  0.30610  Biso   1.000  C
  C239     1.0000 0.28400  0.20070  0.19390  Biso   1.000  C
  C240     1.0000 0.71600  0.20070  0.30610  Biso   1.000  C
  C241     1.0000 0.41060  0.39000  0.01030  Biso   1.000  C
  C242     1.0000 0.58940  0.39000  0.48970  Biso   1.000  C
  C243     1.0000 0.91060  0.89000  0.01030  Biso   1.000  C
  C244     1.0000 0.08940  0.89000  0.48970  Biso   1.000  C
  C245     1.0000 0.58940  0.61000  0.98970  Biso   1.000  C
  C246     1.0000 0.41060  0.61000  0.51030  Biso   1.000  C
  C247     1.0000 0.08940  0.11000  0.98970  Biso   1.000  C
  C248     1.0000 0.91060  0.11000  0.51030  Biso   1.000  C
  O61      1.0000 0.57260  0.18320  0.02540  Biso   1.000  O
  O62      1.0000 0.42740  0.18320  0.47460  Biso   1.000  O
  O63      1.0000 0.07260  0.68320  0.02540  Biso   1.000  O
  O64      1.0000 0.92740  0.68320  0.47460  Biso   1.000  O
  O65      1.0000 0.42740  0.81680  0.97460  Biso   1.000  O
  O66      1.0000 0.57260  0.81680  0.52540  Biso   1.000  O
  O67      1.0000 0.92740  0.31680  0.97460  Biso   1.000  O
  O68      1.0000 0.07260  0.31680  0.52540  Biso   1.000  O
  O69      1.0000 0.35850  0.36490  0.00020  Biso   1.000  O
  O70      1.0000 0.64150  0.36490  0.49980  Biso   1.000  O
  O71      1.0000 0.85850  0.86490  0.00020  Biso   1.000  O
  O72      1.0000 0.14150  0.86490  0.49980  Biso   1.000  O
  O73      1.0000 0.64150  0.63510  0.99980  Biso   1.000  O
  O74      1.0000 0.35850  0.63510  0.50020  Biso   1.000  O
  O75      1.0000 0.14150  0.13510  0.99980  Biso   1.000  O
  O76      1.0000 0.85850  0.13510  0.50020  Biso   1.000  O
