data_image0
_cell_length_a       28.104
_cell_length_b       16.0488
_cell_length_c       14.1585
_cell_angle_alpha    90
_cell_angle_beta     116.884
_cell_angle_gamma    90

_symmetry_space_group_name_H-M    "P 1"
_symmetry_int_tables_number       1

loop_
  _symmetry_equiv_pos_as_xyz
  'x, y, z'

loop_
  _atom_site_label
  _atom_site_occupancy
  _atom_site_fract_x
  _atom_site_fract_y
  _atom_site_fract_z
  _atom_site_thermal_displace_type
  _atom_site_B_iso_or_equiv
  _atom_site_type_symbol
  Cu1      1.0000 0.50000  0.19835  0.25000  Biso   1.000  Cu
  Cu2      1.0000 0.00000  0.69835  0.25000  Biso   1.000  Cu
  Cu3      1.0000 0.50000  0.80165  0.75000  Biso   1.000  Cu
  Cu4      1.0000 0.00000  0.30165  0.75000  Biso   1.000  Cu
  F1       1.0000 0.24288  0.93810  0.02410  Biso   1.000  F
  F2       1.0000 0.75712  0.93810  0.47590  Biso   1.000  F
  F3       1.0000 0.74288  0.43810  0.02410  Biso   1.000  F
  F4       1.0000 0.25712  0.43810  0.47590  Biso   1.000  F
  F5       1.0000 0.75712  0.06190  0.97590  Biso   1.000  F
  F6       1.0000 0.24288  0.06190  0.52410  Biso   1.000  F
  F7       1.0000 0.25712  0.56190  0.97590  Biso   1.000  F
  F8       1.0000 0.74288  0.56190  0.52410  Biso   1.000  F
  F9       1.0000 0.34073  0.89556  0.39130  Biso   1.000  F
  F10      1.0000 0.65927  0.89556  0.10870  Biso   1.000  F
  F11      1.0000 0.84073  0.39556  0.39130  Biso   1.000  F
  F12      1.0000 0.15927  0.39556  0.10870  Biso   1.000  F
  F13      1.0000 0.65927  0.10444  0.60870  Biso   1.000  F
  F14      1.0000 0.34073  0.10444  0.89130  Biso   1.000  F
  F15      1.0000 0.15927  0.60444  0.60870  Biso   1.000  F
  F16      1.0000 0.84073  0.60444  0.89130  Biso   1.000  F
  F17      1.0000 0.15716  0.97770  0.04940  Biso   1.000  F
  F18      1.0000 0.84284  0.97770  0.45060  Biso   1.000  F
  F19      1.0000 0.65716  0.47770  0.04940  Biso   1.000  F
  F20      1.0000 0.34284  0.47770  0.45060  Biso   1.000  F
  F21      1.0000 0.84284  0.02230  0.95060  Biso   1.000  F
  F22      1.0000 0.15716  0.02230  0.54940  Biso   1.000  F
  F23      1.0000 0.34284  0.52230  0.95060  Biso   1.000  F
  F24      1.0000 0.65716  0.52230  0.54940  Biso   1.000  F
  F25      1.0000 0.25350  0.92731  0.41500  Biso   1.000  F
  F26      1.0000 0.74650  0.92731  0.08500  Biso   1.000  F
  F27      1.0000 0.75350  0.42731  0.41500  Biso   1.000  F
  F28      1.0000 0.24650  0.42731  0.08500  Biso   1.000  F
  F29      1.0000 0.74650  0.07269  0.58500  Biso   1.000  F
  F30      1.0000 0.25350  0.07269  0.91500  Biso   1.000  F
  F31      1.0000 0.24650  0.57269  0.58500  Biso   1.000  F
  F32      1.0000 0.75350  0.57269  0.91500  Biso   1.000  F
  O1       1.0000 0.53749  0.19290  0.45000  Biso   1.000  O
  O2       1.0000 0.46251  0.19290  0.05000  Biso   1.000  O
  O3       1.0000 0.03749  0.69290  0.45000  Biso   1.000  O
  O4       1.0000 0.96251  0.69290  0.05000  Biso   1.000  O
  O5       1.0000 0.46251  0.80710  0.55000  Biso   1.000  O
  O6       1.0000 0.53749  0.80710  0.95000  Biso   1.000  O
  O7       1.0000 0.96251  0.30710  0.55000  Biso   1.000  O
  O8       1.0000 0.03749  0.30710  0.95000  Biso   1.000  O
  O9       1.0000 0.53986  0.31320  0.51560  Biso   1.000  O
  O10      1.0000 0.46014  0.31320  0.98440  Biso   1.000  O
  O11      1.0000 0.03986  0.81320  0.51560  Biso   1.000  O
  O12      1.0000 0.96014  0.81320  0.98440  Biso   1.000  O
  O13      1.0000 0.46014  0.68680  0.48440  Biso   1.000  O
  O14      1.0000 0.53986  0.68680  0.01560  Biso   1.000  O
  O15      1.0000 0.96014  0.18680  0.48440  Biso   1.000  O
  O16      1.0000 0.03986  0.18680  0.01560  Biso   1.000  O
  O17      1.0000 0.54976  0.20560  0.60980  Biso   1.000  O
  O18      1.0000 0.45024  0.20560  0.89020  Biso   1.000  O
  O19      1.0000 0.04976  0.70560  0.60980  Biso   1.000  O
  O20      1.0000 0.95024  0.70560  0.89020  Biso   1.000  O
  O21      1.0000 0.45024  0.79440  0.39020  Biso   1.000  O
  O22      1.0000 0.54976  0.79440  0.10980  Biso   1.000  O
  O23      1.0000 0.95024  0.29440  0.39020  Biso   1.000  O
  O24      1.0000 0.04976  0.29440  0.10980  Biso   1.000  O
  O25      1.0000 0.54970  0.39250  0.70470  Biso   1.000  O
  O26      1.0000 0.45030  0.39250  0.79530  Biso   1.000  O
  O27      1.0000 0.04970  0.89250  0.70470  Biso   1.000  O
  O28      1.0000 0.95030  0.89250  0.79530  Biso   1.000  O
  O29      1.0000 0.45030  0.60750  0.29530  Biso   1.000  O
  O30      1.0000 0.54970  0.60750  0.20470  Biso   1.000  O
  O31      1.0000 0.95030  0.10750  0.29530  Biso   1.000  O
  O32      1.0000 0.04970  0.10750  0.20470  Biso   1.000  O
  N1       1.0000 0.44724  0.10790  0.23790  Biso   1.000  N
  N2       1.0000 0.55276  0.10790  0.26210  Biso   1.000  N
  N3       1.0000 0.94724  0.60790  0.23790  Biso   1.000  N
  N4       1.0000 0.05276  0.60790  0.26210  Biso   1.000  N
  N5       1.0000 0.55276  0.89210  0.76210  Biso   1.000  N
  N6       1.0000 0.44724  0.89210  0.73790  Biso   1.000  N
  N7       1.0000 0.05276  0.39210  0.76210  Biso   1.000  N
  N8       1.0000 0.94724  0.39210  0.73790  Biso   1.000  N
  N9       1.0000 0.05233  0.78580  0.25500  Biso   1.000  N
  N10      1.0000 0.94767  0.78580  0.24500  Biso   1.000  N
  N11      1.0000 0.55233  0.28580  0.25500  Biso   1.000  N
  N12      1.0000 0.44767  0.28580  0.24500  Biso   1.000  N
  N13      1.0000 0.94767  0.21420  0.74500  Biso   1.000  N
  N14      1.0000 0.05233  0.21420  0.75500  Biso   1.000  N
  N15      1.0000 0.44767  0.71420  0.74500  Biso   1.000  N
  N16      1.0000 0.55233  0.71420  0.75500  Biso   1.000  N
  N17      1.0000 0.54186  0.23330  0.52650  Biso   1.000  N
  N18      1.0000 0.45814  0.23330  0.97350  Biso   1.000  N
  N19      1.0000 0.04186  0.73330  0.52650  Biso   1.000  N
  N20      1.0000 0.95814  0.73330  0.97350  Biso   1.000  N
  N21      1.0000 0.45814  0.76670  0.47350  Biso   1.000  N
  N22      1.0000 0.54186  0.76670  0.02650  Biso   1.000  N
  N23      1.0000 0.95814  0.26670  0.47350  Biso   1.000  N
  N24      1.0000 0.04186  0.26670  0.02650  Biso   1.000  N
  C1       1.0000 0.40074  0.10130  0.15130  Biso   1.000  C
  C2       1.0000 0.59926  0.10130  0.34870  Biso   1.000  C
  C3       1.0000 0.90074  0.60130  0.15130  Biso   1.000  C
  C4       1.0000 0.09926  0.60130  0.34870  Biso   1.000  C
  C5       1.0000 0.59926  0.89870  0.84870  Biso   1.000  C
  C6       1.0000 0.40074  0.89870  0.65130  Biso   1.000  C
  C7       1.0000 0.09926  0.39870  0.84870  Biso   1.000  C
  C8       1.0000 0.90074  0.39870  0.65130  Biso   1.000  C
  H1       1.0000 0.39070  0.14360  0.09900  Biso   1.000  H
  H2       1.0000 0.60930  0.14360  0.40100  Biso   1.000  H
  H3       1.0000 0.89070  0.64360  0.09900  Biso   1.000  H
  H4       1.0000 0.10930  0.64360  0.40100  Biso   1.000  H
  H5       1.0000 0.60930  0.85640  0.90100  Biso   1.000  H
  H6       1.0000 0.39070  0.85640  0.59900  Biso   1.000  H
  H7       1.0000 0.10930  0.35640  0.90100  Biso   1.000  H
  H8       1.0000 0.89070  0.35640  0.59900  Biso   1.000  H
  C9       1.0000 0.46038  0.04810  0.31240  Biso   1.000  C
  C10      1.0000 0.53962  0.04810  0.18760  Biso   1.000  C
  C11      1.0000 0.96038  0.54810  0.31240  Biso   1.000  C
  C12      1.0000 0.03962  0.54810  0.18760  Biso   1.000  C
  C13      1.0000 0.53962  0.95190  0.68760  Biso   1.000  C
  C14      1.0000 0.46038  0.95190  0.81240  Biso   1.000  C
  C15      1.0000 0.03962  0.45190  0.68760  Biso   1.000  C
  C16      1.0000 0.96038  0.45190  0.81240  Biso   1.000  C
  H9       1.0000 0.49330  0.05270  0.37470  Biso   1.000  H
  H10      1.0000 0.50670  0.05270  0.12530  Biso   1.000  H
  H11      1.0000 0.99330  0.55270  0.37470  Biso   1.000  H
  H12      1.0000 0.00670  0.55270  0.12530  Biso   1.000  H
  H13      1.0000 0.50670  0.94730  0.62530  Biso   1.000  H
  H14      1.0000 0.49330  0.94730  0.87470  Biso   1.000  H
  H15      1.0000 0.00670  0.44730  0.62530  Biso   1.000  H
  H16      1.0000 0.99330  0.44730  0.87470  Biso   1.000  H
  C17      1.0000 0.36638  0.03440  0.13500  Biso   1.000  C
  C18      1.0000 0.63362  0.03440  0.36500  Biso   1.000  C
  C19      1.0000 0.86638  0.53440  0.13500  Biso   1.000  C
  C20      1.0000 0.13362  0.53440  0.36500  Biso   1.000  C
  C21      1.0000 0.63362  0.96560  0.86500  Biso   1.000  C
  C22      1.0000 0.36638  0.96560  0.63500  Biso   1.000  C
  C23      1.0000 0.13362  0.46560  0.86500  Biso   1.000  C
  C24      1.0000 0.86638  0.46560  0.63500  Biso   1.000  C
  H17      1.0000 0.33360  0.03120  0.07200  Biso   1.000  H
  H18      1.0000 0.66640  0.03120  0.42800  Biso   1.000  H
  H19      1.0000 0.83360  0.53120  0.07200  Biso   1.000  H
  H20      1.0000 0.16640  0.53120  0.42800  Biso   1.000  H
  H21      1.0000 0.66640  0.96880  0.92800  Biso   1.000  H
  H22      1.0000 0.33360  0.96880  0.57200  Biso   1.000  H
  H23      1.0000 0.16640  0.46880  0.92800  Biso   1.000  H
  H24      1.0000 0.83360  0.46880  0.57200  Biso   1.000  H
  C25      1.0000 0.42812  0.98050  0.30210  Biso   1.000  C
  C26      1.0000 0.57188  0.98050  0.19790  Biso   1.000  C
  C27      1.0000 0.92812  0.48050  0.30210  Biso   1.000  C
  C28      1.0000 0.07188  0.48050  0.19790  Biso   1.000  C
  C29      1.0000 0.57188  0.01950  0.69790  Biso   1.000  C
  C30      1.0000 0.42812  0.01950  0.80210  Biso   1.000  C
  C31      1.0000 0.07188  0.51950  0.69790  Biso   1.000  C
  C32      1.0000 0.92812  0.51950  0.80210  Biso   1.000  C
  H25      1.0000 0.43860  0.94000  0.35680  Biso   1.000  H
  H26      1.0000 0.56140  0.94000  0.14320  Biso   1.000  H
  H27      1.0000 0.93860  0.44000  0.35680  Biso   1.000  H
  H28      1.0000 0.06140  0.44000  0.14320  Biso   1.000  H
  H29      1.0000 0.56140  0.06000  0.64320  Biso   1.000  H
  H30      1.0000 0.43860  0.06000  0.85680  Biso   1.000  H
  H31      1.0000 0.06140  0.56000  0.64320  Biso   1.000  H
  H32      1.0000 0.93860  0.56000  0.85680  Biso   1.000  H
  C33      1.0000 0.38007  0.97250  0.21080  Biso   1.000  C
  C34      1.0000 0.61993  0.97250  0.28920  Biso   1.000  C
  C35      1.0000 0.88007  0.47250  0.21080  Biso   1.000  C
  C36      1.0000 0.11993  0.47250  0.28920  Biso   1.000  C
  C37      1.0000 0.61993  0.02750  0.78920  Biso   1.000  C
  C38      1.0000 0.38007  0.02750  0.71080  Biso   1.000  C
  C39      1.0000 0.11993  0.52750  0.78920  Biso   1.000  C
  C40      1.0000 0.88007  0.52750  0.71080  Biso   1.000  C
  C41      1.0000 0.34466  0.89690  0.19470  Biso   1.000  C
  C42      1.0000 0.65534  0.89690  0.30530  Biso   1.000  C
  C43      1.0000 0.84466  0.39690  0.19470  Biso   1.000  C
  C44      1.0000 0.15534  0.39690  0.30530  Biso   1.000  C
  C45      1.0000 0.65534  0.10310  0.80530  Biso   1.000  C
  C46      1.0000 0.34466  0.10310  0.69470  Biso   1.000  C
  C47      1.0000 0.15534  0.60310  0.80530  Biso   1.000  C
  C48      1.0000 0.84466  0.60310  0.69470  Biso   1.000  C
  H33      1.0000 0.33370  0.87420  0.12280  Biso   1.000  H
  H34      1.0000 0.66630  0.87420  0.37720  Biso   1.000  H
  H35      1.0000 0.83370  0.37420  0.12280  Biso   1.000  H
  H36      1.0000 0.16630  0.37420  0.37720  Biso   1.000  H
  H37      1.0000 0.66630  0.12580  0.87720  Biso   1.000  H
  H38      1.0000 0.33370  0.12580  0.62280  Biso   1.000  H
  H39      1.0000 0.16630  0.62580  0.87720  Biso   1.000  H
  H40      1.0000 0.83370  0.62580  0.62280  Biso   1.000  H
  H41      1.0000 0.36530  0.85330  0.24650  Biso   1.000  H
  H42      1.0000 0.63470  0.85330  0.25350  Biso   1.000  H
  H43      1.0000 0.86530  0.35330  0.24650  Biso   1.000  H
  H44      1.0000 0.13470  0.35330  0.25350  Biso   1.000  H
  H45      1.0000 0.63470  0.14670  0.75350  Biso   1.000  H
  H46      1.0000 0.36530  0.14670  0.74650  Biso   1.000  H
  H47      1.0000 0.13470  0.64670  0.75350  Biso   1.000  H
  H48      1.0000 0.86530  0.64670  0.74650  Biso   1.000  H
  C49      1.0000 0.29526  0.91770  0.20760  Biso   1.000  C
  C50      1.0000 0.70474  0.91770  0.29240  Biso   1.000  C
  C51      1.0000 0.79526  0.41770  0.20760  Biso   1.000  C
  C52      1.0000 0.20474  0.41770  0.29240  Biso   1.000  C
  C53      1.0000 0.70474  0.08230  0.79240  Biso   1.000  C
  C54      1.0000 0.29526  0.08230  0.70760  Biso   1.000  C
  C55      1.0000 0.20474  0.58230  0.79240  Biso   1.000  C
  C56      1.0000 0.79526  0.58230  0.70760  Biso   1.000  C
  C57      1.0000 0.24740  0.93810  0.12340  Biso   1.000  C
  C58      1.0000 0.75260  0.93810  0.37660  Biso   1.000  C
  C59      1.0000 0.74740  0.43810  0.12340  Biso   1.000  C
  C60      1.0000 0.25260  0.43810  0.37660  Biso   1.000  C
  C61      1.0000 0.75260  0.06190  0.87660  Biso   1.000  C
  C62      1.0000 0.24740  0.06190  0.62340  Biso   1.000  C
  C63      1.0000 0.25260  0.56190  0.87660  Biso   1.000  C
  C64      1.0000 0.74740  0.56190  0.62340  Biso   1.000  C
  C65      1.0000 0.29588  0.91560  0.30480  Biso   1.000  C
  C66      1.0000 0.70412  0.91560  0.19520  Biso   1.000  C
  C67      1.0000 0.79588  0.41560  0.30480  Biso   1.000  C
  C68      1.0000 0.20412  0.41560  0.19520  Biso   1.000  C
  C69      1.0000 0.70412  0.08440  0.69520  Biso   1.000  C
  C70      1.0000 0.29588  0.08440  0.80480  Biso   1.000  C
  C71      1.0000 0.20412  0.58440  0.69520  Biso   1.000  C
  C72      1.0000 0.79588  0.58440  0.80480  Biso   1.000  C
  C73      1.0000 0.20235  0.95880  0.13580  Biso   1.000  C
  C74      1.0000 0.79765  0.95880  0.36420  Biso   1.000  C
  C75      1.0000 0.70235  0.45880  0.13580  Biso   1.000  C
  C76      1.0000 0.29765  0.45880  0.36420  Biso   1.000  C
  C77      1.0000 0.79765  0.04120  0.86420  Biso   1.000  C
  C78      1.0000 0.20235  0.04120  0.63580  Biso   1.000  C
  C79      1.0000 0.29765  0.54120  0.86420  Biso   1.000  C
  C80      1.0000 0.70235  0.54120  0.63580  Biso   1.000  C
  C81      1.0000 0.25052  0.93340  0.31680  Biso   1.000  C
  C82      1.0000 0.74948  0.93340  0.18320  Biso   1.000  C
  C83      1.0000 0.75052  0.43340  0.31680  Biso   1.000  C
  C84      1.0000 0.24948  0.43340  0.18320  Biso   1.000  C
  C85      1.0000 0.74948  0.06660  0.68320  Biso   1.000  C
  C86      1.0000 0.25052  0.06660  0.81680  Biso   1.000  C
  C87      1.0000 0.24948  0.56660  0.68320  Biso   1.000  C
  C88      1.0000 0.75052  0.56660  0.81680  Biso   1.000  C
  C89      1.0000 0.20294  0.95770  0.23430  Biso   1.000  C
  C90      1.0000 0.79706  0.95770  0.26570  Biso   1.000  C
  C91      1.0000 0.70294  0.45770  0.23430  Biso   1.000  C
  C92      1.0000 0.29706  0.45770  0.26570  Biso   1.000  C
  C93      1.0000 0.79706  0.04230  0.76570  Biso   1.000  C
  C94      1.0000 0.20294  0.04230  0.73430  Biso   1.000  C
  C95      1.0000 0.29706  0.54230  0.76570  Biso   1.000  C
  C96      1.0000 0.70294  0.54230  0.73430  Biso   1.000  C
  C97      1.0000 0.15532  0.98280  0.25020  Biso   1.000  C
  C98      1.0000 0.84468  0.98280  0.24980  Biso   1.000  C
  C99      1.0000 0.65532  0.48280  0.25020  Biso   1.000  C
  C100     1.0000 0.34468  0.48280  0.24980  Biso   1.000  C
  C101     1.0000 0.84468  0.01720  0.74980  Biso   1.000  C
  C102     1.0000 0.15532  0.01720  0.75020  Biso   1.000  C
  C103     1.0000 0.34468  0.51720  0.74980  Biso   1.000  C
  C104     1.0000 0.65532  0.51720  0.75020  Biso   1.000  C
  H49      1.0000 0.13260  0.02030  0.19160  Biso   1.000  H
  H50      1.0000 0.86740  0.02030  0.30840  Biso   1.000  H
  H51      1.0000 0.63260  0.52030  0.19160  Biso   1.000  H
  H52      1.0000 0.36740  0.52030  0.30840  Biso   1.000  H
  H53      1.0000 0.86740  0.97970  0.80840  Biso   1.000  H
  H54      1.0000 0.13260  0.97970  0.69160  Biso   1.000  H
  H55      1.0000 0.36740  0.47970  0.80840  Biso   1.000  H
  H56      1.0000 0.63260  0.47970  0.69160  Biso   1.000  H
  H57      1.0000 0.16810  0.01500  0.31690  Biso   1.000  H
  H58      1.0000 0.83190  0.01500  0.18310  Biso   1.000  H
  H59      1.0000 0.66810  0.51500  0.31690  Biso   1.000  H
  H60      1.0000 0.33190  0.51500  0.18310  Biso   1.000  H
  H61      1.0000 0.83190  0.98500  0.68310  Biso   1.000  H
  H62      1.0000 0.16810  0.98500  0.81690  Biso   1.000  H
  H63      1.0000 0.33190  0.48500  0.68310  Biso   1.000  H
  H64      1.0000 0.66810  0.48500  0.81690  Biso   1.000  H
  C105     1.0000 0.12116  0.91120  0.25510  Biso   1.000  C
  C106     1.0000 0.87884  0.91120  0.24490  Biso   1.000  C
  C107     1.0000 0.62116  0.41120  0.25510  Biso   1.000  C
  C108     1.0000 0.37884  0.41120  0.24490  Biso   1.000  C
  C109     1.0000 0.87884  0.08880  0.74490  Biso   1.000  C
  C110     1.0000 0.12116  0.08880  0.75510  Biso   1.000  C
  C111     1.0000 0.37884  0.58880  0.74490  Biso   1.000  C
  C112     1.0000 0.62116  0.58880  0.75510  Biso   1.000  C
  C113     1.0000 0.09939  0.91290  0.32390  Biso   1.000  C
  C114     1.0000 0.90061  0.91290  0.17610  Biso   1.000  C
  C115     1.0000 0.59939  0.41290  0.32390  Biso   1.000  C
  C116     1.0000 0.40061  0.41290  0.17610  Biso   1.000  C
  C117     1.0000 0.90061  0.08710  0.67610  Biso   1.000  C
  C118     1.0000 0.09939  0.08710  0.82390  Biso   1.000  C
  C119     1.0000 0.40061  0.58710  0.67610  Biso   1.000  C
  C120     1.0000 0.59939  0.58710  0.82390  Biso   1.000  C
  H65      1.0000 0.10770  0.95750  0.37300  Biso   1.000  H
  H66      1.0000 0.89230  0.95750  0.12700  Biso   1.000  H
  H67      1.0000 0.60770  0.45750  0.37300  Biso   1.000  H
  H68      1.0000 0.39230  0.45750  0.12700  Biso   1.000  H
  H69      1.0000 0.89230  0.04250  0.62700  Biso   1.000  H
  H70      1.0000 0.10770  0.04250  0.87300  Biso   1.000  H
  H71      1.0000 0.39230  0.54250  0.62700  Biso   1.000  H
  H72      1.0000 0.60770  0.54250  0.87300  Biso   1.000  H
  C121     1.0000 0.10865  0.84340  0.18610  Biso   1.000  C
  C122     1.0000 0.89135  0.84340  0.31390  Biso   1.000  C
  C123     1.0000 0.60865  0.34340  0.18610  Biso   1.000  C
  C124     1.0000 0.39135  0.34340  0.31390  Biso   1.000  C
  C125     1.0000 0.89135  0.15660  0.81390  Biso   1.000  C
  C126     1.0000 0.10865  0.15660  0.68610  Biso   1.000  C
  C127     1.0000 0.39135  0.65660  0.81390  Biso   1.000  C
  C128     1.0000 0.60865  0.65660  0.68610  Biso   1.000  C
  H73      1.0000 0.12370  0.83910  0.13820  Biso   1.000  H
  H74      1.0000 0.87630  0.83910  0.36180  Biso   1.000  H
  H75      1.0000 0.62370  0.33910  0.13820  Biso   1.000  H
  H76      1.0000 0.37630  0.33910  0.36180  Biso   1.000  H
  H77      1.0000 0.87630  0.16090  0.86180  Biso   1.000  H
  H78      1.0000 0.12370  0.16090  0.63820  Biso   1.000  H
  H79      1.0000 0.37630  0.66090  0.86180  Biso   1.000  H
  H80      1.0000 0.62370  0.66090  0.63820  Biso   1.000  H
  C129     1.0000 0.06547  0.85040  0.32280  Biso   1.000  C
  C130     1.0000 0.93453  0.85040  0.17720  Biso   1.000  C
  C131     1.0000 0.56547  0.35040  0.32280  Biso   1.000  C
  C132     1.0000 0.43453  0.35040  0.17720  Biso   1.000  C
  C133     1.0000 0.93453  0.14960  0.67720  Biso   1.000  C
  C134     1.0000 0.06547  0.14960  0.82280  Biso   1.000  C
  C135     1.0000 0.43453  0.64960  0.67720  Biso   1.000  C
  C136     1.0000 0.56547  0.64960  0.82280  Biso   1.000  C
  H81      1.0000 0.05090  0.85300  0.37160  Biso   1.000  H
  H82      1.0000 0.94910  0.85300  0.12840  Biso   1.000  H
  H83      1.0000 0.55090  0.35300  0.37160  Biso   1.000  H
  H84      1.0000 0.44910  0.35300  0.12840  Biso   1.000  H
  H85      1.0000 0.94910  0.14700  0.62840  Biso   1.000  H
  H86      1.0000 0.05090  0.14700  0.87160  Biso   1.000  H
  H87      1.0000 0.44910  0.64700  0.62840  Biso   1.000  H
  H88      1.0000 0.55090  0.64700  0.87160  Biso   1.000  H
  C137     1.0000 0.07449  0.78300  0.18820  Biso   1.000  C
  C138     1.0000 0.92551  0.78300  0.31180  Biso   1.000  C
  C139     1.0000 0.57449  0.28300  0.18820  Biso   1.000  C
  C140     1.0000 0.42551  0.28300  0.31180  Biso   1.000  C
  C141     1.0000 0.92551  0.21700  0.81180  Biso   1.000  C
  C142     1.0000 0.07449  0.21700  0.68820  Biso   1.000  C
  C143     1.0000 0.42551  0.71700  0.81180  Biso   1.000  C
  C144     1.0000 0.57449  0.71700  0.68820  Biso   1.000  C
  H89      1.0000 0.06610  0.73740  0.14050  Biso   1.000  H
  H90      1.0000 0.93390  0.73740  0.35950  Biso   1.000  H
  H91      1.0000 0.56610  0.23740  0.14050  Biso   1.000  H
  H92      1.0000 0.43390  0.23740  0.35950  Biso   1.000  H
  H93      1.0000 0.93390  0.26260  0.85950  Biso   1.000  H
  H94      1.0000 0.06610  0.26260  0.64050  Biso   1.000  H
  H95      1.0000 0.43390  0.76260  0.85950  Biso   1.000  H
  H96      1.0000 0.56610  0.76260  0.64050  Biso   1.000  H
  C145     1.0000 0.67440  0.18970  0.09320  Biso   1.000  C
  C146     1.0000 0.32560  0.18970  0.40680  Biso   1.000  C
  C147     1.0000 0.17440  0.68970  0.09320  Biso   1.000  C
  C148     1.0000 0.82560  0.68970  0.40680  Biso   1.000  C
  C149     1.0000 0.32560  0.81030  0.90680  Biso   1.000  C
  C150     1.0000 0.67440  0.81030  0.59320  Biso   1.000  C
  C151     1.0000 0.82560  0.31030  0.90680  Biso   1.000  C
  C152     1.0000 0.17440  0.31030  0.59320  Biso   1.000  C
  C153     1.0000 0.66580  0.25200  0.01780  Biso   1.000  C
  C154     1.0000 0.33420  0.25200  0.48220  Biso   1.000  C
  C155     1.0000 0.16580  0.75200  0.01780  Biso   1.000  C
  C156     1.0000 0.83420  0.75200  0.48220  Biso   1.000  C
  C157     1.0000 0.33420  0.74800  0.98220  Biso   1.000  C
  C158     1.0000 0.66580  0.74800  0.51780  Biso   1.000  C
  C159     1.0000 0.83420  0.24800  0.98220  Biso   1.000  C
  C160     1.0000 0.16580  0.24800  0.51780  Biso   1.000  C
  H97      1.0000 0.69340  0.29070  0.02860  Biso   1.000  H
  H98      1.0000 0.30660  0.29070  0.47140  Biso   1.000  H
  H99      1.0000 0.19340  0.79070  0.02860  Biso   1.000  H
  H100     1.0000 0.80660  0.79070  0.47140  Biso   1.000  H
  H101     1.0000 0.30660  0.70930  0.97140  Biso   1.000  H
  H102     1.0000 0.69340  0.70930  0.52860  Biso   1.000  H
  H103     1.0000 0.80660  0.20930  0.97140  Biso   1.000  H
  H104     1.0000 0.19340  0.20930  0.52860  Biso   1.000  H
  C161     1.0000 0.61680  0.25780  0.92660  Biso   1.000  C
  C162     1.0000 0.38320  0.25780  0.57340  Biso   1.000  C
  C163     1.0000 0.11680  0.75780  0.92660  Biso   1.000  C
  C164     1.0000 0.88320  0.75780  0.57340  Biso   1.000  C
  C165     1.0000 0.38320  0.74220  0.07340  Biso   1.000  C
  C166     1.0000 0.61680  0.74220  0.42660  Biso   1.000  C
  C167     1.0000 0.88320  0.24220  0.07340  Biso   1.000  C
  C168     1.0000 0.11680  0.24220  0.42660  Biso   1.000  C
  H105     1.0000 0.61110  0.29970  0.87520  Biso   1.000  H
  H106     1.0000 0.38890  0.29970  0.62480  Biso   1.000  H
  H107     1.0000 0.11110  0.79970  0.87520  Biso   1.000  H
  H108     1.0000 0.88890  0.79970  0.62480  Biso   1.000  H
  H109     1.0000 0.38890  0.70030  0.12480  Biso   1.000  H
  H110     1.0000 0.61110  0.70030  0.37520  Biso   1.000  H
  H111     1.0000 0.88890  0.20030  0.12480  Biso   1.000  H
  H112     1.0000 0.11110  0.20030  0.37520  Biso   1.000  H
  C169     1.0000 0.57640  0.20060  0.91250  Biso   1.000  C
  C170     1.0000 0.42360  0.20060  0.58750  Biso   1.000  C
  C171     1.0000 0.07640  0.70060  0.91250  Biso   1.000  C
  C172     1.0000 0.92360  0.70060  0.58750  Biso   1.000  C
  C173     1.0000 0.42360  0.79940  0.08750  Biso   1.000  C
  C174     1.0000 0.57640  0.79940  0.41250  Biso   1.000  C
  C175     1.0000 0.92360  0.29940  0.08750  Biso   1.000  C
  C176     1.0000 0.07640  0.29940  0.41250  Biso   1.000  C
  H113     1.0000 0.54290  0.20430  0.85140  Biso   1.000  H
  H114     1.0000 0.45710  0.20430  0.64860  Biso   1.000  H
  H115     1.0000 0.04290  0.70430  0.85140  Biso   1.000  H
  H116     1.0000 0.95710  0.70430  0.64860  Biso   1.000  H
  H117     1.0000 0.45710  0.79570  0.14860  Biso   1.000  H
  H118     1.0000 0.54290  0.79570  0.35140  Biso   1.000  H
  H119     1.0000 0.95710  0.29570  0.14860  Biso   1.000  H
  H120     1.0000 0.04290  0.29570  0.35140  Biso   1.000  H
  C177     1.0000 0.58480  0.13940  0.98610  Biso   1.000  C
  C178     1.0000 0.41520  0.13940  0.51390  Biso   1.000  C
  C179     1.0000 0.08480  0.63940  0.98610  Biso   1.000  C
  C180     1.0000 0.91520  0.63940  0.51390  Biso   1.000  C
  C181     1.0000 0.41520  0.86060  0.01390  Biso   1.000  C
  C182     1.0000 0.58480  0.86060  0.48610  Biso   1.000  C
  C183     1.0000 0.91520  0.36060  0.01390  Biso   1.000  C
  C184     1.0000 0.08480  0.36060  0.48610  Biso   1.000  C
  H121     1.0000 0.55720  0.10080  0.97540  Biso   1.000  H
  H122     1.0000 0.44280  0.10080  0.52460  Biso   1.000  H
  H123     1.0000 0.05720  0.60080  0.97540  Biso   1.000  H
  H124     1.0000 0.94280  0.60080  0.52460  Biso   1.000  H
  H125     1.0000 0.44280  0.89920  0.02460  Biso   1.000  H
  H126     1.0000 0.55720  0.89920  0.47540  Biso   1.000  H
  H127     1.0000 0.94280  0.39920  0.02460  Biso   1.000  H
  H128     1.0000 0.05720  0.39920  0.47540  Biso   1.000  H
  C185     1.0000 0.63320  0.13370  0.07560  Biso   1.000  C
  C186     1.0000 0.36680  0.13370  0.42440  Biso   1.000  C
  C187     1.0000 0.13320  0.63370  0.07560  Biso   1.000  C
  C188     1.0000 0.86680  0.63370  0.42440  Biso   1.000  C
  C189     1.0000 0.36680  0.86630  0.92440  Biso   1.000  C
  C190     1.0000 0.63320  0.86630  0.57560  Biso   1.000  C
  C191     1.0000 0.86680  0.36630  0.92440  Biso   1.000  C
  C192     1.0000 0.13320  0.36630  0.57560  Biso   1.000  C
  H129     1.0000 0.63860  0.09100  0.12590  Biso   1.000  H
  H130     1.0000 0.36140  0.09100  0.37410  Biso   1.000  H
  H131     1.0000 0.13860  0.59100  0.12590  Biso   1.000  H
  H132     1.0000 0.86140  0.59100  0.37410  Biso   1.000  H
  H133     1.0000 0.36140  0.90900  0.87410  Biso   1.000  H
  H134     1.0000 0.63860  0.90900  0.62590  Biso   1.000  H
  H135     1.0000 0.86140  0.40900  0.87410  Biso   1.000  H
  H136     1.0000 0.13860  0.40900  0.62590  Biso   1.000  H
  C193     1.0000 0.72457  0.18590  0.19130  Biso   1.000  C
  C194     1.0000 0.27543  0.18590  0.30870  Biso   1.000  C
  C195     1.0000 0.22457  0.68590  0.19130  Biso   1.000  C
  C196     1.0000 0.77543  0.68590  0.30870  Biso   1.000  C
  C197     1.0000 0.27543  0.81410  0.80870  Biso   1.000  C
  C198     1.0000 0.72457  0.81410  0.69130  Biso   1.000  C
  C199     1.0000 0.77543  0.31410  0.80870  Biso   1.000  C
  C200     1.0000 0.22457  0.31410  0.69130  Biso   1.000  C
  C201     1.0000 0.72490  0.17370  0.28890  Biso   1.000  C
  C202     1.0000 0.27510  0.17370  0.21110  Biso   1.000  C
  C203     1.0000 0.22490  0.67370  0.28890  Biso   1.000  C
  C204     1.0000 0.77510  0.67370  0.21110  Biso   1.000  C
  C205     1.0000 0.27510  0.82630  0.71110  Biso   1.000  C
  C206     1.0000 0.72490  0.82630  0.78890  Biso   1.000  C
  C207     1.0000 0.77510  0.32630  0.71110  Biso   1.000  C
  C208     1.0000 0.22490  0.32630  0.78890  Biso   1.000  C
  H137     1.0000 0.69210  0.16620  0.29200  Biso   1.000  H
  H138     1.0000 0.30790  0.16620  0.20800  Biso   1.000  H
  H139     1.0000 0.19210  0.66620  0.29200  Biso   1.000  H
  H140     1.0000 0.80790  0.66620  0.20800  Biso   1.000  H
  H141     1.0000 0.30790  0.83380  0.70800  Biso   1.000  H
  H142     1.0000 0.69210  0.83380  0.79200  Biso   1.000  H
  H143     1.0000 0.80790  0.33380  0.70800  Biso   1.000  H
  H144     1.0000 0.19210  0.33380  0.79200  Biso   1.000  H
  C209     1.0000 0.77260  0.17230  0.38220  Biso   1.000  C
  C210     1.0000 0.22740  0.17230  0.11780  Biso   1.000  C
  C211     1.0000 0.27260  0.67230  0.38220  Biso   1.000  C
  C212     1.0000 0.72740  0.67230  0.11780  Biso   1.000  C
  C213     1.0000 0.22740  0.82770  0.61780  Biso   1.000  C
  C214     1.0000 0.77260  0.82770  0.88220  Biso   1.000  C
  C215     1.0000 0.72740  0.32770  0.61780  Biso   1.000  C
  C216     1.0000 0.27260  0.32770  0.88220  Biso   1.000  C
  H145     1.0000 0.77210  0.16410  0.44810  Biso   1.000  H
  H146     1.0000 0.22790  0.16410  0.05190  Biso   1.000  H
  H147     1.0000 0.27210  0.66410  0.44810  Biso   1.000  H
  H148     1.0000 0.72790  0.66410  0.05190  Biso   1.000  H
  H149     1.0000 0.22790  0.83590  0.55190  Biso   1.000  H
  H150     1.0000 0.77210  0.83590  0.94810  Biso   1.000  H
  H151     1.0000 0.72790  0.33590  0.55190  Biso   1.000  H
  H152     1.0000 0.27210  0.33590  0.94810  Biso   1.000  H
  C217     1.0000 0.82040  0.18280  0.37940  Biso   1.000  C
  C218     1.0000 0.17960  0.18280  0.12060  Biso   1.000  C
  C219     1.0000 0.32040  0.68280  0.37940  Biso   1.000  C
  C220     1.0000 0.67960  0.68280  0.12060  Biso   1.000  C
  C221     1.0000 0.17960  0.81720  0.62060  Biso   1.000  C
  C222     1.0000 0.82040  0.81720  0.87940  Biso   1.000  C
  C223     1.0000 0.67960  0.31720  0.62060  Biso   1.000  C
  C224     1.0000 0.32040  0.31720  0.87940  Biso   1.000  C
  H153     1.0000 0.85280  0.18180  0.44320  Biso   1.000  H
  H154     1.0000 0.14720  0.18180  0.05680  Biso   1.000  H
  H155     1.0000 0.35280  0.68180  0.44320  Biso   1.000  H
  H156     1.0000 0.64720  0.68180  0.05680  Biso   1.000  H
  H157     1.0000 0.14720  0.81820  0.55680  Biso   1.000  H
  H158     1.0000 0.85280  0.81820  0.94320  Biso   1.000  H
  H159     1.0000 0.64720  0.31820  0.55680  Biso   1.000  H
  H160     1.0000 0.35280  0.31820  0.94320  Biso   1.000  H
  C225     1.0000 0.82130  0.19460  0.28370  Biso   1.000  C
  C226     1.0000 0.17870  0.19460  0.21630  Biso   1.000  C
  C227     1.0000 0.32130  0.69460  0.28370  Biso   1.000  C
  C228     1.0000 0.67870  0.69460  0.21630  Biso   1.000  C
  C229     1.0000 0.17870  0.80540  0.71630  Biso   1.000  C
  C230     1.0000 0.82130  0.80540  0.78370  Biso   1.000  C
  C231     1.0000 0.67870  0.30540  0.71630  Biso   1.000  C
  C232     1.0000 0.32130  0.30540  0.78370  Biso   1.000  C
  H161     1.0000 0.85440  0.20130  0.28140  Biso   1.000  H
  H162     1.0000 0.14560  0.20130  0.21860  Biso   1.000  H
  H163     1.0000 0.35440  0.70130  0.28140  Biso   1.000  H
  H164     1.0000 0.64560  0.70130  0.21860  Biso   1.000  H
  H165     1.0000 0.14560  0.79870  0.71860  Biso   1.000  H
  H166     1.0000 0.85440  0.79870  0.78140  Biso   1.000  H
  H167     1.0000 0.64560  0.29870  0.71860  Biso   1.000  H
  H168     1.0000 0.35440  0.29870  0.78140  Biso   1.000  H
  C233     1.0000 0.77407  0.19670  0.19120  Biso   1.000  C
  C234     1.0000 0.22593  0.19670  0.30880  Biso   1.000  C
  C235     1.0000 0.27407  0.69670  0.19120  Biso   1.000  C
  C236     1.0000 0.72593  0.69670  0.30880  Biso   1.000  C
  C237     1.0000 0.22593  0.80330  0.80880  Biso   1.000  C
  C238     1.0000 0.77407  0.80330  0.69120  Biso   1.000  C
  C239     1.0000 0.72593  0.30330  0.80880  Biso   1.000  C
  C240     1.0000 0.27407  0.30330  0.69120  Biso   1.000  C
  H169     1.0000 0.77510  0.20560  0.12580  Biso   1.000  H
  H170     1.0000 0.22490  0.20560  0.37420  Biso   1.000  H
  H171     1.0000 0.27510  0.70560  0.12580  Biso   1.000  H
  H172     1.0000 0.72490  0.70560  0.37420  Biso   1.000  H
  H173     1.0000 0.22490  0.79440  0.87420  Biso   1.000  H
  H174     1.0000 0.77510  0.79440  0.62580  Biso   1.000  H
  H175     1.0000 0.72490  0.29440  0.87420  Biso   1.000  H
  H176     1.0000 0.27510  0.29440  0.62580  Biso   1.000  H
  C241     1.0000 0.50240  0.42580  0.67230  Biso   1.000  C
  C242     1.0000 0.49760  0.42580  0.82770  Biso   1.000  C
  C243     1.0000 0.00240  0.92580  0.67230  Biso   1.000  C
  C244     1.0000 0.99760  0.92580  0.82770  Biso   1.000  C
  C245     1.0000 0.49760  0.57420  0.32770  Biso   1.000  C
  C246     1.0000 0.50240  0.57420  0.17230  Biso   1.000  C
  C247     1.0000 0.99760  0.07420  0.32770  Biso   1.000  C
  C248     1.0000 0.00240  0.07420  0.17230  Biso   1.000  C
  C249     1.0000 0.48890  0.48770  0.54540  Biso   1.000  C
  C250     1.0000 0.51110  0.48770  0.95460  Biso   1.000  C
  C251     1.0000 0.98890  0.98770  0.54540  Biso   1.000  C
  C252     1.0000 0.01110  0.98770  0.95460  Biso   1.000  C
  C253     1.0000 0.51110  0.51230  0.45460  Biso   1.000  C
  C254     1.0000 0.48890  0.51230  0.04540  Biso   1.000  C
  C255     1.0000 0.01110  0.01230  0.45460  Biso   1.000  C
  C256     1.0000 0.98890  0.01230  0.04540  Biso   1.000  C
