data_image0
_cell_length_a       10.7067
_cell_length_b       15.089
_cell_length_c       15.475
_cell_angle_alpha    90
_cell_angle_beta     98.769
_cell_angle_gamma    90

_symmetry_space_group_name_H-M    "P 1"
_symmetry_int_tables_number       1

loop_
  _symmetry_equiv_pos_as_xyz
  'x, y, z'

loop_
  _atom_site_label
  _atom_site_occupancy
  _atom_site_fract_x
  _atom_site_fract_y
  _atom_site_fract_z
  _atom_site_thermal_displace_type
  _atom_site_B_iso_or_equiv
  _atom_site_type_symbol
  Cu1      1.0000 0.50000  0.76072  0.25000  Biso   1.000  Cu
  Cu2      1.0000 0.50000  0.23928  0.75000  Biso   1.000  Cu
  F1       1.0000 0.75507  0.48527  0.92451  Biso   1.000  F
  F2       1.0000 0.24493  0.48527  0.57549  Biso   1.000  F
  F3       1.0000 0.24493  0.51473  0.07549  Biso   1.000  F
  F4       1.0000 0.75507  0.51473  0.42451  Biso   1.000  F
  F5       1.0000 0.06956  0.46964  0.17325  Biso   1.000  F
  F6       1.0000 0.93044  0.46964  0.32675  Biso   1.000  F
  F7       1.0000 0.93044  0.53036  0.82675  Biso   1.000  F
  F8       1.0000 0.06956  0.53036  0.67325  Biso   1.000  F
  F9       1.0000 0.78227  0.96922  0.89036  Biso   1.000  F
  F10      1.0000 0.21773  0.96922  0.60964  Biso   1.000  F
  F11      1.0000 0.21773  0.03078  0.10964  Biso   1.000  F
  F12      1.0000 0.78227  0.03078  0.39036  Biso   1.000  F
  F13      1.0000 0.99750  0.08301  0.15549  Biso   1.000  F
  F14      1.0000 0.00250  0.08301  0.34451  Biso   1.000  F
  F15      1.0000 0.00250  0.91699  0.84451  Biso   1.000  F
  F16      1.0000 0.99750  0.91699  0.65549  Biso   1.000  F
  O1       1.0000 0.68200  0.77402  0.37045  Biso   1.000  O
  O2       1.0000 0.31800  0.77402  0.12955  Biso   1.000  O
  O3       1.0000 0.31800  0.22598  0.62955  Biso   1.000  O
  O4       1.0000 0.68200  0.22598  0.87045  Biso   1.000  O
  O5       1.0000 0.64150  0.71990  0.49257  Biso   1.000  O
  O6       1.0000 0.35850  0.71990  0.00743  Biso   1.000  O
  O7       1.0000 0.35850  0.28010  0.50743  Biso   1.000  O
  O8       1.0000 0.64150  0.28010  0.99257  Biso   1.000  O
  O9       1.0000 0.82970  0.73030  0.47350  Biso   1.000  O
  O10      1.0000 0.17030  0.73030  0.02650  Biso   1.000  O
  O11      1.0000 0.17030  0.26970  0.52650  Biso   1.000  O
  O12      1.0000 0.82970  0.26970  0.97350  Biso   1.000  O
  N1       1.0000 0.59449  0.66514  0.19429  Biso   1.000  N
  N2       1.0000 0.40551  0.66514  0.30571  Biso   1.000  N
  N3       1.0000 0.40551  0.33486  0.80571  Biso   1.000  N
  N4       1.0000 0.59449  0.33486  0.69429  Biso   1.000  N
  N5       1.0000 0.58735  0.85591  0.18711  Biso   1.000  N
  N6       1.0000 0.41265  0.85591  0.31289  Biso   1.000  N
  N7       1.0000 0.41265  0.14409  0.81289  Biso   1.000  N
  N8       1.0000 0.58735  0.14409  0.68711  Biso   1.000  N
  N9       1.0000 0.71770  0.73984  0.44440  Biso   1.000  N
  N10      1.0000 0.28230  0.73984  0.05560  Biso   1.000  N
  N11      1.0000 0.28230  0.26016  0.55560  Biso   1.000  N
  N12      1.0000 0.71770  0.26016  0.94440  Biso   1.000  N
  C1       1.0000 0.53600  0.59709  0.14969  Biso   1.000  C
  C2       1.0000 0.46400  0.59709  0.35031  Biso   1.000  C
  C3       1.0000 0.46400  0.40291  0.85031  Biso   1.000  C
  C4       1.0000 0.53600  0.40291  0.64969  Biso   1.000  C
  H1       1.0000 0.44620  0.59650  0.13880  Biso   1.000  H
  H2       1.0000 0.55380  0.59650  0.36120  Biso   1.000  H
  H3       1.0000 0.55380  0.40350  0.86120  Biso   1.000  H
  H4       1.0000 0.44620  0.40350  0.63880  Biso   1.000  H
  C5       1.0000 0.72170  0.66529  0.20782  Biso   1.000  C
  C6       1.0000 0.27830  0.66529  0.29218  Biso   1.000  C
  C7       1.0000 0.27830  0.33471  0.79218  Biso   1.000  C
  C8       1.0000 0.72170  0.33471  0.70782  Biso   1.000  C
  H5       1.0000 0.76500  0.71350  0.23860  Biso   1.000  H
  H6       1.0000 0.23500  0.71350  0.26140  Biso   1.000  H
  H7       1.0000 0.23500  0.28650  0.76140  Biso   1.000  H
  H8       1.0000 0.76500  0.28650  0.73860  Biso   1.000  H
  C9       1.0000 0.60100  0.52738  0.11871  Biso   1.000  C
  C10      1.0000 0.39900  0.52738  0.38129  Biso   1.000  C
  C11      1.0000 0.39900  0.47262  0.88129  Biso   1.000  C
  C12      1.0000 0.60100  0.47262  0.61871  Biso   1.000  C
  H9       1.0000 0.55580  0.48060  0.08680  Biso   1.000  H
  H10      1.0000 0.44420  0.48060  0.41320  Biso   1.000  H
  H11      1.0000 0.44420  0.51940  0.91320  Biso   1.000  H
  H12      1.0000 0.55580  0.51940  0.58680  Biso   1.000  H
  C13      1.0000 0.79200  0.59732  0.17820  Biso   1.000  C
  C14      1.0000 0.20800  0.59732  0.32180  Biso   1.000  C
  C15      1.0000 0.20800  0.40268  0.82180  Biso   1.000  C
  C16      1.0000 0.79200  0.40268  0.67820  Biso   1.000  C
  H13      1.0000 0.88170  0.60000  0.18830  Biso   1.000  H
  H14      1.0000 0.11830  0.60000  0.31170  Biso   1.000  H
  H15      1.0000 0.11830  0.40000  0.81170  Biso   1.000  H
  H16      1.0000 0.88170  0.40000  0.68830  Biso   1.000  H
  C17      1.0000 0.73200  0.52596  0.13427  Biso   1.000  C
  C18      1.0000 0.26800  0.52596  0.36573  Biso   1.000  C
  C19      1.0000 0.26800  0.47404  0.86573  Biso   1.000  C
  C20      1.0000 0.73200  0.47404  0.63427  Biso   1.000  C
  C21      1.0000 0.80600  0.44810  0.10620  Biso   1.000  C
  C22      1.0000 0.19400  0.44810  0.39380  Biso   1.000  C
  C23      1.0000 0.19400  0.55190  0.89380  Biso   1.000  C
  C24      1.0000 0.80600  0.55190  0.60620  Biso   1.000  C
  H17      1.0000 0.74660  0.40650  0.07170  Biso   1.000  H
  H18      1.0000 0.25340  0.40650  0.42830  Biso   1.000  H
  H19      1.0000 0.25340  0.59350  0.92830  Biso   1.000  H
  H20      1.0000 0.74660  0.59350  0.57170  Biso   1.000  H
  H21      1.0000 0.84700  0.41630  0.15890  Biso   1.000  H
  H22      1.0000 0.15300  0.41630  0.34110  Biso   1.000  H
  H23      1.0000 0.15300  0.58370  0.84110  Biso   1.000  H
  H24      1.0000 0.84700  0.58370  0.65890  Biso   1.000  H
  C25      1.0000 0.90620  0.47525  0.05204  Biso   1.000  C
  C26      1.0000 0.09380  0.47525  0.44796  Biso   1.000  C
  C27      1.0000 0.09380  0.52475  0.94796  Biso   1.000  C
  C28      1.0000 0.90620  0.52475  0.55204  Biso   1.000  C
  C29      1.0000 0.87630  0.49232  0.96350  Biso   1.000  C
  C30      1.0000 0.12370  0.49232  0.53650  Biso   1.000  C
  C31      1.0000 0.12370  0.50768  0.03650  Biso   1.000  C
  C32      1.0000 0.87630  0.50768  0.46350  Biso   1.000  C
  C33      1.0000 0.03230  0.48399  0.08702  Biso   1.000  C
  C34      1.0000 0.96770  0.48399  0.41298  Biso   1.000  C
  C35      1.0000 0.96770  0.51601  0.91298  Biso   1.000  C
  C36      1.0000 0.03230  0.51601  0.58702  Biso   1.000  C
  C37      1.0000 0.65340  0.92087  0.22940  Biso   1.000  C
  C38      1.0000 0.34660  0.92087  0.27060  Biso   1.000  C
  C39      1.0000 0.34660  0.07913  0.77060  Biso   1.000  C
  C40      1.0000 0.65340  0.07913  0.72940  Biso   1.000  C
  H25      1.0000 0.66280  0.92170  0.29140  Biso   1.000  H
  H26      1.0000 0.33720  0.92170  0.20860  Biso   1.000  H
  H27      1.0000 0.33720  0.07830  0.70860  Biso   1.000  H
  H28      1.0000 0.66280  0.07830  0.79140  Biso   1.000  H
  C41      1.0000 0.57440  0.85598  0.09942  Biso   1.000  C
  C42      1.0000 0.42560  0.85598  0.40058  Biso   1.000  C
  C43      1.0000 0.42560  0.14402  0.90058  Biso   1.000  C
  C44      1.0000 0.57440  0.14402  0.59942  Biso   1.000  C
  H29      1.0000 0.52710  0.80990  0.06790  Biso   1.000  H
  H30      1.0000 0.47290  0.80990  0.43210  Biso   1.000  H
  H31      1.0000 0.47290  0.19010  0.93210  Biso   1.000  H
  H32      1.0000 0.52710  0.19010  0.56790  Biso   1.000  H
  C45      1.0000 0.71000  0.98830  0.18730  Biso   1.000  C
  C46      1.0000 0.29000  0.98830  0.31270  Biso   1.000  C
  C47      1.0000 0.29000  0.01170  0.81270  Biso   1.000  C
  C48      1.0000 0.71000  0.01170  0.68730  Biso   1.000  C
  H33      1.0000 0.75710  0.03340  0.22040  Biso   1.000  H
  H34      1.0000 0.24290  0.03340  0.27960  Biso   1.000  H
  H35      1.0000 0.24290  0.96660  0.77960  Biso   1.000  H
  H36      1.0000 0.75710  0.96660  0.72040  Biso   1.000  H
  C49      1.0000 0.62750  0.92100  0.05360  Biso   1.000  C
  C50      1.0000 0.37250  0.92100  0.44640  Biso   1.000  C
  C51      1.0000 0.37250  0.07900  0.94640  Biso   1.000  C
  C52      1.0000 0.62750  0.07900  0.55360  Biso   1.000  C
  H37      1.0000 0.61610  0.91900  0.99150  Biso   1.000  H
  H38      1.0000 0.38390  0.91900  0.50850  Biso   1.000  H
  H39      1.0000 0.38390  0.08100  0.00850  Biso   1.000  H
  H40      1.0000 0.61610  0.08100  0.49150  Biso   1.000  H
  C53      1.0000 0.69720  0.98882  0.09730  Biso   1.000  C
  C54      1.0000 0.30280  0.98882  0.40270  Biso   1.000  C
  C55      1.0000 0.30280  0.01118  0.90270  Biso   1.000  C
  C56      1.0000 0.69720  0.01118  0.59730  Biso   1.000  C
  C57      1.0000 0.75850  0.06088  0.04860  Biso   1.000  C
  C58      1.0000 0.24150  0.06088  0.45140  Biso   1.000  C
  C59      1.0000 0.24150  0.93912  0.95140  Biso   1.000  C
  C60      1.0000 0.75850  0.93912  0.54860  Biso   1.000  C
  H41      1.0000 0.77380  0.11410  0.08620  Biso   1.000  H
  H42      1.0000 0.22620  0.11410  0.41380  Biso   1.000  H
  H43      1.0000 0.22620  0.88590  0.91380  Biso   1.000  H
  H44      1.0000 0.77380  0.88590  0.58620  Biso   1.000  H
  H45      1.0000 0.70030  0.07770  0.99520  Biso   1.000  H
  H46      1.0000 0.29970  0.07770  0.50480  Biso   1.000  H
  H47      1.0000 0.29970  0.92230  0.00480  Biso   1.000  H
  H48      1.0000 0.70030  0.92230  0.49520  Biso   1.000  H
  C61      1.0000 0.88320  0.02910  0.02350  Biso   1.000  C
  C62      1.0000 0.11680  0.02910  0.47650  Biso   1.000  C
  C63      1.0000 0.11680  0.97090  0.97650  Biso   1.000  C
  C64      1.0000 0.88320  0.97090  0.52350  Biso   1.000  C
  C65      1.0000 0.89000  0.98570  0.94600  Biso   1.000  C
  C66      1.0000 0.11000  0.98570  0.55400  Biso   1.000  C
  C67      1.0000 0.11000  0.01430  0.05400  Biso   1.000  C
  C68      1.0000 0.89000  0.01430  0.44600  Biso   1.000  C
  C69      1.0000 0.99640  0.04250  0.07745  Biso   1.000  C
  C70      1.0000 0.00360  0.04250  0.42255  Biso   1.000  C
  C71      1.0000 0.00360  0.95750  0.92255  Biso   1.000  C
  C72      1.0000 0.99640  0.95750  0.57745  Biso   1.000  C
  C73      1.0000 0.87850  0.26700  0.39980  Biso   1.000  C
  C74      1.0000 0.12150  0.26700  0.10020  Biso   1.000  C
  C75      1.0000 0.12150  0.73300  0.60020  Biso   1.000  C
  C76      1.0000 0.87850  0.73300  0.89980  Biso   1.000  C
  C77      1.0000 0.60760  0.26010  0.29720  Biso   1.000  C
  C78      1.0000 0.39240  0.26010  0.20280  Biso   1.000  C
  C79      1.0000 0.39240  0.73990  0.70280  Biso   1.000  C
  C80      1.0000 0.60760  0.73990  0.79720  Biso   1.000  C
  C81      1.0000 0.62620  0.27000  0.38780  Biso   1.000  C
  C82      1.0000 0.37380  0.27000  0.11220  Biso   1.000  C
  C83      1.0000 0.37380  0.73000  0.61220  Biso   1.000  C
  C84      1.0000 0.62620  0.73000  0.88780  Biso   1.000  C
  C85      1.0000 0.74960  0.27850  0.43630  Biso   1.000  C
  C86      1.0000 0.25040  0.27850  0.06370  Biso   1.000  C
  C87      1.0000 0.25040  0.72150  0.56370  Biso   1.000  C
  C88      1.0000 0.74960  0.72150  0.93630  Biso   1.000  C
  C89      1.0000 0.83610  0.25830  0.29050  Biso   1.000  C
  C90      1.0000 0.16390  0.25830  0.20950  Biso   1.000  C
  C91      1.0000 0.16390  0.74170  0.70950  Biso   1.000  C
  C92      1.0000 0.83610  0.74170  0.79050  Biso   1.000  C
  C93      1.0000 0.71660  0.25550  0.25110  Biso   1.000  C
  C94      1.0000 0.28340  0.25550  0.24890  Biso   1.000  C
  C95      1.0000 0.28340  0.74450  0.74890  Biso   1.000  C
  C96      1.0000 0.71660  0.74450  0.75110  Biso   1.000  C
  C97      1.0000 0.50000  0.25090  0.25000  Biso   1.000  C
  C98      1.0000 0.50000  0.74910  0.75000  Biso   1.000  C
  C99      1.0000 0.37400  0.23500  0.30370  Biso   1.000  C
  C100     1.0000 0.62600  0.23500  0.19630  Biso   1.000  C
  C101     1.0000 0.62600  0.76500  0.69630  Biso   1.000  C
  C102     1.0000 0.37400  0.76500  0.80370  Biso   1.000  C
  C103     1.0000 0.47300  0.16690  0.19000  Biso   1.000  C
  C104     1.0000 0.52700  0.16690  0.31000  Biso   1.000  C
  C105     1.0000 0.52700  0.83310  0.81000  Biso   1.000  C
  C106     1.0000 0.47300  0.83310  0.69000  Biso   1.000  C
  C107     1.0000 0.44800  0.33490  0.18740  Biso   1.000  C
  C108     1.0000 0.55200  0.33490  0.31260  Biso   1.000  C
  C109     1.0000 0.55200  0.66510  0.81260  Biso   1.000  C
  C110     1.0000 0.44800  0.66510  0.68740  Biso   1.000  C
  O13      1.0000 0.87120  0.25430  0.50900  Biso   1.000  O
  O14      1.0000 0.12880  0.25430  0.99100  Biso   1.000  O
  O15      1.0000 0.12880  0.74570  0.49100  Biso   1.000  O
  O16      1.0000 0.87120  0.74570  0.00900  Biso   1.000  O
  C111     1.0000 0.98400  0.25410  0.33900  Biso   1.000  C
  C112     1.0000 0.01600  0.25410  0.16100  Biso   1.000  C
  C113     1.0000 0.01600  0.74590  0.66100  Biso   1.000  C
  C114     1.0000 0.98400  0.74590  0.83900  Biso   1.000  C
  O17      1.0000 0.98040  0.26590  0.83880  Biso   1.000  O
  O18      1.0000 0.01960  0.26590  0.66120  Biso   1.000  O
  O19      1.0000 0.01960  0.73410  0.16120  Biso   1.000  O
  O20      1.0000 0.98040  0.73410  0.33880  Biso   1.000  O
  O21      1.0000 0.00330  0.16660  0.80210  Biso   1.000  O
  O22      1.0000 0.99670  0.16660  0.69790  Biso   1.000  O
  O23      1.0000 0.99670  0.83340  0.19790  Biso   1.000  O
  O24      1.0000 0.00330  0.83340  0.30210  Biso   1.000  O
  C115     1.0000 0.57800  0.16800  0.22000  Biso   1.000  C
  C116     1.0000 0.42200  0.16800  0.28000  Biso   1.000  C
  C117     1.0000 0.42200  0.83200  0.78000  Biso   1.000  C
  C118     1.0000 0.57800  0.83200  0.72000  Biso   1.000  C
  C119     1.0000 0.50500  0.23900  0.35950  Biso   1.000  C
  C120     1.0000 0.49500  0.23900  0.14050  Biso   1.000  C
  C121     1.0000 0.49500  0.76100  0.64050  Biso   1.000  C
  C122     1.0000 0.50500  0.76100  0.85950  Biso   1.000  C
  C123     1.0000 0.59100  0.33880  0.24900  Biso   1.000  C
  C124     1.0000 0.40900  0.33880  0.25100  Biso   1.000  C
  C125     1.0000 0.40900  0.66120  0.75100  Biso   1.000  C
  C126     1.0000 0.59100  0.66120  0.74900  Biso   1.000  C
