data_image0
_cell_length_a       15.7672
_cell_length_b       15.7672
_cell_length_c       16.6814
_cell_angle_alpha    90
_cell_angle_beta     90
_cell_angle_gamma    120

_symmetry_space_group_name_H-M    "P 1"
_symmetry_int_tables_number       1

loop_
  _symmetry_equiv_pos_as_xyz
  'x, y, z'

loop_
  _atom_site_label
  _atom_site_occupancy
  _atom_site_fract_x
  _atom_site_fract_y
  _atom_site_fract_z
  _atom_site_thermal_displace_type
  _atom_site_B_iso_or_equiv
  _atom_site_type_symbol
  Fe1      1.0000 0.74206  0.48411  0.75000  Biso   1.000  Fe
  Fe2      1.0000 0.51589  0.25795  0.75000  Biso   1.000  Fe
  Fe3      1.0000 0.74205  0.25794  0.75000  Biso   1.000  Fe
  Fe4      1.0000 0.25794  0.51589  0.25000  Biso   1.000  Fe
  Fe5      1.0000 0.48411  0.74205  0.25000  Biso   1.000  Fe
  Fe6      1.0000 0.25795  0.74206  0.25000  Biso   1.000  Fe
  O1       1.0000 0.66670  0.33330  0.75000  Biso   1.000  O
  O2       1.0000 0.33330  0.66670  0.25000  Biso   1.000  O
  O3       1.0000 0.83700  0.48830  0.65960  Biso   1.000  O
  O4       1.0000 0.51170  0.34870  0.65960  Biso   1.000  O
  O5       1.0000 0.65130  0.16300  0.65960  Biso   1.000  O
  O6       1.0000 0.16300  0.51170  0.15960  Biso   1.000  O
  O7       1.0000 0.48830  0.65130  0.15960  Biso   1.000  O
  O8       1.0000 0.34870  0.83700  0.15960  Biso   1.000  O
  O9       1.0000 0.48830  0.83700  0.34040  Biso   1.000  O
  O10      1.0000 0.34870  0.51170  0.34040  Biso   1.000  O
  O11      1.0000 0.16300  0.65130  0.34040  Biso   1.000  O
  O12      1.0000 0.51170  0.16300  0.84040  Biso   1.000  O
  O13      1.0000 0.65130  0.48830  0.84040  Biso   1.000  O
  O14      1.0000 0.83700  0.34870  0.84040  Biso   1.000  O
  O15      1.0000 0.16300  0.51170  0.34040  Biso   1.000  O
  O16      1.0000 0.48830  0.65130  0.34040  Biso   1.000  O
  O17      1.0000 0.34870  0.83700  0.34040  Biso   1.000  O
  O18      1.0000 0.83700  0.48830  0.84040  Biso   1.000  O
  O19      1.0000 0.51170  0.34870  0.84040  Biso   1.000  O
  O20      1.0000 0.65130  0.16300  0.84040  Biso   1.000  O
  O21      1.0000 0.51170  0.16300  0.65960  Biso   1.000  O
  O22      1.0000 0.65130  0.48830  0.65960  Biso   1.000  O
  O23      1.0000 0.83700  0.34870  0.65960  Biso   1.000  O
  O24      1.0000 0.48830  0.83700  0.15960  Biso   1.000  O
  O25      1.0000 0.34870  0.51170  0.15960  Biso   1.000  O
  O26      1.0000 0.16300  0.65130  0.15960  Biso   1.000  O
  C1       1.0000 0.86330  0.43160  0.63330  Biso   1.000  C
  C2       1.0000 0.56840  0.43170  0.63330  Biso   1.000  C
  C3       1.0000 0.56830  0.13670  0.63330  Biso   1.000  C
  C4       1.0000 0.13670  0.56840  0.13330  Biso   1.000  C
  C5       1.0000 0.43160  0.56830  0.13330  Biso   1.000  C
  C6       1.0000 0.43170  0.86330  0.13330  Biso   1.000  C
  C7       1.0000 0.43160  0.86330  0.36670  Biso   1.000  C
  C8       1.0000 0.43170  0.56840  0.36670  Biso   1.000  C
  C9       1.0000 0.13670  0.56830  0.36670  Biso   1.000  C
  C10      1.0000 0.56840  0.13670  0.86670  Biso   1.000  C
  C11      1.0000 0.56830  0.43160  0.86670  Biso   1.000  C
  C12      1.0000 0.86330  0.43170  0.86670  Biso   1.000  C
  C13      1.0000 0.96960  0.56070  0.53270  Biso   1.000  C
  C14      1.0000 0.43930  0.40890  0.53270  Biso   1.000  C
  C15      1.0000 0.59110  0.03040  0.53270  Biso   1.000  C
  C16      1.0000 0.03040  0.43930  0.03270  Biso   1.000  C
  C17      1.0000 0.56070  0.59110  0.03270  Biso   1.000  C
  C18      1.0000 0.40890  0.96960  0.03270  Biso   1.000  C
  C19      1.0000 0.56070  0.96960  0.46730  Biso   1.000  C
  C20      1.0000 0.40890  0.43930  0.46730  Biso   1.000  C
  C21      1.0000 0.03040  0.59110  0.46730  Biso   1.000  C
  C22      1.0000 0.43930  0.03040  0.96730  Biso   1.000  C
  C23      1.0000 0.59110  0.56070  0.96730  Biso   1.000  C
  C24      1.0000 0.96960  0.40890  0.96730  Biso   1.000  C
  C25      1.0000 0.03040  0.43930  0.46730  Biso   1.000  C
  C26      1.0000 0.56070  0.59110  0.46730  Biso   1.000  C
  C27      1.0000 0.40890  0.96960  0.46730  Biso   1.000  C
  C28      1.0000 0.96960  0.56070  0.96730  Biso   1.000  C
  C29      1.0000 0.43930  0.40890  0.96730  Biso   1.000  C
  C30      1.0000 0.59110  0.03040  0.96730  Biso   1.000  C
  C31      1.0000 0.43930  0.03040  0.53270  Biso   1.000  C
  C32      1.0000 0.59110  0.56070  0.53270  Biso   1.000  C
  C33      1.0000 0.96960  0.40890  0.53270  Biso   1.000  C
  C34      1.0000 0.56070  0.96960  0.03270  Biso   1.000  C
  C35      1.0000 0.40890  0.43930  0.03270  Biso   1.000  C
  C36      1.0000 0.03040  0.59110  0.03270  Biso   1.000  C
  C37      1.0000 0.93450  0.46720  0.56440  Biso   1.000  C
  C38      1.0000 0.53280  0.46730  0.56440  Biso   1.000  C
  C39      1.0000 0.53270  0.06550  0.56440  Biso   1.000  C
  C40      1.0000 0.06550  0.53280  0.06440  Biso   1.000  C
  C41      1.0000 0.46720  0.53270  0.06440  Biso   1.000  C
  C42      1.0000 0.46730  0.93450  0.06440  Biso   1.000  C
  C43      1.0000 0.46720  0.93450  0.43560  Biso   1.000  C
  C44      1.0000 0.46730  0.53280  0.43560  Biso   1.000  C
  C45      1.0000 0.06550  0.53270  0.43560  Biso   1.000  C
  C46      1.0000 0.53280  0.06550  0.93560  Biso   1.000  C
  C47      1.0000 0.53270  0.46720  0.93560  Biso   1.000  C
  C48      1.0000 0.93450  0.46730  0.93560  Biso   1.000  C
  N1       1.0000 0.94040  0.79450  0.75000  Biso   1.000  N
  N2       1.0000 0.20550  0.14590  0.75000  Biso   1.000  N
  N3       1.0000 0.85410  0.05960  0.75000  Biso   1.000  N
  N4       1.0000 0.05960  0.20550  0.25000  Biso   1.000  N
  N5       1.0000 0.79450  0.85410  0.25000  Biso   1.000  N
  N6       1.0000 0.14590  0.94040  0.25000  Biso   1.000  N
  N7       1.0000 0.79450  0.94040  0.25000  Biso   1.000  N
  N8       1.0000 0.14590  0.20550  0.25000  Biso   1.000  N
  N9       1.0000 0.05960  0.85410  0.25000  Biso   1.000  N
  N10      1.0000 0.20550  0.05960  0.75000  Biso   1.000  N
  N11      1.0000 0.85410  0.79450  0.75000  Biso   1.000  N
  N12      1.0000 0.94040  0.14590  0.75000  Biso   1.000  N
  N13      1.0000 0.82170  0.64340  0.75000  Biso   1.000  N
  N14      1.0000 0.35660  0.17830  0.75000  Biso   1.000  N
  N15      1.0000 0.82170  0.17830  0.75000  Biso   1.000  N
  N16      1.0000 0.17830  0.35660  0.25000  Biso   1.000  N
  N17      1.0000 0.64340  0.82170  0.25000  Biso   1.000  N
  N18      1.0000 0.17830  0.82170  0.25000  Biso   1.000  N
  C49      1.0000 0.90900  0.70020  0.75000  Biso   1.000  C
  C50      1.0000 0.29980  0.20880  0.75000  Biso   1.000  C
  C51      1.0000 0.79120  0.09100  0.75000  Biso   1.000  C
  C52      1.0000 0.09100  0.29980  0.25000  Biso   1.000  C
  C53      1.0000 0.70020  0.79120  0.25000  Biso   1.000  C
  C54      1.0000 0.20880  0.90900  0.25000  Biso   1.000  C
  C55      1.0000 0.70020  0.90900  0.25000  Biso   1.000  C
  C56      1.0000 0.20880  0.29980  0.25000  Biso   1.000  C
  C57      1.0000 0.09100  0.79120  0.25000  Biso   1.000  C
  C58      1.0000 0.29980  0.09100  0.75000  Biso   1.000  C
  C59      1.0000 0.79120  0.70020  0.75000  Biso   1.000  C
  C60      1.0000 0.90900  0.20880  0.75000  Biso   1.000  C
  H1       1.0000 0.95310  0.67740  0.75000  Biso   1.000  H
  H2       1.0000 0.32260  0.27570  0.75000  Biso   1.000  H
  H3       1.0000 0.72430  0.04690  0.75000  Biso   1.000  H
  H4       1.0000 0.04690  0.32260  0.25000  Biso   1.000  H
  H5       1.0000 0.67740  0.72430  0.25000  Biso   1.000  H
  H6       1.0000 0.27570  0.95310  0.25000  Biso   1.000  H
  H7       1.0000 0.67740  0.95310  0.25000  Biso   1.000  H
  H8       1.0000 0.27570  0.32260  0.25000  Biso   1.000  H
  H9       1.0000 0.04690  0.72430  0.25000  Biso   1.000  H
  H10      1.0000 0.32260  0.04690  0.75000  Biso   1.000  H
  H11      1.0000 0.72430  0.67740  0.75000  Biso   1.000  H
  H12      1.0000 0.95310  0.27570  0.75000  Biso   1.000  H
  Cu1      1.0000 0.07467  0.92533  0.75000  Biso   1.000  Cu
  Cu2      1.0000 0.07467  0.14934  0.75000  Biso   1.000  Cu
  Cu3      1.0000 0.85066  0.92533  0.75000  Biso   1.000  Cu
  Cu4      1.0000 0.92533  0.07467  0.25000  Biso   1.000  Cu
  Cu5      1.0000 0.92533  0.85066  0.25000  Biso   1.000  Cu
  Cu6      1.0000 0.14934  0.07467  0.25000  Biso   1.000  Cu
  O27      1.0000 0.00000  0.00000  0.75000  Biso   1.000  O
  O28      1.0000 0.00000  0.00000  0.25000  Biso   1.000  O
  O29      1.0000 0.93400  0.62010  0.56040  Biso   1.000  O
  O30      1.0000 0.37990  0.31390  0.56040  Biso   1.000  O
  O31      1.0000 0.68610  0.06600  0.56040  Biso   1.000  O
  O32      1.0000 0.06600  0.37990  0.06040  Biso   1.000  O
  O33      1.0000 0.62010  0.68610  0.06040  Biso   1.000  O
  O34      1.0000 0.31390  0.93400  0.06040  Biso   1.000  O
  O35      1.0000 0.62010  0.93400  0.43960  Biso   1.000  O
  O36      1.0000 0.31390  0.37990  0.43960  Biso   1.000  O
  O37      1.0000 0.06600  0.68610  0.43960  Biso   1.000  O
  O38      1.0000 0.37990  0.06600  0.93960  Biso   1.000  O
  O39      1.0000 0.68610  0.62010  0.93960  Biso   1.000  O
  O40      1.0000 0.93400  0.31390  0.93960  Biso   1.000  O
  O41      1.0000 0.06600  0.37990  0.43960  Biso   1.000  O
  O42      1.0000 0.62010  0.68610  0.43960  Biso   1.000  O
  O43      1.0000 0.31390  0.93400  0.43960  Biso   1.000  O
  O44      1.0000 0.93400  0.62010  0.93960  Biso   1.000  O
  O45      1.0000 0.37990  0.31390  0.93960  Biso   1.000  O
  O46      1.0000 0.68610  0.06600  0.93960  Biso   1.000  O
  O47      1.0000 0.37990  0.06600  0.56040  Biso   1.000  O
  O48      1.0000 0.68610  0.62010  0.56040  Biso   1.000  O
  O49      1.0000 0.93400  0.31390  0.56040  Biso   1.000  O
  O50      1.0000 0.62010  0.93400  0.06040  Biso   1.000  O
  O51      1.0000 0.31390  0.37990  0.06040  Biso   1.000  O
  O52      1.0000 0.06600  0.68610  0.06040  Biso   1.000  O
