data_image0
_cell_length_a       5.1
_cell_length_b       10.051
_cell_length_c       16.453
_cell_angle_alpha    90
_cell_angle_beta     94.82
_cell_angle_gamma    90

_symmetry_space_group_name_H-M    "P 1"
_symmetry_int_tables_number       1

loop_
  _symmetry_equiv_pos_as_xyz
  'x, y, z'

loop_
  _atom_site_label
  _atom_site_occupancy
  _atom_site_fract_x
  _atom_site_fract_y
  _atom_site_fract_z
  _atom_site_thermal_displace_type
  _atom_site_B_iso_or_equiv
  _atom_site_type_symbol
  Cu1      1.0000 0.10390  0.75200  0.21610  Biso   1.000  Cu
  Cu2      1.0000 0.89610  0.25200  0.78390  Biso   1.000  Cu
  O1       1.0000 0.82200  0.72150  0.13620  Biso   1.000  O
  O2       1.0000 0.17800  0.22150  0.86380  Biso   1.000  O
  O3       1.0000 0.41430  0.77340  0.29070  Biso   1.000  O
  O4       1.0000 0.58570  0.27340  0.70930  Biso   1.000  O
  O5       1.0000 0.78810  0.88040  0.30380  Biso   1.000  O
  O6       1.0000 0.21190  0.38040  0.69620  Biso   1.000  O
  N1       1.0000 0.23560  0.90020  0.16160  Biso   1.000  N
  N2       1.0000 0.76440  0.40020  0.83840  Biso   1.000  N
  N3       1.0000 0.04200  0.57930  0.26690  Biso   1.000  N
  N4       1.0000 0.95800  0.07930  0.73310  Biso   1.000  N
  N5       1.0000 0.20200  0.52760  0.32780  Biso   1.000  N
  N6       1.0000 0.79800  0.02760  0.67220  Biso   1.000  N
  C1       1.0000 0.78590  0.78100  0.06550  Biso   1.000  C
  C2       1.0000 0.21410  0.28100  0.93450  Biso   1.000  C
  C3       1.0000 0.94670  0.88530  0.03970  Biso   1.000  C
  C4       1.0000 0.05330  0.38530  0.96030  Biso   1.000  C
  C5       1.0000 0.89870  0.93820  0.96040  Biso   1.000  C
  C6       1.0000 0.10130  0.43820  0.03960  Biso   1.000  C
  C7       1.0000 0.69290  0.89380  0.90900  Biso   1.000  C
  C8       1.0000 0.30710  0.39380  0.09100  Biso   1.000  C
  C9       1.0000 0.53090  0.79530  0.93520  Biso   1.000  C
  C10      1.0000 0.46910  0.29530  0.06480  Biso   1.000  C
  C11      1.0000 0.57170  0.74000  0.01230  Biso   1.000  C
  C12      1.0000 0.42830  0.24000  0.98770  Biso   1.000  C
  C13      1.0000 0.16010  0.93960  0.09030  Biso   1.000  C
  C14      1.0000 0.83990  0.43960  0.90970  Biso   1.000  C
  C15      1.0000 0.45830  0.96390  0.20790  Biso   1.000  C
  C16      1.0000 0.54170  0.46390  0.79210  Biso   1.000  C
  C17      1.0000 0.36370  0.08940  0.24970  Biso   1.000  C
  C18      1.0000 0.63630  0.58940  0.75030  Biso   1.000  C
  C19      1.0000 0.56470  0.86620  0.27230  Biso   1.000  C
  C20      1.0000 0.43530  0.36620  0.72770  Biso   1.000  C
  C21      1.0000 0.12480  0.40870  0.34790  Biso   1.000  C
  C22      1.0000 0.87520  0.90870  0.65210  Biso   1.000  C
  C23      1.0000 0.90330  0.37930  0.29800  Biso   1.000  C
  C24      1.0000 0.09670  0.87930  0.70200  Biso   1.000  C
  C25      1.0000 0.85890  0.49060  0.24850  Biso   1.000  C
  C26      1.0000 0.14110  0.99060  0.75150  Biso   1.000  C
  N7       1.0000 0.80510  0.69360  0.43770  Biso   1.000  N
  N8       1.0000 0.19490  0.19360  0.56230  Biso   1.000  N
  N9       1.0000 0.60950  0.60780  0.44690  Biso   1.000  N
  N10      1.0000 0.39050  0.10780  0.55310  Biso   1.000  N
  C27      1.0000 0.69040  0.54180  0.51340  Biso   1.000  C
  C28      1.0000 0.30960  0.04180  0.48660  Biso   1.000  C
  C29      1.0000 0.93220  0.57740  0.54370  Biso   1.000  C
  C30      1.0000 0.06780  0.07740  0.45630  Biso   1.000  C
  C31      1.0000 0.00720  0.67750  0.49610  Biso   1.000  C
  C32      1.0000 0.99280  0.17750  0.50390  Biso   1.000  C
  H1       1.0000 0.06800  0.00150  0.93110  Biso   1.000  H
  H2       1.0000 0.93200  0.50150  0.06890  Biso   1.000  H
  H3       1.0000 0.64010  0.93440  0.85570  Biso   1.000  H
  H4       1.0000 0.35990  0.43440  0.14430  Biso   1.000  H
  H5       1.0000 0.38760  0.77030  0.90050  Biso   1.000  H
  H6       1.0000 0.61240  0.27030  0.09950  Biso   1.000  H
  H7       1.0000 0.46290  0.66950  0.03280  Biso   1.000  H
  H8       1.0000 0.53710  0.16950  0.96720  Biso   1.000  H
  H9       1.0000 0.22840  0.02650  0.06620  Biso   1.000  H
  H10      1.0000 0.77160  0.52650  0.93380  Biso   1.000  H
  H11      1.0000 0.62860  0.99370  0.17980  Biso   1.000  H
  H12      1.0000 0.37140  0.49370  0.82020  Biso   1.000  H
  H13      1.0000 0.30190  0.16090  0.20690  Biso   1.000  H
  H14      1.0000 0.69810  0.66090  0.79310  Biso   1.000  H
  H15      1.0000 0.22300  0.07730  0.27210  Biso   1.000  H
  H16      1.0000 0.77700  0.57730  0.72790  Biso   1.000  H
  H17      1.0000 0.51540  0.12180  0.29190  Biso   1.000  H
  H18      1.0000 0.48460  0.62180  0.70810  Biso   1.000  H
  H19      1.0000 0.38500  0.54150  0.33880  Biso   1.000  H
  H20      1.0000 0.61500  0.04150  0.66120  Biso   1.000  H
  H21      1.0000 0.22770  0.35240  0.38620  Biso   1.000  H
  H22      1.0000 0.77230  0.85240  0.61380  Biso   1.000  H
  H23      1.0000 0.83270  0.27380  0.30590  Biso   1.000  H
  H24      1.0000 0.16730  0.77380  0.69410  Biso   1.000  H
  H25      1.0000 0.74870  0.50810  0.20120  Biso   1.000  H
  H26      1.0000 0.25130  0.00810  0.79880  Biso   1.000  H
  H27      1.0000 0.78800  0.75550  0.39540  Biso   1.000  H
  H28      1.0000 0.21200  0.25550  0.60460  Biso   1.000  H
  H29      1.0000 0.54930  0.46130  0.53380  Biso   1.000  H
  H30      1.0000 0.45070  0.96130  0.46620  Biso   1.000  H
  H31      1.0000 0.02070  0.55940  0.59500  Biso   1.000  H
  H32      1.0000 0.97930  0.05940  0.40500  Biso   1.000  H
  H33      1.0000 0.16610  0.70550  0.48960  Biso   1.000  H
  H34      1.0000 0.83390  0.20550  0.51040  Biso   1.000  H
