data_image0
_cell_length_a       10.2526
_cell_length_b       9.1383
_cell_length_c       14.9577
_cell_angle_alpha    90
_cell_angle_beta     111.072
_cell_angle_gamma    90

_symmetry_space_group_name_H-M    "P 1"
_symmetry_int_tables_number       1

loop_
  _symmetry_equiv_pos_as_xyz
  'x, y, z'

loop_
  _atom_site_label
  _atom_site_occupancy
  _atom_site_fract_x
  _atom_site_fract_y
  _atom_site_fract_z
  _atom_site_thermal_displace_type
  _atom_site_B_iso_or_equiv
  _atom_site_type_symbol
  Cu1      1.0000 0.50000  0.00000  0.00000  Biso   1.000  Cu
  Cu2      1.0000 0.50000  0.50000  0.50000  Biso   1.000  Cu
  O1       1.0000 0.39940  0.06330  0.86547  Biso   1.000  O
  O2       1.0000 0.60060  0.56330  0.63453  Biso   1.000  O
  O3       1.0000 0.60060  0.93670  0.13453  Biso   1.000  O
  O4       1.0000 0.39940  0.43670  0.36547  Biso   1.000  O
  O5       1.0000 0.28000  0.16560  0.94591  Biso   1.000  O
  O6       1.0000 0.72000  0.66560  0.55409  Biso   1.000  O
  O7       1.0000 0.72000  0.83440  0.05409  Biso   1.000  O
  O8       1.0000 0.28000  0.33440  0.44591  Biso   1.000  O
  N1       1.0000 0.38940  0.81550  0.97339  Biso   1.000  N
  N2       1.0000 0.61060  0.31550  0.52661  Biso   1.000  N
  N3       1.0000 0.61060  0.18450  0.02661  Biso   1.000  N
  N4       1.0000 0.38940  0.68450  0.47339  Biso   1.000  N
  N5       1.0000 0.27480  0.61590  0.97940  Biso   1.000  N
  N6       1.0000 0.72520  0.11590  0.52060  Biso   1.000  N
  N7       1.0000 0.72520  0.38410  0.02060  Biso   1.000  N
  N8       1.0000 0.27480  0.88410  0.47940  Biso   1.000  N
  C1       1.0000 0.30350  0.14780  0.87160  Biso   1.000  C
  C2       1.0000 0.69650  0.64780  0.62840  Biso   1.000  C
  C3       1.0000 0.69650  0.85220  0.12840  Biso   1.000  C
  C4       1.0000 0.30350  0.35220  0.37160  Biso   1.000  C
  C5       1.0000 0.21770  0.23040  0.78240  Biso   1.000  C
  C6       1.0000 0.78230  0.73040  0.71760  Biso   1.000  C
  C7       1.0000 0.78230  0.76960  0.21760  Biso   1.000  C
  C8       1.0000 0.21770  0.26960  0.28240  Biso   1.000  C
  C9       1.0000 0.08780  0.28620  0.77270  Biso   1.000  C
  C10      1.0000 0.91220  0.78620  0.72730  Biso   1.000  C
  C11      1.0000 0.91220  0.71380  0.22730  Biso   1.000  C
  C12      1.0000 0.08780  0.21380  0.27270  Biso   1.000  C
  H1       1.0000 0.05030  0.26810  0.81980  Biso   1.000  H
  H2       1.0000 0.94970  0.76810  0.68020  Biso   1.000  H
  H3       1.0000 0.94970  0.73190  0.18020  Biso   1.000  H
  H4       1.0000 0.05030  0.23190  0.31980  Biso   1.000  H
  C13      1.0000 0.01340  0.36860  0.69310  Biso   1.000  C
  C14      1.0000 0.98660  0.86860  0.80690  Biso   1.000  C
  C15      1.0000 0.98660  0.63140  0.30690  Biso   1.000  C
  C16      1.0000 0.01340  0.13140  0.19310  Biso   1.000  C
  H5       1.0000 0.92540  0.40380  0.68680  Biso   1.000  H
  H6       1.0000 0.07460  0.90380  0.81320  Biso   1.000  H
  H7       1.0000 0.07460  0.59620  0.31320  Biso   1.000  H
  H8       1.0000 0.92540  0.09620  0.18680  Biso   1.000  H
  C17      1.0000 0.06710  0.39970  0.62290  Biso   1.000  C
  C18      1.0000 0.93290  0.89970  0.87710  Biso   1.000  C
  C19      1.0000 0.93290  0.60030  0.37710  Biso   1.000  C
  C20      1.0000 0.06710  0.10030  0.12290  Biso   1.000  C
  C21      1.0000 0.19910  0.34300  0.63310  Biso   1.000  C
  C22      1.0000 0.80090  0.84300  0.86690  Biso   1.000  C
  C23      1.0000 0.80090  0.65700  0.36690  Biso   1.000  C
  C24      1.0000 0.19910  0.15700  0.13310  Biso   1.000  C
  H9       1.0000 0.23770  0.36270  0.58680  Biso   1.000  H
  H10      1.0000 0.76230  0.86270  0.91320  Biso   1.000  H
  H11      1.0000 0.76230  0.63730  0.41320  Biso   1.000  H
  H12      1.0000 0.23770  0.13730  0.08680  Biso   1.000  H
  C25      1.0000 0.27160  0.25830  0.71140  Biso   1.000  C
  C26      1.0000 0.72840  0.75830  0.78860  Biso   1.000  C
  C27      1.0000 0.72840  0.74170  0.28860  Biso   1.000  C
  C28      1.0000 0.27160  0.24170  0.21140  Biso   1.000  C
  H13      1.0000 0.35790  0.21940  0.71670  Biso   1.000  H
  H14      1.0000 0.64210  0.71940  0.78330  Biso   1.000  H
  H15      1.0000 0.64210  0.78060  0.28330  Biso   1.000  H
  H16      1.0000 0.35790  0.28060  0.21670  Biso   1.000  H
  C29      1.0000 0.98410  0.48610  0.53830  Biso   1.000  C
  C30      1.0000 0.01590  0.98610  0.96170  Biso   1.000  C
  C31      1.0000 0.01590  0.51390  0.46170  Biso   1.000  C
  C32      1.0000 0.98410  0.01390  0.03830  Biso   1.000  C
  H17      1.0000 0.90060  0.52520  0.53880  Biso   1.000  H
  H18      1.0000 0.09940  0.02520  0.96120  Biso   1.000  H
  H19      1.0000 0.09940  0.47480  0.46120  Biso   1.000  H
  H20      1.0000 0.90060  0.97480  0.03880  Biso   1.000  H
  C33      1.0000 0.37020  0.73450  0.89260  Biso   1.000  C
  C34      1.0000 0.62980  0.23450  0.60740  Biso   1.000  C
  C35      1.0000 0.62980  0.26550  0.10740  Biso   1.000  C
  C36      1.0000 0.37020  0.76550  0.39260  Biso   1.000  C
  H21      1.0000 0.40130  0.76030  0.84350  Biso   1.000  H
  H22      1.0000 0.59870  0.26030  0.65650  Biso   1.000  H
  H23      1.0000 0.59870  0.23970  0.15650  Biso   1.000  H
  H24      1.0000 0.40130  0.73970  0.34350  Biso   1.000  H
  C37      1.0000 0.29950  0.61190  0.89540  Biso   1.000  C
  C38      1.0000 0.70050  0.11190  0.60460  Biso   1.000  C
  C39      1.0000 0.70050  0.38810  0.10460  Biso   1.000  C
  C40      1.0000 0.29950  0.88810  0.39540  Biso   1.000  C
  H25      1.0000 0.27260  0.53860  0.84930  Biso   1.000  H
  H26      1.0000 0.72740  0.03860  0.65070  Biso   1.000  H
  H27      1.0000 0.72740  0.46140  0.15070  Biso   1.000  H
  H28      1.0000 0.27260  0.96140  0.34930  Biso   1.000  H
  C41      1.0000 0.33080  0.74190  0.02500  Biso   1.000  C
  C42      1.0000 0.66920  0.24190  0.47500  Biso   1.000  C
  C43      1.0000 0.66920  0.25810  0.97500  Biso   1.000  C
  C44      1.0000 0.33080  0.75810  0.52500  Biso   1.000  C
  C45      1.0000 0.32520  0.78460  0.11890  Biso   1.000  C
  C46      1.0000 0.67480  0.28460  0.38110  Biso   1.000  C
  C47      1.0000 0.67480  0.21540  0.88110  Biso   1.000  C
  C48      1.0000 0.32520  0.71540  0.61890  Biso   1.000  C
  H29      1.0000 0.37310  0.87600  0.13870  Biso   1.000  H
  H30      1.0000 0.62690  0.37600  0.36130  Biso   1.000  H
  H31      1.0000 0.62690  0.12400  0.86130  Biso   1.000  H
  H32      1.0000 0.37310  0.62400  0.63870  Biso   1.000  H
  H33      1.0000 0.36950  0.71060  0.16550  Biso   1.000  H
  H34      1.0000 0.63050  0.21060  0.33450  Biso   1.000  H
  H35      1.0000 0.63050  0.28940  0.83450  Biso   1.000  H
  H36      1.0000 0.36950  0.78940  0.66550  Biso   1.000  H
  H37      1.0000 0.22950  0.79500  0.11350  Biso   1.000  H
  H38      1.0000 0.77050  0.29500  0.38650  Biso   1.000  H
  H39      1.0000 0.77050  0.20500  0.88650  Biso   1.000  H
  H40      1.0000 0.22950  0.70500  0.61350  Biso   1.000  H
  C49      1.0000 0.19340  0.50920  0.01170  Biso   1.000  C
  C50      1.0000 0.80660  0.00920  0.48830  Biso   1.000  C
  C51      1.0000 0.80660  0.49080  0.98830  Biso   1.000  C
  C52      1.0000 0.19340  0.99080  0.51170  Biso   1.000  C
  H41      1.0000 0.23300  0.50130  0.08090  Biso   1.000  H
  H42      1.0000 0.76700  0.00130  0.41910  Biso   1.000  H
  H43      1.0000 0.76700  0.49870  0.91910  Biso   1.000  H
  H44      1.0000 0.23300  0.99870  0.58090  Biso   1.000  H
  H45      1.0000 0.19970  0.41390  0.98500  Biso   1.000  H
  H46      1.0000 0.80030  0.91390  0.51500  Biso   1.000  H
  H47      1.0000 0.80030  0.58610  0.01500  Biso   1.000  H
  H48      1.0000 0.19970  0.08610  0.48500  Biso   1.000  H
  C53      1.0000 0.04180  0.55340  0.98150  Biso   1.000  C
  C54      1.0000 0.95820  0.05340  0.51850  Biso   1.000  C
  C55      1.0000 0.95820  0.44660  0.01850  Biso   1.000  C
  C56      1.0000 0.04180  0.94660  0.48150  Biso   1.000  C
  H49      1.0000 0.00120  0.55710  0.91210  Biso   1.000  H
  H50      1.0000 0.99880  0.05710  0.58790  Biso   1.000  H
  H51      1.0000 0.99880  0.44290  0.08790  Biso   1.000  H
  H52      1.0000 0.00120  0.94290  0.41210  Biso   1.000  H
  H53      1.0000 0.03590  0.65060  0.00570  Biso   1.000  H
  H54      1.0000 0.96410  0.15060  0.49430  Biso   1.000  H
  H55      1.0000 0.96410  0.34940  0.99430  Biso   1.000  H
  H56      1.0000 0.03590  0.84940  0.50570  Biso   1.000  H
