data_image0
_cell_length_a       13.8182
_cell_length_b       8.099
_cell_length_c       17.005
_cell_angle_alpha    90
_cell_angle_beta     106.621
_cell_angle_gamma    90

_symmetry_space_group_name_H-M    "P 1"
_symmetry_int_tables_number       1

loop_
  _symmetry_equiv_pos_as_xyz
  'x, y, z'

loop_
  _atom_site_label
  _atom_site_occupancy
  _atom_site_fract_x
  _atom_site_fract_y
  _atom_site_fract_z
  _atom_site_thermal_displace_type
  _atom_site_B_iso_or_equiv
  _atom_site_type_symbol
  Cu1      1.0000 0.70548  0.56681  0.66515  Biso   1.000  Cu
  Cu2      1.0000 0.79452  0.06681  0.83485  Biso   1.000  Cu
  Cu3      1.0000 0.29452  0.43319  0.33485  Biso   1.000  Cu
  Cu4      1.0000 0.20548  0.93319  0.16515  Biso   1.000  Cu
  O1       1.0000 0.82860  0.12320  0.73218  Biso   1.000  O
  O2       1.0000 0.67140  0.62320  0.76782  Biso   1.000  O
  O3       1.0000 0.17140  0.87680  0.26782  Biso   1.000  O
  O4       1.0000 0.32860  0.37680  0.23218  Biso   1.000  O
  O5       1.0000 0.59680  0.70630  0.60899  Biso   1.000  O
  O6       1.0000 0.90320  0.20630  0.89101  Biso   1.000  O
  O7       1.0000 0.40320  0.29370  0.39101  Biso   1.000  O
  O8       1.0000 0.09680  0.79370  0.10899  Biso   1.000  O
  O9       1.0000 0.77670  0.38190  0.72609  Biso   1.000  O
  O10      1.0000 0.72330  0.88190  0.77391  Biso   1.000  O
  O11      1.0000 0.22330  0.61810  0.27391  Biso   1.000  O
  O12      1.0000 0.27670  0.11810  0.22609  Biso   1.000  O
  N1       1.0000 0.72660  0.49520  0.56198  Biso   1.000  N
  N2       1.0000 0.77340  0.99520  0.93802  Biso   1.000  N
  N3       1.0000 0.27340  0.50480  0.43802  Biso   1.000  N
  N4       1.0000 0.22660  0.00480  0.06198  Biso   1.000  N
  O13      1.0000 0.85530  0.74790  0.69143  Biso   1.000  O
  O14      1.0000 0.64470  0.24790  0.80857  Biso   1.000  O
  O15      1.0000 0.14470  0.25210  0.30857  Biso   1.000  O
  O16      1.0000 0.35530  0.75210  0.19143  Biso   1.000  O
  O17      1.0000 0.05170  0.22870  0.42510  Biso   1.000  O
  O18      1.0000 0.44830  0.72870  0.07490  Biso   1.000  O
  O19      1.0000 0.94830  0.77130  0.57490  Biso   1.000  O
  O20      1.0000 0.55170  0.27130  0.92510  Biso   1.000  O
  N5       1.0000 0.67420  0.53910  0.48892  Biso   1.000  N
  N6       1.0000 0.82580  0.03910  0.01108  Biso   1.000  N
  N7       1.0000 0.32580  0.46090  0.51108  Biso   1.000  N
  N8       1.0000 0.17420  0.96090  0.98892  Biso   1.000  N
  O21      1.0000 0.46460  0.72960  0.35525  Biso   1.000  O
  O22      1.0000 0.03540  0.22960  0.14475  Biso   1.000  O
  O23      1.0000 0.53540  0.27040  0.64475  Biso   1.000  O
  O24      1.0000 0.96460  0.77040  0.85525  Biso   1.000  O
  N9       1.0000 0.46540  0.79690  0.50720  Biso   1.000  N
  N10      1.0000 0.03460  0.29690  0.99280  Biso   1.000  N
  N11      1.0000 0.53460  0.20310  0.49280  Biso   1.000  N
  N12      1.0000 0.96540  0.70310  0.00720  Biso   1.000  N
  C1       1.0000 0.81090  0.39540  0.56080  Biso   1.000  C
  C2       1.0000 0.68910  0.89540  0.93920  Biso   1.000  C
  C3       1.0000 0.18910  0.60460  0.43920  Biso   1.000  C
  C4       1.0000 0.31090  0.10460  0.06080  Biso   1.000  C
  O25      1.0000 0.93080  0.40040  0.35920  Biso   1.000  O
  O26      1.0000 0.56920  0.90040  0.14080  Biso   1.000  O
  O27      1.0000 0.06920  0.59960  0.64080  Biso   1.000  O
  O28      1.0000 0.43080  0.09960  0.85920  Biso   1.000  O
  C5       1.0000 0.85050  0.40300  0.49460  Biso   1.000  C
  C6       1.0000 0.64950  0.90300  0.00540  Biso   1.000  C
  C7       1.0000 0.14950  0.59700  0.50540  Biso   1.000  C
  C8       1.0000 0.35050  0.09700  0.99460  Biso   1.000  C
  H1       1.0000 0.82220  0.47490  0.45150  Biso   1.000  H
  H2       1.0000 0.67780  0.97490  0.04850  Biso   1.000  H
  H3       1.0000 0.17780  0.52510  0.54850  Biso   1.000  H
  H4       1.0000 0.32220  0.02510  0.95150  Biso   1.000  H
  C9       1.0000 0.93160  0.30500  0.49160  Biso   1.000  C
  C10      1.0000 0.56840  0.80500  0.00840  Biso   1.000  C
  C11      1.0000 0.06840  0.69500  0.50840  Biso   1.000  C
  C12      1.0000 0.43160  0.19500  0.99160  Biso   1.000  C
  C13      1.0000 0.85490  0.28740  0.62630  Biso   1.000  C
  C14      1.0000 0.64510  0.78740  0.87370  Biso   1.000  C
  C15      1.0000 0.14510  0.71260  0.37370  Biso   1.000  C
  C16      1.0000 0.35490  0.21260  0.12630  Biso   1.000  C
  C17      1.0000 0.81670  0.26380  0.69880  Biso   1.000  C
  C18      1.0000 0.68330  0.76380  0.80120  Biso   1.000  C
  C19      1.0000 0.18330  0.73620  0.30120  Biso   1.000  C
  C20      1.0000 0.31670  0.23620  0.19880  Biso   1.000  C
  C21      1.0000 0.55190  0.71400  0.53310  Biso   1.000  C
  C22      1.0000 0.94810  0.21400  0.96690  Biso   1.000  C
  C23      1.0000 0.44810  0.28600  0.46690  Biso   1.000  C
  C24      1.0000 0.05190  0.78600  0.03310  Biso   1.000  C
  C25      1.0000 0.59200  0.63510  0.47160  Biso   1.000  C
  C26      1.0000 0.90800  0.13510  0.02840  Biso   1.000  C
  C27      1.0000 0.40800  0.36490  0.52840  Biso   1.000  C
  C28      1.0000 0.09200  0.86490  0.97160  Biso   1.000  C
  C29      1.0000 0.97560  0.19960  0.55670  Biso   1.000  C
  C30      1.0000 0.52440  0.69960  0.94330  Biso   1.000  C
  C31      1.0000 0.02440  0.80040  0.44330  Biso   1.000  C
  C32      1.0000 0.47560  0.30040  0.05670  Biso   1.000  C
  H5       1.0000 0.03130  0.13590  0.55580  Biso   1.000  H
  H6       1.0000 0.46870  0.63590  0.94420  Biso   1.000  H
  H7       1.0000 0.96870  0.86410  0.44420  Biso   1.000  H
  H8       1.0000 0.53130  0.36410  0.05580  Biso   1.000  H
  C33      1.0000 0.93680  0.19010  0.62200  Biso   1.000  C
  C34      1.0000 0.56320  0.69010  0.87800  Biso   1.000  C
  C35      1.0000 0.06320  0.80990  0.37800  Biso   1.000  C
  C36      1.0000 0.43680  0.30990  0.12200  Biso   1.000  C
  H9       1.0000 0.96550  0.11720  0.66460  Biso   1.000  H
  H10      1.0000 0.53450  0.61720  0.83540  Biso   1.000  H
  H11      1.0000 0.03450  0.88280  0.33540  Biso   1.000  H
  H12      1.0000 0.46550  0.38280  0.16460  Biso   1.000  H
  C37      1.0000 0.40640  0.87260  0.55260  Biso   1.000  C
  C38      1.0000 0.09360  0.37260  0.94740  Biso   1.000  C
  C39      1.0000 0.59360  0.12740  0.44740  Biso   1.000  C
  C40      1.0000 0.90640  0.62740  0.05260  Biso   1.000  C
  C41      1.0000 0.96980  0.31770  0.41800  Biso   1.000  C
  C42      1.0000 0.53020  0.81770  0.08200  Biso   1.000  C
  C43      1.0000 0.03020  0.68230  0.58200  Biso   1.000  C
  C44      1.0000 0.46980  0.18230  0.91800  Biso   1.000  C
  C45      1.0000 0.54580  0.65650  0.38310  Biso   1.000  C
  C46      1.0000 0.95420  0.15650  0.11690  Biso   1.000  C
  C47      1.0000 0.45420  0.34350  0.61690  Biso   1.000  C
  C48      1.0000 0.04580  0.84350  0.88310  Biso   1.000  C
  C49      1.0000 0.32180  0.95660  0.50770  Biso   1.000  C
  C50      1.0000 0.17820  0.45660  0.99230  Biso   1.000  C
  C51      1.0000 0.67820  0.04340  0.49230  Biso   1.000  C
  C52      1.0000 0.82180  0.54340  0.00770  Biso   1.000  C
  H13      1.0000 0.30830  0.96580  0.45110  Biso   1.000  H
  H14      1.0000 0.19170  0.46580  0.04890  Biso   1.000  H
  H15      1.0000 0.69170  0.03420  0.54890  Biso   1.000  H
  H16      1.0000 0.80830  0.53420  0.95110  Biso   1.000  H
  C53      1.0000 0.25690  0.02730  0.54690  Biso   1.000  C
  C54      1.0000 0.24310  0.52730  0.95310  Biso   1.000  C
  C55      1.0000 0.74310  0.97270  0.45310  Biso   1.000  C
  C56      1.0000 0.75690  0.47270  0.04690  Biso   1.000  C
  H17      1.0000 0.19960  0.08290  0.51640  Biso   1.000  H
  H18      1.0000 0.30040  0.58290  0.98360  Biso   1.000  H
  H19      1.0000 0.80040  0.91710  0.48360  Biso   1.000  H
  H20      1.0000 0.69960  0.41710  0.01640  Biso   1.000  H
  C57      1.0000 0.59810  0.58890  0.32390  Biso   1.000  C
  C58      1.0000 0.90190  0.08890  0.17610  Biso   1.000  C
  C59      1.0000 0.40190  0.41110  0.67610  Biso   1.000  C
  C60      1.0000 0.09810  0.91110  0.82390  Biso   1.000  C
  H21      1.0000 0.58100  0.47450  0.31360  Biso   1.000  H
  H22      1.0000 0.91900  0.97450  0.18640  Biso   1.000  H
  H23      1.0000 0.41900  0.52550  0.68640  Biso   1.000  H
  H24      1.0000 0.08100  0.02550  0.81360  Biso   1.000  H
  H25      1.0000 0.66980  0.59960  0.34680  Biso   1.000  H
  H26      1.0000 0.83020  0.09960  0.15320  Biso   1.000  H
  H27      1.0000 0.33020  0.40040  0.65320  Biso   1.000  H
  H28      1.0000 0.16980  0.90040  0.84680  Biso   1.000  H
  H29      1.0000 0.57690  0.64940  0.27330  Biso   1.000  H
  H30      1.0000 0.92310  0.14940  0.22670  Biso   1.000  H
  H31      1.0000 0.42310  0.35060  0.72670  Biso   1.000  H
  H32      1.0000 0.07690  0.85060  0.77330  Biso   1.000  H
  C61      1.0000 0.27720  0.01550  0.63150  Biso   1.000  C
  C62      1.0000 0.22280  0.51550  0.86850  Biso   1.000  C
  C63      1.0000 0.72280  0.98450  0.36850  Biso   1.000  C
  C64      1.0000 0.77720  0.48450  0.13150  Biso   1.000  C
  H33      1.0000 0.23300  0.06100  0.65770  Biso   1.000  H
  H34      1.0000 0.26700  0.56100  0.84230  Biso   1.000  H
  H35      1.0000 0.76700  0.93900  0.34230  Biso   1.000  H
  H36      1.0000 0.73300  0.43900  0.15770  Biso   1.000  H
  C65      1.0000 0.42680  0.86350  0.63780  Biso   1.000  C
  C66      1.0000 0.07320  0.36350  0.86220  Biso   1.000  C
  C67      1.0000 0.57320  0.13650  0.36220  Biso   1.000  C
  C68      1.0000 0.92680  0.63650  0.13780  Biso   1.000  C
  H37      1.0000 0.48390  0.80800  0.66880  Biso   1.000  H
  H38      1.0000 0.01610  0.30800  0.83120  Biso   1.000  H
  H39      1.0000 0.51610  0.19200  0.33120  Biso   1.000  H
  H40      1.0000 0.98390  0.69200  0.16880  Biso   1.000  H
  C69      1.0000 0.36280  0.93630  0.67590  Biso   1.000  C
  C70      1.0000 0.13720  0.43630  0.82410  Biso   1.000  C
  C71      1.0000 0.63720  0.06370  0.32410  Biso   1.000  C
  C72      1.0000 0.86280  0.56370  0.17590  Biso   1.000  C
  H41      1.0000 0.37770  0.93190  0.73280  Biso   1.000  H
  H42      1.0000 0.12230  0.43190  0.76720  Biso   1.000  H
  H43      1.0000 0.62230  0.06810  0.26720  Biso   1.000  H
  H44      1.0000 0.87770  0.56810  0.23280  Biso   1.000  H
  H45      1.0000 0.89200  0.72000  0.74220  Biso   1.000  H
  H46      1.0000 0.60800  0.22000  0.75780  Biso   1.000  H
  H47      1.0000 0.10800  0.28000  0.25780  Biso   1.000  H
  H48      1.0000 0.39200  0.78000  0.24220  Biso   1.000  H
  H49      1.0000 0.81500  0.83600  0.69300  Biso   1.000  H
  H50      1.0000 0.68500  0.33600  0.80700  Biso   1.000  H
  H51      1.0000 0.18500  0.16400  0.30700  Biso   1.000  H
  H52      1.0000 0.31500  0.66400  0.19300  Biso   1.000  H
  H53      1.0000 0.44500  0.80400  0.45800  Biso   1.000  H
  H54      1.0000 0.05500  0.30400  0.04200  Biso   1.000  H
  H55      1.0000 0.55500  0.19600  0.54200  Biso   1.000  H
  H56      1.0000 0.94500  0.69600  0.95800  Biso   1.000  H
  H57      1.0000 0.06800  0.24500  0.37600  Biso   1.000  H
  H58      1.0000 0.43200  0.74500  0.12400  Biso   1.000  H
  H59      1.0000 0.93200  0.75500  0.62400  Biso   1.000  H
  H60      1.0000 0.56800  0.25500  0.87600  Biso   1.000  H
