data_image0
_cell_length_a       29.0545
_cell_length_b       42.7251
_cell_length_c       4.784
_cell_angle_alpha    90
_cell_angle_beta     90
_cell_angle_gamma    90

_symmetry_space_group_name_H-M    "P 1"
_symmetry_int_tables_number       1

loop_
  _symmetry_equiv_pos_as_xyz
  'x, y, z'

loop_
  _atom_site_label
  _atom_site_occupancy
  _atom_site_fract_x
  _atom_site_fract_y
  _atom_site_fract_z
  _atom_site_thermal_displace_type
  _atom_site_B_iso_or_equiv
  _atom_site_type_symbol
  Cu1      1.0000 0.47871  0.10266  0.80838  Biso   1.000  Cu
  Cu2      1.0000 0.52129  0.89734  0.80838  Biso   1.000  Cu
  Cu3      1.0000 0.72871  0.14734  0.05838  Biso   1.000  Cu
  Cu4      1.0000 0.77129  0.35266  0.05838  Biso   1.000  Cu
  Cu5      1.0000 0.47871  0.60266  0.30838  Biso   1.000  Cu
  Cu6      1.0000 0.52129  0.39734  0.30838  Biso   1.000  Cu
  Cu7      1.0000 0.97871  0.10266  0.30838  Biso   1.000  Cu
  Cu8      1.0000 0.02129  0.89734  0.30838  Biso   1.000  Cu
  Cu9      1.0000 0.97871  0.60266  0.80838  Biso   1.000  Cu
  Cu10     1.0000 0.02129  0.39734  0.80838  Biso   1.000  Cu
  N1       1.0000 0.54201  0.09679  0.67430  Biso   1.000  N
  N2       1.0000 0.45799  0.90321  0.67430  Biso   1.000  N
  N3       1.0000 0.79201  0.15321  0.92430  Biso   1.000  N
  N4       1.0000 0.70799  0.34679  0.92430  Biso   1.000  N
  N5       1.0000 0.54201  0.59679  0.17430  Biso   1.000  N
  N6       1.0000 0.45799  0.40321  0.17430  Biso   1.000  N
  N7       1.0000 0.04201  0.09679  0.17430  Biso   1.000  N
  N8       1.0000 0.95799  0.90321  0.17430  Biso   1.000  N
  N9       1.0000 0.04201  0.59679  0.67430  Biso   1.000  N
  N10      1.0000 0.95799  0.40321  0.67430  Biso   1.000  N
  N11      1.0000 0.61404  0.10900  0.57950  Biso   1.000  N
  N12      1.0000 0.38596  0.89100  0.57950  Biso   1.000  N
  N13      1.0000 0.86404  0.14100  0.82950  Biso   1.000  N
  N14      1.0000 0.63596  0.35900  0.82950  Biso   1.000  N
  N15      1.0000 0.61404  0.60900  0.07950  Biso   1.000  N
  N16      1.0000 0.38596  0.39100  0.07950  Biso   1.000  N
  N17      1.0000 0.11404  0.10900  0.07950  Biso   1.000  N
  N18      1.0000 0.88596  0.89100  0.07950  Biso   1.000  N
  N19      1.0000 0.11404  0.60900  0.57950  Biso   1.000  N
  N20      1.0000 0.88596  0.39100  0.57950  Biso   1.000  N
  O1       1.0000 0.46098  0.12506  0.38720  Biso   1.000  O
  O2       1.0000 0.53902  0.87494  0.38720  Biso   1.000  O
  O3       1.0000 0.71098  0.12494  0.63720  Biso   1.000  O
  O4       1.0000 0.78902  0.37506  0.63720  Biso   1.000  O
  O5       1.0000 0.46098  0.62506  0.88720  Biso   1.000  O
  O6       1.0000 0.53902  0.37494  0.88720  Biso   1.000  O
  O7       1.0000 0.96098  0.12506  0.88720  Biso   1.000  O
  O8       1.0000 0.03902  0.87494  0.88720  Biso   1.000  O
  O9       1.0000 0.96098  0.62506  0.38720  Biso   1.000  O
  O10      1.0000 0.03902  0.37494  0.38720  Biso   1.000  O
  O11      1.0000 0.49333  0.14170  0.99450  Biso   1.000  O
  O12      1.0000 0.50667  0.85830  0.99450  Biso   1.000  O
  O13      1.0000 0.74333  0.10830  0.24450  Biso   1.000  O
  O14      1.0000 0.75667  0.39170  0.24450  Biso   1.000  O
  O15      1.0000 0.49333  0.64170  0.49450  Biso   1.000  O
  O16      1.0000 0.50667  0.35830  0.49450  Biso   1.000  O
  O17      1.0000 0.99333  0.14170  0.49450  Biso   1.000  O
  O18      1.0000 0.00667  0.85830  0.49450  Biso   1.000  O
  O19      1.0000 0.99333  0.64170  0.99450  Biso   1.000  O
  O20      1.0000 0.00667  0.35830  0.99450  Biso   1.000  O
  O21      1.0000 0.49748  0.20063  0.19310  Biso   1.000  O
  O22      1.0000 0.50252  0.79937  0.19310  Biso   1.000  O
  O23      1.0000 0.74748  0.04937  0.44310  Biso   1.000  O
  O24      1.0000 0.75252  0.45063  0.44310  Biso   1.000  O
  O25      1.0000 0.49748  0.70063  0.69310  Biso   1.000  O
  O26      1.0000 0.50252  0.29937  0.69310  Biso   1.000  O
  O27      1.0000 0.99748  0.20063  0.69310  Biso   1.000  O
  O28      1.0000 0.00252  0.79937  0.69310  Biso   1.000  O
  O29      1.0000 0.99748  0.70063  0.19310  Biso   1.000  O
  O30      1.0000 0.00252  0.29937  0.19310  Biso   1.000  O
  O31      1.0000 0.65983  0.15110  0.13460  Biso   1.000  O
  O32      1.0000 0.34017  0.84890  0.13460  Biso   1.000  O
  O33      1.0000 0.90983  0.09890  0.38460  Biso   1.000  O
  O34      1.0000 0.59017  0.40110  0.38460  Biso   1.000  O
  O35      1.0000 0.65983  0.65110  0.63460  Biso   1.000  O
  O36      1.0000 0.34017  0.34890  0.63460  Biso   1.000  O
  O37      1.0000 0.15983  0.15110  0.63460  Biso   1.000  O
  O38      1.0000 0.84017  0.84890  0.63460  Biso   1.000  O
  O39      1.0000 0.15983  0.65110  0.13460  Biso   1.000  O
  O40      1.0000 0.84017  0.34890  0.13460  Biso   1.000  O
  O41      1.0000 0.70130  0.18858  0.96710  Biso   1.000  O
  O42      1.0000 0.29870  0.81142  0.96710  Biso   1.000  O
  O43      1.0000 0.95130  0.06142  0.21710  Biso   1.000  O
  O44      1.0000 0.54870  0.43858  0.21710  Biso   1.000  O
  O45      1.0000 0.70130  0.68858  0.46710  Biso   1.000  O
  O46      1.0000 0.29870  0.31142  0.46710  Biso   1.000  O
  O47      1.0000 0.20130  0.18858  0.46710  Biso   1.000  O
  O48      1.0000 0.79870  0.81142  0.46710  Biso   1.000  O
  O49      1.0000 0.20130  0.68858  0.96710  Biso   1.000  O
  O50      1.0000 0.79870  0.31142  0.96710  Biso   1.000  O
  C1       1.0000 0.57664  0.11512  0.73250  Biso   1.000  C
  C2       1.0000 0.42336  0.88488  0.73250  Biso   1.000  C
  C3       1.0000 0.82664  0.13488  0.98250  Biso   1.000  C
  C4       1.0000 0.67336  0.36512  0.98250  Biso   1.000  C
  C5       1.0000 0.57664  0.61512  0.23250  Biso   1.000  C
  C6       1.0000 0.42336  0.38488  0.23250  Biso   1.000  C
  C7       1.0000 0.07664  0.11512  0.23250  Biso   1.000  C
  C8       1.0000 0.92336  0.88488  0.23250  Biso   1.000  C
  C9       1.0000 0.07664  0.61512  0.73250  Biso   1.000  C
  C10      1.0000 0.92336  0.38488  0.73250  Biso   1.000  C
  C11      1.0000 0.60365  0.08447  0.40380  Biso   1.000  C
  C12      1.0000 0.39635  0.91553  0.40380  Biso   1.000  C
  C13      1.0000 0.85365  0.16553  0.65380  Biso   1.000  C
  C14      1.0000 0.64635  0.33447  0.65380  Biso   1.000  C
  C15      1.0000 0.60365  0.58447  0.90380  Biso   1.000  C
  C16      1.0000 0.39635  0.41553  0.90380  Biso   1.000  C
  C17      1.0000 0.10365  0.08447  0.90380  Biso   1.000  C
  C18      1.0000 0.89635  0.91553  0.90380  Biso   1.000  C
  C19      1.0000 0.10365  0.58447  0.40380  Biso   1.000  C
  C20      1.0000 0.89635  0.41553  0.40380  Biso   1.000  C
  C21      1.0000 0.62893  0.06884  0.20280  Biso   1.000  C
  C22      1.0000 0.37107  0.93116  0.20280  Biso   1.000  C
  C23      1.0000 0.87893  0.18116  0.45280  Biso   1.000  C
  C24      1.0000 0.62107  0.31884  0.45280  Biso   1.000  C
  C25      1.0000 0.62893  0.56884  0.70280  Biso   1.000  C
  C26      1.0000 0.37107  0.43116  0.70280  Biso   1.000  C
  C27      1.0000 0.12893  0.06884  0.70280  Biso   1.000  C
  C28      1.0000 0.87107  0.93116  0.70280  Biso   1.000  C
  C29      1.0000 0.12893  0.56884  0.20280  Biso   1.000  C
  C30      1.0000 0.87107  0.43116  0.20280  Biso   1.000  C
  C31      1.0000 0.60752  0.04489  0.06620  Biso   1.000  C
  C32      1.0000 0.39248  0.95511  0.06620  Biso   1.000  C
  C33      1.0000 0.85752  0.20511  0.31620  Biso   1.000  C
  C34      1.0000 0.64248  0.29489  0.31620  Biso   1.000  C
  C35      1.0000 0.60752  0.54489  0.56620  Biso   1.000  C
  C36      1.0000 0.39248  0.45511  0.56620  Biso   1.000  C
  C37      1.0000 0.10752  0.04489  0.56620  Biso   1.000  C
  C38      1.0000 0.89248  0.95511  0.56620  Biso   1.000  C
  C39      1.0000 0.10752  0.54489  0.06620  Biso   1.000  C
  C40      1.0000 0.89248  0.45511  0.06620  Biso   1.000  C
  C41      1.0000 0.56219  0.03687  0.12580  Biso   1.000  C
  C42      1.0000 0.43781  0.96313  0.12580  Biso   1.000  C
  C43      1.0000 0.81219  0.21313  0.37580  Biso   1.000  C
  C44      1.0000 0.68781  0.28687  0.37580  Biso   1.000  C
  C45      1.0000 0.56219  0.53687  0.62580  Biso   1.000  C
  C46      1.0000 0.43781  0.46313  0.62580  Biso   1.000  C
  C47      1.0000 0.06219  0.03687  0.62580  Biso   1.000  C
  C48      1.0000 0.93781  0.96313  0.62580  Biso   1.000  C
  C49      1.0000 0.06219  0.53687  0.12580  Biso   1.000  C
  C50      1.0000 0.93781  0.46313  0.12580  Biso   1.000  C
  C51      1.0000 0.53637  0.05244  0.32340  Biso   1.000  C
  C52      1.0000 0.46363  0.94756  0.32340  Biso   1.000  C
  C53      1.0000 0.78637  0.19756  0.57340  Biso   1.000  C
  C54      1.0000 0.71363  0.30244  0.57340  Biso   1.000  C
  C55      1.0000 0.53637  0.55244  0.82340  Biso   1.000  C
  C56      1.0000 0.46363  0.44756  0.82340  Biso   1.000  C
  C57      1.0000 0.03637  0.05244  0.82340  Biso   1.000  C
  C58      1.0000 0.96363  0.94756  0.82340  Biso   1.000  C
  C59      1.0000 0.03637  0.55244  0.32340  Biso   1.000  C
  C60      1.0000 0.96363  0.44756  0.32340  Biso   1.000  C
  C61      1.0000 0.55780  0.07673  0.46330  Biso   1.000  C
  C62      1.0000 0.44220  0.92327  0.46330  Biso   1.000  C
  C63      1.0000 0.80780  0.17327  0.71330  Biso   1.000  C
  C64      1.0000 0.69220  0.32673  0.71330  Biso   1.000  C
  C65      1.0000 0.55780  0.57673  0.96330  Biso   1.000  C
  C66      1.0000 0.44220  0.42327  0.96330  Biso   1.000  C
  C67      1.0000 0.05780  0.07673  0.96330  Biso   1.000  C
  C68      1.0000 0.94220  0.92327  0.96330  Biso   1.000  C
  C69      1.0000 0.05780  0.57673  0.46330  Biso   1.000  C
  C70      1.0000 0.94220  0.42327  0.46330  Biso   1.000  C
  C71      1.0000 0.48118  0.14480  0.24730  Biso   1.000  C
  C72      1.0000 0.51882  0.85520  0.24730  Biso   1.000  C
  C73      1.0000 0.73118  0.10520  0.49730  Biso   1.000  C
  C74      1.0000 0.76882  0.39480  0.49730  Biso   1.000  C
  C75      1.0000 0.48118  0.64480  0.74730  Biso   1.000  C
  C76      1.0000 0.51882  0.35520  0.74730  Biso   1.000  C
  C77      1.0000 0.98118  0.14480  0.74730  Biso   1.000  C
  C78      1.0000 0.01882  0.85520  0.74730  Biso   1.000  C
  C79      1.0000 0.98118  0.64480  0.24730  Biso   1.000  C
  C80      1.0000 0.01882  0.35520  0.24730  Biso   1.000  C
  C81      1.0000 0.49085  0.17598  0.38520  Biso   1.000  C
  C82      1.0000 0.50915  0.82402  0.38520  Biso   1.000  C
  C83      1.0000 0.74085  0.07402  0.63520  Biso   1.000  C
  C84      1.0000 0.75915  0.42598  0.63520  Biso   1.000  C
  C85      1.0000 0.49085  0.67598  0.88520  Biso   1.000  C
  C86      1.0000 0.50915  0.32402  0.88520  Biso   1.000  C
  C87      1.0000 0.99085  0.17598  0.88520  Biso   1.000  C
  C88      1.0000 0.00915  0.82402  0.88520  Biso   1.000  C
  C89      1.0000 0.99085  0.67598  0.38520  Biso   1.000  C
  C90      1.0000 0.00915  0.32402  0.38520  Biso   1.000  C
  C91      1.0000 0.53981  0.20586  0.07740  Biso   1.000  C
  C92      1.0000 0.46019  0.79414  0.07740  Biso   1.000  C
  C93      1.0000 0.78981  0.04414  0.32740  Biso   1.000  C
  C94      1.0000 0.71019  0.45586  0.32740  Biso   1.000  C
  C95      1.0000 0.53981  0.70586  0.57740  Biso   1.000  C
  C96      1.0000 0.46019  0.29414  0.57740  Biso   1.000  C
  C97      1.0000 0.03981  0.20586  0.57740  Biso   1.000  C
  C98      1.0000 0.96019  0.79414  0.57740  Biso   1.000  C
  C99      1.0000 0.03981  0.70586  0.07740  Biso   1.000  C
  C100     1.0000 0.96019  0.29414  0.07740  Biso   1.000  C
  C101     1.0000 0.54136  0.23123  0.89650  Biso   1.000  C
  C102     1.0000 0.45864  0.76877  0.89650  Biso   1.000  C
  C103     1.0000 0.79136  0.01877  0.14650  Biso   1.000  C
  C104     1.0000 0.70864  0.48123  0.14650  Biso   1.000  C
  C105     1.0000 0.54136  0.73123  0.39650  Biso   1.000  C
  C106     1.0000 0.45864  0.26877  0.39650  Biso   1.000  C
  C107     1.0000 0.04136  0.23123  0.39650  Biso   1.000  C
  C108     1.0000 0.95864  0.76877  0.39650  Biso   1.000  C
  C109     1.0000 0.04136  0.73123  0.89650  Biso   1.000  C
  C110     1.0000 0.95864  0.26877  0.89650  Biso   1.000  C
  C111     1.0000 0.58188  0.23949  0.76850  Biso   1.000  C
  C112     1.0000 0.41812  0.76051  0.76850  Biso   1.000  C
  C113     1.0000 0.83188  0.01051  0.01850  Biso   1.000  C
  C114     1.0000 0.66812  0.48949  0.01850  Biso   1.000  C
  C115     1.0000 0.58188  0.73949  0.26850  Biso   1.000  C
  C116     1.0000 0.41812  0.26051  0.26850  Biso   1.000  C
  C117     1.0000 0.08188  0.23949  0.26850  Biso   1.000  C
  C118     1.0000 0.91812  0.76051  0.26850  Biso   1.000  C
  C119     1.0000 0.08188  0.73949  0.76850  Biso   1.000  C
  C120     1.0000 0.91812  0.26051  0.76850  Biso   1.000  C
  C121     1.0000 0.62186  0.22275  0.81680  Biso   1.000  C
  C122     1.0000 0.37814  0.77725  0.81680  Biso   1.000  C
  C123     1.0000 0.87186  0.02725  0.06680  Biso   1.000  C
  C124     1.0000 0.62814  0.47275  0.06680  Biso   1.000  C
  C125     1.0000 0.62186  0.72275  0.31680  Biso   1.000  C
  C126     1.0000 0.37814  0.27725  0.31680  Biso   1.000  C
  C127     1.0000 0.12186  0.22275  0.31680  Biso   1.000  C
  C128     1.0000 0.87814  0.77725  0.31680  Biso   1.000  C
  C129     1.0000 0.12186  0.72275  0.81680  Biso   1.000  C
  C130     1.0000 0.87814  0.27725  0.81680  Biso   1.000  C
  C131     1.0000 0.62033  0.19735  0.99460  Biso   1.000  C
  C132     1.0000 0.37967  0.80265  0.99460  Biso   1.000  C
  C133     1.0000 0.87033  0.05265  0.24460  Biso   1.000  C
  C134     1.0000 0.62967  0.44735  0.24460  Biso   1.000  C
  C135     1.0000 0.62033  0.69735  0.49460  Biso   1.000  C
  C136     1.0000 0.37967  0.30265  0.49460  Biso   1.000  C
  C137     1.0000 0.12033  0.19735  0.49460  Biso   1.000  C
  C138     1.0000 0.87967  0.80265  0.49460  Biso   1.000  C
  C139     1.0000 0.12033  0.69735  0.99460  Biso   1.000  C
  C140     1.0000 0.87967  0.30265  0.99460  Biso   1.000  C
  C141     1.0000 0.57900  0.18855  0.12470  Biso   1.000  C
  C142     1.0000 0.42100  0.81145  0.12470  Biso   1.000  C
  C143     1.0000 0.82900  0.06145  0.37470  Biso   1.000  C
  C144     1.0000 0.67100  0.43855  0.37470  Biso   1.000  C
  C145     1.0000 0.57900  0.68855  0.62470  Biso   1.000  C
  C146     1.0000 0.42100  0.31145  0.62470  Biso   1.000  C
  C147     1.0000 0.07900  0.18855  0.62470  Biso   1.000  C
  C148     1.0000 0.92100  0.81145  0.62470  Biso   1.000  C
  C149     1.0000 0.07900  0.68855  0.12470  Biso   1.000  C
  C150     1.0000 0.92100  0.31145  0.12470  Biso   1.000  C
  C151     1.0000 0.66222  0.17833  0.03740  Biso   1.000  C
  C152     1.0000 0.33778  0.82167  0.03740  Biso   1.000  C
  C153     1.0000 0.91222  0.07167  0.28740  Biso   1.000  C
  C154     1.0000 0.58778  0.42833  0.28740  Biso   1.000  C
  C155     1.0000 0.66222  0.67833  0.53740  Biso   1.000  C
  C156     1.0000 0.33778  0.32167  0.53740  Biso   1.000  C
  C157     1.0000 0.16222  0.17833  0.53740  Biso   1.000  C
  C158     1.0000 0.83778  0.82167  0.53740  Biso   1.000  C
  C159     1.0000 0.16222  0.67833  0.03740  Biso   1.000  C
  C160     1.0000 0.83778  0.32167  0.03740  Biso   1.000  C
  H1       1.0000 0.57540  0.13080  0.86670  Biso   1.000  H
  H2       1.0000 0.42460  0.86920  0.86670  Biso   1.000  H
  H3       1.0000 0.82540  0.11920  0.11670  Biso   1.000  H
  H4       1.0000 0.67460  0.38080  0.11670  Biso   1.000  H
  H5       1.0000 0.57540  0.63080  0.36670  Biso   1.000  H
  H6       1.0000 0.42460  0.36920  0.36670  Biso   1.000  H
  H7       1.0000 0.07540  0.13080  0.36670  Biso   1.000  H
  H8       1.0000 0.92460  0.86920  0.36670  Biso   1.000  H
  H9       1.0000 0.07540  0.63080  0.86670  Biso   1.000  H
  H10      1.0000 0.92460  0.36920  0.86670  Biso   1.000  H
  H11      1.0000 0.65920  0.07440  0.16250  Biso   1.000  H
  H12      1.0000 0.34080  0.92560  0.16250  Biso   1.000  H
  H13      1.0000 0.90920  0.17560  0.41250  Biso   1.000  H
  H14      1.0000 0.59080  0.32440  0.41250  Biso   1.000  H
  H15      1.0000 0.65920  0.57440  0.66250  Biso   1.000  H
  H16      1.0000 0.34080  0.42560  0.66250  Biso   1.000  H
  H17      1.0000 0.15920  0.07440  0.66250  Biso   1.000  H
  H18      1.0000 0.84080  0.92560  0.66250  Biso   1.000  H
  H19      1.0000 0.15920  0.57440  0.16250  Biso   1.000  H
  H20      1.0000 0.84080  0.42560  0.16250  Biso   1.000  H
  H21      1.0000 0.62350  0.03370  0.93060  Biso   1.000  H
  H22      1.0000 0.37650  0.96630  0.93060  Biso   1.000  H
  H23      1.0000 0.87350  0.21630  0.18060  Biso   1.000  H
  H24      1.0000 0.62650  0.28370  0.18060  Biso   1.000  H
  H25      1.0000 0.62350  0.53370  0.43060  Biso   1.000  H
  H26      1.0000 0.37650  0.46630  0.43060  Biso   1.000  H
  H27      1.0000 0.12350  0.03370  0.43060  Biso   1.000  H
  H28      1.0000 0.87650  0.96630  0.43060  Biso   1.000  H
  H29      1.0000 0.12350  0.53370  0.93060  Biso   1.000  H
  H30      1.0000 0.87650  0.46630  0.93060  Biso   1.000  H
  H31      1.0000 0.54880  0.02040  0.02860  Biso   1.000  H
  H32      1.0000 0.45120  0.97960  0.02860  Biso   1.000  H
  H33      1.0000 0.79880  0.22960  0.27860  Biso   1.000  H
  H34      1.0000 0.70120  0.27040  0.27860  Biso   1.000  H
  H35      1.0000 0.54880  0.52040  0.52860  Biso   1.000  H
  H36      1.0000 0.45120  0.47960  0.52860  Biso   1.000  H
  H37      1.0000 0.04880  0.02040  0.52860  Biso   1.000  H
  H38      1.0000 0.95120  0.97960  0.52860  Biso   1.000  H
  H39      1.0000 0.04880  0.52040  0.02860  Biso   1.000  H
  H40      1.0000 0.95120  0.47960  0.02860  Biso   1.000  H
  H41      1.0000 0.50600  0.04690  0.36070  Biso   1.000  H
  H42      1.0000 0.49400  0.95310  0.36070  Biso   1.000  H
  H43      1.0000 0.75600  0.20310  0.61070  Biso   1.000  H
  H44      1.0000 0.74400  0.29690  0.61070  Biso   1.000  H
  H45      1.0000 0.50600  0.54690  0.86070  Biso   1.000  H
  H46      1.0000 0.49400  0.45310  0.86070  Biso   1.000  H
  H47      1.0000 0.00600  0.04690  0.86070  Biso   1.000  H
  H48      1.0000 0.99400  0.95310  0.86070  Biso   1.000  H
  H49      1.0000 0.00600  0.54690  0.36070  Biso   1.000  H
  H50      1.0000 0.99400  0.45310  0.36070  Biso   1.000  H
  H51      1.0000 0.46530  0.18120  0.50700  Biso   1.000  H
  H52      1.0000 0.53470  0.81880  0.50700  Biso   1.000  H
  H53      1.0000 0.71530  0.06880  0.75700  Biso   1.000  H
  H54      1.0000 0.78470  0.43120  0.75700  Biso   1.000  H
  H55      1.0000 0.46530  0.68120  0.00700  Biso   1.000  H
  H56      1.0000 0.53470  0.31880  0.00700  Biso   1.000  H
  H57      1.0000 0.96530  0.18120  0.00700  Biso   1.000  H
  H58      1.0000 0.03470  0.81880  0.00700  Biso   1.000  H
  H59      1.0000 0.96530  0.68120  0.50700  Biso   1.000  H
  H60      1.0000 0.03470  0.31880  0.50700  Biso   1.000  H
  H61      1.0000 0.51820  0.17400  0.50050  Biso   1.000  H
  H62      1.0000 0.48180  0.82600  0.50050  Biso   1.000  H
  H63      1.0000 0.76820  0.07600  0.75050  Biso   1.000  H
  H64      1.0000 0.73180  0.42400  0.75050  Biso   1.000  H
  H65      1.0000 0.51820  0.67400  0.00050  Biso   1.000  H
  H66      1.0000 0.48180  0.32600  0.00050  Biso   1.000  H
  H67      1.0000 0.01820  0.17400  0.00050  Biso   1.000  H
  H68      1.0000 0.98180  0.82600  0.00050  Biso   1.000  H
  H69      1.0000 0.01820  0.67400  0.50050  Biso   1.000  H
  H70      1.0000 0.98180  0.32600  0.50050  Biso   1.000  H
  H71      1.0000 0.51480  0.24270  0.86180  Biso   1.000  H
  H72      1.0000 0.48520  0.75730  0.86180  Biso   1.000  H
  H73      1.0000 0.76480  0.00730  0.11180  Biso   1.000  H
  H74      1.0000 0.73520  0.49270  0.11180  Biso   1.000  H
  H75      1.0000 0.51480  0.74270  0.36180  Biso   1.000  H
  H76      1.0000 0.48520  0.25730  0.36180  Biso   1.000  H
  H77      1.0000 0.01480  0.24270  0.36180  Biso   1.000  H
  H78      1.0000 0.98520  0.75730  0.36180  Biso   1.000  H
  H79      1.0000 0.01480  0.74270  0.86180  Biso   1.000  H
  H80      1.0000 0.98520  0.25730  0.86180  Biso   1.000  H
  H81      1.0000 0.58240  0.25650  0.64770  Biso   1.000  H
  H82      1.0000 0.41760  0.74350  0.64770  Biso   1.000  H
  H83      1.0000 0.83240  0.99350  0.89770  Biso   1.000  H
  H84      1.0000 0.66760  0.50650  0.89770  Biso   1.000  H
  H85      1.0000 0.58240  0.75650  0.14770  Biso   1.000  H
  H86      1.0000 0.41760  0.24350  0.14770  Biso   1.000  H
  H87      1.0000 0.08240  0.25650  0.14770  Biso   1.000  H
  H88      1.0000 0.91760  0.74350  0.14770  Biso   1.000  H
  H89      1.0000 0.08240  0.75650  0.64770  Biso   1.000  H
  H90      1.0000 0.91760  0.24350  0.64770  Biso   1.000  H
  H91      1.0000 0.64930  0.22850  0.73100  Biso   1.000  H
  H92      1.0000 0.35070  0.77150  0.73100  Biso   1.000  H
  H93      1.0000 0.89930  0.02150  0.98100  Biso   1.000  H
  H94      1.0000 0.60070  0.47850  0.98100  Biso   1.000  H
  H95      1.0000 0.64930  0.72850  0.23100  Biso   1.000  H
  H96      1.0000 0.35070  0.27150  0.23100  Biso   1.000  H
  H97      1.0000 0.14930  0.22850  0.23100  Biso   1.000  H
  H98      1.0000 0.85070  0.77150  0.23100  Biso   1.000  H
  H99      1.0000 0.14930  0.72850  0.73100  Biso   1.000  H
  H100     1.0000 0.85070  0.27150  0.73100  Biso   1.000  H
  H101     1.0000 0.57810  0.17120  0.24170  Biso   1.000  H
  H102     1.0000 0.42190  0.82880  0.24170  Biso   1.000  H
  H103     1.0000 0.82810  0.07880  0.49170  Biso   1.000  H
  H104     1.0000 0.67190  0.42120  0.49170  Biso   1.000  H
  H105     1.0000 0.57810  0.67120  0.74170  Biso   1.000  H
  H106     1.0000 0.42190  0.32880  0.74170  Biso   1.000  H
  H107     1.0000 0.07810  0.17120  0.74170  Biso   1.000  H
  H108     1.0000 0.92190  0.82880  0.74170  Biso   1.000  H
  H109     1.0000 0.07810  0.67120  0.24170  Biso   1.000  H
  H110     1.0000 0.92190  0.32880  0.24170  Biso   1.000  H
  H111     1.0000 0.64000  0.11870  0.58910  Biso   1.000  H
  H112     1.0000 0.36000  0.88130  0.58910  Biso   1.000  H
  H113     1.0000 0.89000  0.13130  0.83910  Biso   1.000  H
  H114     1.0000 0.61000  0.36870  0.83910  Biso   1.000  H
  H115     1.0000 0.64000  0.61870  0.08910  Biso   1.000  H
  H116     1.0000 0.36000  0.38130  0.08910  Biso   1.000  H
  H117     1.0000 0.14000  0.11870  0.08910  Biso   1.000  H
  H118     1.0000 0.86000  0.88130  0.08910  Biso   1.000  H
  H119     1.0000 0.14000  0.61870  0.58910  Biso   1.000  H
  H120     1.0000 0.86000  0.38130  0.58910  Biso   1.000  H
  O51      1.0000 0.40983  0.09890  0.88460  Biso   1.000  O
  O52      1.0000 0.59017  0.90110  0.88460  Biso   1.000  O
  O53      1.0000 0.40983  0.59890  0.38460  Biso   1.000  O
  O54      1.0000 0.09017  0.90110  0.38460  Biso   1.000  O
  O55      1.0000 0.90983  0.59890  0.88460  Biso   1.000  O
  O56      1.0000 0.09017  0.40110  0.88460  Biso   1.000  O
  O57      1.0000 0.45130  0.06142  0.71710  Biso   1.000  O
  O58      1.0000 0.54870  0.93858  0.71710  Biso   1.000  O
  O59      1.0000 0.45130  0.56142  0.21710  Biso   1.000  O
  O60      1.0000 0.04870  0.93858  0.21710  Biso   1.000  O
  O61      1.0000 0.95130  0.56142  0.71710  Biso   1.000  O
  O62      1.0000 0.04870  0.43858  0.71710  Biso   1.000  O
  Cu11     1.0000 0.27129  0.85266  0.05838  Biso   1.000  Cu
  Cu12     1.0000 0.72871  0.64734  0.55838  Biso   1.000  Cu
  Cu13     1.0000 0.27129  0.35266  0.55838  Biso   1.000  Cu
  Cu14     1.0000 0.22871  0.14734  0.55838  Biso   1.000  Cu
  Cu15     1.0000 0.77129  0.85266  0.55838  Biso   1.000  Cu
  Cu16     1.0000 0.22871  0.64734  0.05838  Biso   1.000  Cu
