data_image0
_cell_length_a       11.5111
_cell_length_b       22.9067
_cell_length_c       5.534
_cell_angle_alpha    90
_cell_angle_beta     90
_cell_angle_gamma    90

_symmetry_space_group_name_H-M    "P 1"
_symmetry_int_tables_number       1

loop_
  _symmetry_equiv_pos_as_xyz
  'x, y, z'

loop_
  _atom_site_label
  _atom_site_occupancy
  _atom_site_fract_x
  _atom_site_fract_y
  _atom_site_fract_z
  _atom_site_thermal_displace_type
  _atom_site_B_iso_or_equiv
  _atom_site_type_symbol
  Cu1      1.0000 0.56486  0.58604  0.65233  Biso   1.000  Cu
  Cu2      1.0000 0.43514  0.41396  0.15233  Biso   1.000  Cu
  Cu3      1.0000 0.06486  0.91396  0.65233  Biso   1.000  Cu
  Cu4      1.0000 0.93514  0.08604  0.15233  Biso   1.000  Cu
  O1       1.0000 0.58370  0.43002  0.32720  Biso   1.000  O
  O2       1.0000 0.41630  0.56998  0.82720  Biso   1.000  O
  O3       1.0000 0.08370  0.06998  0.32720  Biso   1.000  O
  O4       1.0000 0.91630  0.93002  0.82720  Biso   1.000  O
  O5       1.0000 0.55660  0.50843  0.54360  Biso   1.000  O
  O6       1.0000 0.44340  0.49157  0.04360  Biso   1.000  O
  O7       1.0000 0.05660  0.99157  0.54360  Biso   1.000  O
  O8       1.0000 0.94340  0.00843  0.04360  Biso   1.000  O
  O9       1.0000 0.57940  0.65288  0.85550  Biso   1.000  O
  O10      1.0000 0.42060  0.34712  0.35550  Biso   1.000  O
  O11      1.0000 0.07940  0.84712  0.85550  Biso   1.000  O
  O12      1.0000 0.92060  0.15288  0.35550  Biso   1.000  O
  O13      1.0000 0.86640  0.75524  0.42250  Biso   1.000  O
  O14      1.0000 0.13360  0.24476  0.92250  Biso   1.000  O
  O15      1.0000 0.36640  0.74476  0.42250  Biso   1.000  O
  O16      1.0000 0.63360  0.25524  0.92250  Biso   1.000  O
  O17      1.0000 0.46060  0.63111  0.34570  Biso   1.000  O
  O18      1.0000 0.53940  0.36889  0.84570  Biso   1.000  O
  O19      1.0000 0.96060  0.86889  0.34570  Biso   1.000  O
  O20      1.0000 0.03940  0.13111  0.84570  Biso   1.000  O
  H1       1.0000 0.45730  0.66720  0.37210  Biso   1.000  H
  H2       1.0000 0.54270  0.33280  0.87210  Biso   1.000  H
  H3       1.0000 0.95730  0.83280  0.37210  Biso   1.000  H
  H4       1.0000 0.04270  0.16720  0.87210  Biso   1.000  H
  N1       1.0000 0.76030  0.65310  0.48070  Biso   1.000  N
  N2       1.0000 0.23970  0.34690  0.98070  Biso   1.000  N
  N3       1.0000 0.26030  0.84690  0.48070  Biso   1.000  N
  N4       1.0000 0.73970  0.15310  0.98070  Biso   1.000  N
  C1       1.0000 0.61070  0.48203  0.38150  Biso   1.000  C
  C2       1.0000 0.38930  0.51797  0.88150  Biso   1.000  C
  C3       1.0000 0.11070  0.01797  0.38150  Biso   1.000  C
  C4       1.0000 0.88930  0.98203  0.88150  Biso   1.000  C
  N5       1.0000 0.70800  0.60323  0.47670  Biso   1.000  N
  N6       1.0000 0.29200  0.39677  0.97670  Biso   1.000  N
  N7       1.0000 0.20800  0.89677  0.47670  Biso   1.000  N
  N8       1.0000 0.79200  0.10323  0.97670  Biso   1.000  N
  C5       1.0000 0.64910  0.69505  0.82520  Biso   1.000  C
  C6       1.0000 0.35090  0.30495  0.32520  Biso   1.000  C
  C7       1.0000 0.14910  0.80495  0.82520  Biso   1.000  C
  C8       1.0000 0.85090  0.19505  0.32520  Biso   1.000  C
  C9       1.0000 0.80210  0.75023  0.59630  Biso   1.000  C
  C10      1.0000 0.19790  0.24977  0.09630  Biso   1.000  C
  C11      1.0000 0.30210  0.74977  0.59630  Biso   1.000  C
  C12      1.0000 0.69790  0.25023  0.09630  Biso   1.000  C
  C13      1.0000 0.70840  0.50966  0.24800  Biso   1.000  C
  C14      1.0000 0.29160  0.49034  0.74800  Biso   1.000  C
  C15      1.0000 0.20840  0.99034  0.24800  Biso   1.000  C
  C16      1.0000 0.79160  0.00966  0.74800  Biso   1.000  C
  C17      1.0000 0.73260  0.69659  0.63790  Biso   1.000  C
  C18      1.0000 0.26740  0.30341  0.13790  Biso   1.000  C
  C19      1.0000 0.23260  0.80341  0.63790  Biso   1.000  C
  C20      1.0000 0.76740  0.19659  0.13790  Biso   1.000  C
  C21      1.0000 0.75530  0.56603  0.29260  Biso   1.000  C
  C22      1.0000 0.24470  0.43397  0.79260  Biso   1.000  C
  C23      1.0000 0.25530  0.93397  0.29260  Biso   1.000  C
  C24      1.0000 0.74470  0.06603  0.79260  Biso   1.000  C
  C25      1.0000 0.66840  0.80419  0.88910  Biso   1.000  C
  C26      1.0000 0.33160  0.19581  0.38910  Biso   1.000  C
  C27      1.0000 0.16840  0.69581  0.88910  Biso   1.000  C
  C28      1.0000 0.83160  0.30419  0.38910  Biso   1.000  C
  C29      1.0000 0.63870  0.74440  0.00060  Biso   1.000  C
  C30      1.0000 0.36130  0.25560  0.50060  Biso   1.000  C
  C31      1.0000 0.13870  0.75560  0.00060  Biso   1.000  C
  C32      1.0000 0.86130  0.24440  0.50060  Biso   1.000  C
  H5       1.0000 0.69130  0.73710  0.13890  Biso   1.000  H
  H6       1.0000 0.30870  0.26290  0.63890  Biso   1.000  H
  H7       1.0000 0.19130  0.76290  0.13890  Biso   1.000  H
  H8       1.0000 0.80870  0.23710  0.63890  Biso   1.000  H
  H9       1.0000 0.55820  0.74560  0.06350  Biso   1.000  H
  H10      1.0000 0.44180  0.25440  0.56350  Biso   1.000  H
  H11      1.0000 0.05820  0.75440  0.06350  Biso   1.000  H
  H12      1.0000 0.94180  0.24560  0.56350  Biso   1.000  H
  C33      1.0000 0.67020  0.85122  0.08420  Biso   1.000  C
  C34      1.0000 0.32980  0.14878  0.58420  Biso   1.000  C
  C35      1.0000 0.17020  0.64878  0.08420  Biso   1.000  C
  C36      1.0000 0.82980  0.35122  0.58420  Biso   1.000  C
  H13      1.0000 0.72810  0.84110  0.20700  Biso   1.000  H
  H14      1.0000 0.27190  0.15890  0.70700  Biso   1.000  H
  H15      1.0000 0.22810  0.65890  0.20700  Biso   1.000  H
  H16      1.0000 0.77190  0.34110  0.70700  Biso   1.000  H
  H17      1.0000 0.69020  0.88890  0.01120  Biso   1.000  H
  H18      1.0000 0.30980  0.11110  0.51120  Biso   1.000  H
  H19      1.0000 0.19020  0.61110  0.01120  Biso   1.000  H
  H20      1.0000 0.80980  0.38890  0.51120  Biso   1.000  H
  H21      1.0000 0.59330  0.85390  0.15970  Biso   1.000  H
  H22      1.0000 0.40670  0.14610  0.65970  Biso   1.000  H
  H23      1.0000 0.09330  0.64610  0.15970  Biso   1.000  H
  H24      1.0000 0.90670  0.35390  0.65970  Biso   1.000  H
  C37      1.0000 0.75600  0.47724  0.05690  Biso   1.000  C
  C38      1.0000 0.24400  0.52276  0.55690  Biso   1.000  C
  C39      1.0000 0.25600  0.02276  0.05690  Biso   1.000  C
  C40      1.0000 0.74400  0.97724  0.55690  Biso   1.000  C
  H25      1.0000 0.72410  0.43990  0.02250  Biso   1.000  H
  H26      1.0000 0.27590  0.56010  0.52250  Biso   1.000  H
  H27      1.0000 0.22410  0.06010  0.02250  Biso   1.000  H
  H28      1.0000 0.77590  0.93990  0.52250  Biso   1.000  H
  C41      1.0000 0.84580  0.49688  0.91830  Biso   1.000  C
  C42      1.0000 0.15420  0.50312  0.41830  Biso   1.000  C
  C43      1.0000 0.34580  0.00312  0.91830  Biso   1.000  C
  C44      1.0000 0.65420  0.99688  0.41830  Biso   1.000  C
  H29      1.0000 0.87580  0.47370  0.79040  Biso   1.000  H
  H30      1.0000 0.12420  0.52630  0.29040  Biso   1.000  H
  H31      1.0000 0.37580  0.02630  0.79040  Biso   1.000  H
  H32      1.0000 0.62420  0.97370  0.29040  Biso   1.000  H
  C45      1.0000 0.78910  0.79859  0.77830  Biso   1.000  C
  C46      1.0000 0.21090  0.20141  0.27830  Biso   1.000  C
  C47      1.0000 0.28910  0.70141  0.77830  Biso   1.000  C
  C48      1.0000 0.71090  0.29859  0.27830  Biso   1.000  C
  H33      1.0000 0.80910  0.83600  0.69910  Biso   1.000  H
  H34      1.0000 0.19090  0.16400  0.19910  Biso   1.000  H
  H35      1.0000 0.30910  0.66400  0.69910  Biso   1.000  H
  H36      1.0000 0.69090  0.33600  0.19910  Biso   1.000  H
  H37      1.0000 0.84580  0.79220  0.91010  Biso   1.000  H
  H38      1.0000 0.15420  0.20780  0.41010  Biso   1.000  H
  H39      1.0000 0.34580  0.70780  0.91010  Biso   1.000  H
  H40      1.0000 0.65420  0.29220  0.41010  Biso   1.000  H
  C49      1.0000 0.84700  0.58535  0.15160  Biso   1.000  C
  C50      1.0000 0.15300  0.41465  0.65160  Biso   1.000  C
  C51      1.0000 0.34700  0.91465  0.15160  Biso   1.000  C
  C52      1.0000 0.65300  0.08535  0.65160  Biso   1.000  C
  H41      1.0000 0.87940  0.62280  0.18190  Biso   1.000  H
  H42      1.0000 0.12060  0.37720  0.68190  Biso   1.000  H
  H43      1.0000 0.37940  0.87720  0.18190  Biso   1.000  H
  H44      1.0000 0.62060  0.12280  0.68190  Biso   1.000  H
  C53      1.0000 0.89230  0.55161  0.96820  Biso   1.000  C
  C54      1.0000 0.10770  0.44839  0.46820  Biso   1.000  C
  C55      1.0000 0.39230  0.94839  0.96820  Biso   1.000  C
  C56      1.0000 0.60770  0.05161  0.46820  Biso   1.000  C
  H45      1.0000 0.95580  0.56580  0.87540  Biso   1.000  H
  H46      1.0000 0.04420  0.43420  0.37540  Biso   1.000  H
  H47      1.0000 0.45580  0.93420  0.87540  Biso   1.000  H
  H48      1.0000 0.54420  0.06580  0.37540  Biso   1.000  H
  C57      1.0000 0.57820  0.82043  0.70000  Biso   1.000  C
  C58      1.0000 0.42180  0.17957  0.20000  Biso   1.000  C
  C59      1.0000 0.07820  0.67957  0.70000  Biso   1.000  C
  C60      1.0000 0.92180  0.32043  0.20000  Biso   1.000  C
  H49      1.0000 0.50170  0.82370  0.77680  Biso   1.000  H
  H50      1.0000 0.49830  0.17630  0.27680  Biso   1.000  H
  H51      1.0000 0.00170  0.67630  0.77680  Biso   1.000  H
  H52      1.0000 0.99830  0.32370  0.27680  Biso   1.000  H
  H53      1.0000 0.59900  0.85790  0.62640  Biso   1.000  H
  H54      1.0000 0.40100  0.14210  0.12640  Biso   1.000  H
  H55      1.0000 0.09900  0.64210  0.62640  Biso   1.000  H
  H56      1.0000 0.90100  0.35790  0.12640  Biso   1.000  H
  H57      1.0000 0.57560  0.79020  0.57490  Biso   1.000  H
  H58      1.0000 0.42440  0.20980  0.07490  Biso   1.000  H
  H59      1.0000 0.07560  0.70980  0.57490  Biso   1.000  H
  H60      1.0000 0.92440  0.29020  0.07490  Biso   1.000  H
  H61      1.0000 0.46700  0.62600  0.19300  Biso   1.000  H
  H62      1.0000 0.53300  0.37400  0.69300  Biso   1.000  H
  H63      1.0000 0.96700  0.87400  0.19300  Biso   1.000  H
  H64      1.0000 0.03300  0.12600  0.69300  Biso   1.000  H
