data_image0
_cell_length_a       4.994
_cell_length_b       17.034
_cell_length_c       10.723
_cell_angle_alpha    90
_cell_angle_beta     94.65
_cell_angle_gamma    90

_symmetry_space_group_name_H-M    "P 1"
_symmetry_int_tables_number       1

loop_
  _symmetry_equiv_pos_as_xyz
  'x, y, z'

loop_
  _atom_site_label
  _atom_site_occupancy
  _atom_site_fract_x
  _atom_site_fract_y
  _atom_site_fract_z
  _atom_site_thermal_displace_type
  _atom_site_B_iso_or_equiv
  _atom_site_type_symbol
  C1       1.0000 0.79300  0.14470  0.09600  Biso   1.000  C
  C2       1.0000 0.70700  0.64470  0.40400  Biso   1.000  C
  C3       1.0000 0.20700  0.85530  0.90400  Biso   1.000  C
  C4       1.0000 0.29300  0.35530  0.59600  Biso   1.000  C
  H1       1.0000 0.69080  0.19030  0.08770  Biso   1.000  H
  H2       1.0000 0.80920  0.69030  0.41230  Biso   1.000  H
  H3       1.0000 0.30920  0.80970  0.91230  Biso   1.000  H
  H4       1.0000 0.19080  0.30970  0.58770  Biso   1.000  H
  C5       1.0000 0.90460  0.12450  0.22020  Biso   1.000  C
  C6       1.0000 0.59540  0.62450  0.27980  Biso   1.000  C
  C7       1.0000 0.09540  0.87550  0.77980  Biso   1.000  C
  C8       1.0000 0.40460  0.37550  0.72020  Biso   1.000  C
  C9       1.0000 0.11760  0.06880  0.24160  Biso   1.000  C
  C10      1.0000 0.38240  0.56880  0.25840  Biso   1.000  C
  C11      1.0000 0.88240  0.93120  0.75840  Biso   1.000  C
  C12      1.0000 0.61760  0.43120  0.74160  Biso   1.000  C
  C13      1.0000 0.22400  0.05840  0.36580  Biso   1.000  C
  C14      1.0000 0.27600  0.55840  0.13420  Biso   1.000  C
  C15      1.0000 0.77600  0.94160  0.63420  Biso   1.000  C
  C16      1.0000 0.72400  0.44160  0.86580  Biso   1.000  C
  H5       1.0000 0.37430  0.02670  0.38200  Biso   1.000  H
  H6       1.0000 0.12570  0.52670  0.11800  Biso   1.000  H
  H7       1.0000 0.62570  0.97330  0.61800  Biso   1.000  H
  H8       1.0000 0.87430  0.47330  0.88200  Biso   1.000  H
  C17      1.0000 0.11360  0.09340  0.46250  Biso   1.000  C
  C18      1.0000 0.38640  0.59340  0.03750  Biso   1.000  C
  C19      1.0000 0.88640  0.90660  0.53750  Biso   1.000  C
  C20      1.0000 0.61360  0.40660  0.96250  Biso   1.000  C
  H9       1.0000 0.17930  0.08200  0.54410  Biso   1.000  H
  H10      1.0000 0.32070  0.58200  0.95590  Biso   1.000  H
  H11      1.0000 0.82070  0.91800  0.45590  Biso   1.000  H
  H12      1.0000 0.67930  0.41800  0.04410  Biso   1.000  H
  C21      1.0000 0.90000  0.14720  0.44100  Biso   1.000  C
  C22      1.0000 0.60000  0.64720  0.05900  Biso   1.000  C
  C23      1.0000 0.10000  0.85280  0.55900  Biso   1.000  C
  C24      1.0000 0.40000  0.35280  0.94100  Biso   1.000  C
  C25      1.0000 0.79470  0.16600  0.32050  Biso   1.000  C
  C26      1.0000 0.70530  0.66600  0.17950  Biso   1.000  C
  C27      1.0000 0.20530  0.83400  0.67950  Biso   1.000  C
  C28      1.0000 0.29470  0.33400  0.82050  Biso   1.000  C
  H13      1.0000 0.66050  0.20350  0.30600  Biso   1.000  H
  H14      1.0000 0.83950  0.70350  0.19400  Biso   1.000  H
  H15      1.0000 0.33950  0.79650  0.69400  Biso   1.000  H
  H16      1.0000 0.16050  0.29650  0.80600  Biso   1.000  H
  C29      1.0000 0.70950  0.13870  0.87990  Biso   1.000  C
  C30      1.0000 0.79050  0.63870  0.62010  Biso   1.000  C
  C31      1.0000 0.29050  0.86130  0.12010  Biso   1.000  C
  C32      1.0000 0.20950  0.36130  0.37990  Biso   1.000  C
  H17      1.0000 0.79540  0.11460  0.81150  Biso   1.000  H
  H18      1.0000 0.70460  0.61460  0.68850  Biso   1.000  H
  H19      1.0000 0.20460  0.88540  0.18850  Biso   1.000  H
  H20      1.0000 0.29540  0.38540  0.31150  Biso   1.000  H
  H21      1.0000 0.75330  0.19420  0.88000  Biso   1.000  H
  H22      1.0000 0.74670  0.69420  0.62000  Biso   1.000  H
  H23      1.0000 0.24670  0.80580  0.12000  Biso   1.000  H
  H24      1.0000 0.25330  0.30580  0.38000  Biso   1.000  H
  C33      1.0000 0.40660  0.13000  0.85410  Biso   1.000  C
  C34      1.0000 0.09340  0.63000  0.64590  Biso   1.000  C
  C35      1.0000 0.59340  0.87000  0.14590  Biso   1.000  C
  C36      1.0000 0.90660  0.37000  0.35410  Biso   1.000  C
  H25      1.0000 0.31770  0.15550  0.92030  Biso   1.000  H
  H26      1.0000 0.18230  0.65550  0.57970  Biso   1.000  H
  H27      1.0000 0.68230  0.84450  0.07970  Biso   1.000  H
  H28      1.0000 0.81770  0.34450  0.42030  Biso   1.000  H
  H29      1.0000 0.34950  0.15600  0.77600  Biso   1.000  H
  H30      1.0000 0.15050  0.65600  0.72400  Biso   1.000  H
  H31      1.0000 0.65050  0.84400  0.22400  Biso   1.000  H
  H32      1.0000 0.84950  0.34400  0.27600  Biso   1.000  H
  Cl1      1.0000 0.75670  0.19293  0.56544  Biso   1.000  Cl
  Cl2      1.0000 0.74330  0.69293  0.93456  Biso   1.000  Cl
  Cl3      1.0000 0.24330  0.80707  0.43456  Biso   1.000  Cl
  Cl4      1.0000 0.25670  0.30707  0.06544  Biso   1.000  Cl
  Cu1      1.0000 0.00000  0.00000  0.00000  Biso   1.000  Cu
  Cu2      1.0000 0.50000  0.50000  0.50000  Biso   1.000  Cu
  O1       1.0000 0.22380  0.03230  0.14960  Biso   1.000  O
  O2       1.0000 0.27620  0.53230  0.35040  Biso   1.000  O
  O3       1.0000 0.77620  0.96770  0.85040  Biso   1.000  O
  O4       1.0000 0.72380  0.46770  0.64960  Biso   1.000  O
  N1       1.0000 0.82230  0.10500  0.99520  Biso   1.000  N
  N2       1.0000 0.67770  0.60500  0.50480  Biso   1.000  N
  N3       1.0000 0.17770  0.89500  0.00480  Biso   1.000  N
  N4       1.0000 0.32230  0.39500  0.49520  Biso   1.000  N
  O5       1.0000 0.32720  0.04870  0.84670  Biso   1.000  O
  O6       1.0000 0.17280  0.54870  0.65330  Biso   1.000  O
  O7       1.0000 0.67280  0.95130  0.15330  Biso   1.000  O
  O8       1.0000 0.82720  0.45130  0.34670  Biso   1.000  O
  H33      1.0000 0.39810  0.01260  0.78360  Biso   1.000  H
  H34      1.0000 0.10190  0.51260  0.71640  Biso   1.000  H
  H35      1.0000 0.60190  0.98740  0.21640  Biso   1.000  H
  H36      1.0000 0.89810  0.48740  0.28360  Biso   1.000  H
