data_image0
_cell_length_a       4.9393
_cell_length_b       16.7975
_cell_length_c       10.7076
_cell_angle_alpha    90
_cell_angle_beta     94.593
_cell_angle_gamma    90

_symmetry_space_group_name_H-M    "P 1"
_symmetry_int_tables_number       1

loop_
  _symmetry_equiv_pos_as_xyz
  'x, y, z'

loop_
  _atom_site_label
  _atom_site_occupancy
  _atom_site_fract_x
  _atom_site_fract_y
  _atom_site_fract_z
  _atom_site_thermal_displace_type
  _atom_site_B_iso_or_equiv
  _atom_site_type_symbol
  Cu1      1.0000 0.50000  0.50000  0.50000  Biso   1.000  Cu
  Cu2      1.0000 0.00000  0.00000  0.00000  Biso   1.000  Cu
  Cl1      1.0000 0.75558  0.69279  0.93230  Biso   1.000  Cl
  Cl2      1.0000 0.74442  0.19279  0.56770  Biso   1.000  Cl
  Cl3      1.0000 0.24442  0.30721  0.06770  Biso   1.000  Cl
  Cl4      1.0000 0.25558  0.80721  0.43230  Biso   1.000  Cl
  O1       1.0000 0.81690  0.45070  0.34606  Biso   1.000  O
  O2       1.0000 0.68310  0.95070  0.15394  Biso   1.000  O
  O3       1.0000 0.18310  0.54930  0.65394  Biso   1.000  O
  O4       1.0000 0.31690  0.04930  0.84606  Biso   1.000  O
  H1       1.0000 0.94980  0.47960  0.34220  Biso   1.000  H
  H2       1.0000 0.55020  0.97960  0.15780  Biso   1.000  H
  H3       1.0000 0.05020  0.52040  0.65780  Biso   1.000  H
  H4       1.0000 0.44980  0.02040  0.84220  Biso   1.000  H
  O5       1.0000 0.27410  0.53430  0.35136  Biso   1.000  O
  O6       1.0000 0.22590  0.03430  0.14864  Biso   1.000  O
  O7       1.0000 0.72590  0.46570  0.64864  Biso   1.000  O
  O8       1.0000 0.77410  0.96570  0.85136  Biso   1.000  O
  C1       1.0000 0.38210  0.57086  0.25884  Biso   1.000  C
  C2       1.0000 0.11790  0.07086  0.24116  Biso   1.000  C
  C3       1.0000 0.61790  0.42914  0.74116  Biso   1.000  C
  C4       1.0000 0.88210  0.92914  0.75884  Biso   1.000  C
  C5       1.0000 0.27920  0.55833  0.13330  Biso   1.000  C
  C6       1.0000 0.22080  0.05833  0.36670  Biso   1.000  C
  C7       1.0000 0.72080  0.44167  0.86670  Biso   1.000  C
  C8       1.0000 0.77920  0.94167  0.63330  Biso   1.000  C
  H5       1.0000 0.13190  0.52440  0.11700  Biso   1.000  H
  H6       1.0000 0.36810  0.02440  0.38300  Biso   1.000  H
  H7       1.0000 0.86810  0.47560  0.88300  Biso   1.000  H
  H8       1.0000 0.63190  0.97560  0.61700  Biso   1.000  H
  C9       1.0000 0.39140  0.59508  0.03430  Biso   1.000  C
  C10      1.0000 0.10860  0.09508  0.46570  Biso   1.000  C
  C11      1.0000 0.60860  0.40492  0.96570  Biso   1.000  C
  C12      1.0000 0.89140  0.90492  0.53430  Biso   1.000  C
  H9       1.0000 0.32290  0.58490  0.95250  Biso   1.000  H
  H10      1.0000 0.17710  0.08490  0.54750  Biso   1.000  H
  H11      1.0000 0.67710  0.41510  0.04750  Biso   1.000  H
  H12      1.0000 0.82290  0.91510  0.45250  Biso   1.000  H
  C13      1.0000 0.60730  0.64744  0.05765  Biso   1.000  C
  C14      1.0000 0.89270  0.14744  0.44235  Biso   1.000  C
  C15      1.0000 0.39270  0.35256  0.94235  Biso   1.000  C
  C16      1.0000 0.10730  0.85256  0.55765  Biso   1.000  C
  C17      1.0000 0.70970  0.66345  0.17854  Biso   1.000  C
  C18      1.0000 0.79030  0.16345  0.32146  Biso   1.000  C
  C19      1.0000 0.29030  0.33655  0.82146  Biso   1.000  C
  C20      1.0000 0.20970  0.83655  0.67854  Biso   1.000  C
  H13      1.0000 0.85140  0.69960  0.19300  Biso   1.000  H
  H14      1.0000 0.64860  0.19960  0.30700  Biso   1.000  H
  H15      1.0000 0.14860  0.30040  0.80700  Biso   1.000  H
  H16      1.0000 0.35140  0.80040  0.69300  Biso   1.000  H
  C21      1.0000 0.60110  0.62549  0.27978  Biso   1.000  C
  C22      1.0000 0.89890  0.12549  0.22022  Biso   1.000  C
  C23      1.0000 0.39890  0.37451  0.72022  Biso   1.000  C
  C24      1.0000 0.10110  0.87451  0.77978  Biso   1.000  C
  C25      1.0000 0.71260  0.64616  0.40500  Biso   1.000  C
  C26      1.0000 0.78740  0.14616  0.09500  Biso   1.000  C
  C27      1.0000 0.28740  0.35384  0.59500  Biso   1.000  C
  C28      1.0000 0.21260  0.85384  0.90500  Biso   1.000  C
  H17      1.0000 0.81700  0.69220  0.41380  Biso   1.000  H
  H18      1.0000 0.68300  0.19220  0.08620  Biso   1.000  H
  H19      1.0000 0.18300  0.30780  0.58620  Biso   1.000  H
  H20      1.0000 0.31700  0.80780  0.91380  Biso   1.000  H
  N1       1.0000 0.67910  0.60628  0.50475  Biso   1.000  N
  N2       1.0000 0.82090  0.10628  0.99525  Biso   1.000  N
  N3       1.0000 0.32090  0.39372  0.49525  Biso   1.000  N
  N4       1.0000 0.17910  0.89372  0.00475  Biso   1.000  N
  C29      1.0000 0.79300  0.64130  0.62413  Biso   1.000  C
  C30      1.0000 0.70700  0.14130  0.87587  Biso   1.000  C
  C31      1.0000 0.20700  0.35870  0.37587  Biso   1.000  C
  C32      1.0000 0.29300  0.85870  0.12413  Biso   1.000  C
  H21      1.0000 0.70530  0.61710  0.69260  Biso   1.000  H
  H22      1.0000 0.79470  0.11710  0.80740  Biso   1.000  H
  H23      1.0000 0.29470  0.38290  0.30740  Biso   1.000  H
  H24      1.0000 0.20530  0.88290  0.19260  Biso   1.000  H
  H25      1.0000 0.75220  0.69780  0.62410  Biso   1.000  H
  H26      1.0000 0.74780  0.19780  0.87590  Biso   1.000  H
  H27      1.0000 0.24780  0.30220  0.37590  Biso   1.000  H
  H28      1.0000 0.25220  0.80220  0.12410  Biso   1.000  H
  C33      1.0000 0.09780  0.63008  0.64680  Biso   1.000  C
  C34      1.0000 0.40220  0.13008  0.85320  Biso   1.000  C
  C35      1.0000 0.90220  0.36992  0.35320  Biso   1.000  C
  C36      1.0000 0.59780  0.86992  0.14680  Biso   1.000  C
  H29      1.0000 0.81490  0.34410  0.42040  Biso   1.000  H
  H30      1.0000 0.68510  0.84410  0.07960  Biso   1.000  H
  H31      1.0000 0.18510  0.65590  0.57960  Biso   1.000  H
  H32      1.0000 0.31490  0.15590  0.92040  Biso   1.000  H
  H33      1.0000 0.84040  0.34340  0.27560  Biso   1.000  H
  H34      1.0000 0.65960  0.84340  0.22440  Biso   1.000  H
  H35      1.0000 0.15960  0.65660  0.72440  Biso   1.000  H
  H36      1.0000 0.34040  0.15660  0.77560  Biso   1.000  H
