data_image0
_cell_length_a       8.747
_cell_length_b       14.695
_cell_length_c       16.669
_cell_angle_alpha    90
_cell_angle_beta     90.34
_cell_angle_gamma    90

_symmetry_space_group_name_H-M    "P 1"
_symmetry_int_tables_number       1

loop_
  _symmetry_equiv_pos_as_xyz
  'x, y, z'

loop_
  _atom_site_label
  _atom_site_occupancy
  _atom_site_fract_x
  _atom_site_fract_y
  _atom_site_fract_z
  _atom_site_thermal_displace_type
  _atom_site_B_iso_or_equiv
  _atom_site_type_symbol
  Cu1      1.0000 0.60941  0.28428  0.82004  Biso   1.000  Cu
  Cu2      1.0000 0.89059  0.78428  0.67996  Biso   1.000  Cu
  Cu3      1.0000 0.39059  0.71572  0.17996  Biso   1.000  Cu
  Cu4      1.0000 0.10941  0.21572  0.32004  Biso   1.000  Cu
  Cl1      1.0000 0.75480  0.41625  0.88499  Biso   1.000  Cl
  Cl2      1.0000 0.74520  0.91625  0.61501  Biso   1.000  Cl
  Cl3      1.0000 0.24520  0.58375  0.11501  Biso   1.000  Cl
  Cl4      1.0000 0.25480  0.08375  0.38499  Biso   1.000  Cl
  O1       1.0000 0.56029  0.21394  0.92098  Biso   1.000  O
  O2       1.0000 0.93971  0.71394  0.57902  Biso   1.000  O
  O3       1.0000 0.43971  0.78606  0.07902  Biso   1.000  O
  O4       1.0000 0.06029  0.28606  0.42098  Biso   1.000  O
  O5       1.0000 0.42999  0.13692  0.82832  Biso   1.000  O
  O6       1.0000 0.07001  0.63692  0.67168  Biso   1.000  O
  O7       1.0000 0.57001  0.86308  0.17168  Biso   1.000  O
  O8       1.0000 0.92999  0.36308  0.32832  Biso   1.000  O
  C1       1.0000 0.38410  0.10059  0.96437  Biso   1.000  C
  C2       1.0000 0.11590  0.60059  0.53563  Biso   1.000  C
  C3       1.0000 0.61590  0.89941  0.03563  Biso   1.000  C
  C4       1.0000 0.88410  0.39941  0.46437  Biso   1.000  C
  C5       1.0000 0.31720  0.01693  0.94612  Biso   1.000  C
  C6       1.0000 0.18280  0.51693  0.55388  Biso   1.000  C
  C7       1.0000 0.68280  0.98307  0.05388  Biso   1.000  C
  C8       1.0000 0.81720  0.48307  0.44612  Biso   1.000  C
  H1       1.0000 0.32340  0.99390  0.89430  Biso   1.000  H
  H2       1.0000 0.17660  0.49390  0.60570  Biso   1.000  H
  H3       1.0000 0.67660  0.00610  0.10570  Biso   1.000  H
  H4       1.0000 0.82340  0.50610  0.39430  Biso   1.000  H
  C9       1.0000 0.46420  0.15248  0.89923  Biso   1.000  C
  C10      1.0000 0.03580  0.65248  0.60077  Biso   1.000  C
  C11      1.0000 0.53580  0.84752  0.10077  Biso   1.000  C
  C12      1.0000 0.96420  0.34752  0.39923  Biso   1.000  C
  C13      1.0000 0.22670  0.00420  0.08141  Biso   1.000  C
  C14      1.0000 0.27330  0.50420  0.41859  Biso   1.000  C
  C15      1.0000 0.77330  0.99580  0.91859  Biso   1.000  C
  C16      1.0000 0.72670  0.49580  0.58141  Biso   1.000  C
  H5       1.0000 0.17580  0.97110  0.12060  Biso   1.000  H
  H6       1.0000 0.32420  0.47110  0.37940  Biso   1.000  H
  H7       1.0000 0.82420  0.02890  0.87940  Biso   1.000  H
  H8       1.0000 0.67580  0.52890  0.62060  Biso   1.000  H
  C17      1.0000 0.37030  0.13562  0.04184  Biso   1.000  C
  C18      1.0000 0.12970  0.63562  0.45816  Biso   1.000  C
  C19      1.0000 0.62970  0.86438  0.95816  Biso   1.000  C
  C20      1.0000 0.87030  0.36438  0.54184  Biso   1.000  C
  H9       1.0000 0.41740  0.19050  0.05470  Biso   1.000  H
  H10      1.0000 0.08260  0.69050  0.44530  Biso   1.000  H
  H11      1.0000 0.58260  0.80950  0.94530  Biso   1.000  H
  H12      1.0000 0.91740  0.30950  0.55470  Biso   1.000  H
  C21      1.0000 0.24170  0.96805  0.00484  Biso   1.000  C
  C22      1.0000 0.25830  0.46805  0.49516  Biso   1.000  C
  C23      1.0000 0.75830  0.03195  0.99516  Biso   1.000  C
  C24      1.0000 0.74170  0.53195  0.50484  Biso   1.000  C
  H13      1.0000 0.20110  0.91110  0.99300  Biso   1.000  H
  H14      1.0000 0.29890  0.41110  0.50700  Biso   1.000  H
  H15      1.0000 0.79890  0.08890  0.00700  Biso   1.000  H
  H16      1.0000 0.70110  0.58890  0.49300  Biso   1.000  H
  C25      1.0000 0.28700  0.08959  0.10020  Biso   1.000  C
  C26      1.0000 0.21300  0.58959  0.39980  Biso   1.000  C
  C27      1.0000 0.71300  0.91041  0.89980  Biso   1.000  C
  C28      1.0000 0.78700  0.41041  0.60020  Biso   1.000  C
  C29      1.0000 0.26430  0.12938  0.18299  Biso   1.000  C
  C30      1.0000 0.23570  0.62938  0.31701  Biso   1.000  C
  C31      1.0000 0.73570  0.87062  0.81701  Biso   1.000  C
  C32      1.0000 0.76430  0.37062  0.68299  Biso   1.000  C
  H17      1.0000 0.35120  0.16800  0.19540  Biso   1.000  H
  H18      1.0000 0.14880  0.66800  0.30460  Biso   1.000  H
  H19      1.0000 0.64880  0.83200  0.80460  Biso   1.000  H
  H20      1.0000 0.85120  0.33200  0.69540  Biso   1.000  H
  H21      1.0000 0.26460  0.07990  0.22150  Biso   1.000  H
  H22      1.0000 0.23540  0.57990  0.27850  Biso   1.000  H
  H23      1.0000 0.73540  0.92010  0.77850  Biso   1.000  H
  H24      1.0000 0.76460  0.42010  0.72150  Biso   1.000  H
  N1       1.0000 0.11922  0.18456  0.19469  Biso   1.000  N
  N2       1.0000 0.38078  0.68456  0.30531  Biso   1.000  N
  N3       1.0000 0.88078  0.81544  0.80531  Biso   1.000  N
  N4       1.0000 0.61922  0.31544  0.69469  Biso   1.000  N
  C33      1.0000 0.12150  0.26911  0.14330  Biso   1.000  C
  C34      1.0000 0.37850  0.76911  0.35670  Biso   1.000  C
  C35      1.0000 0.87850  0.73089  0.85670  Biso   1.000  C
  C36      1.0000 0.62150  0.23089  0.64330  Biso   1.000  C
  H25      1.0000 0.01990  0.27880  0.12130  Biso   1.000  H
  H26      1.0000 0.48010  0.77880  0.37870  Biso   1.000  H
  H27      1.0000 0.98010  0.72120  0.87870  Biso   1.000  H
  H28      1.0000 0.51990  0.22120  0.62130  Biso   1.000  H
  H29      1.0000 0.19010  0.25910  0.09870  Biso   1.000  H
  H30      1.0000 0.30990  0.75910  0.40130  Biso   1.000  H
  H31      1.0000 0.80990  0.74090  0.90130  Biso   1.000  H
  H32      1.0000 0.69010  0.24090  0.59870  Biso   1.000  H
  C37      1.0000 0.98370  0.12962  0.16977  Biso   1.000  C
  C38      1.0000 0.51630  0.62962  0.33023  Biso   1.000  C
  C39      1.0000 0.01630  0.87038  0.83023  Biso   1.000  C
  C40      1.0000 0.48370  0.37038  0.66977  Biso   1.000  C
  H33      1.0000 0.99630  0.06770  0.18880  Biso   1.000  H
  H34      1.0000 0.50370  0.56770  0.31120  Biso   1.000  H
  H35      1.0000 0.00370  0.93230  0.81120  Biso   1.000  H
  H36      1.0000 0.49630  0.43230  0.68880  Biso   1.000  H
  H37      1.0000 0.97800  0.12790  0.11170  Biso   1.000  H
  H38      1.0000 0.52200  0.62790  0.38830  Biso   1.000  H
  H39      1.0000 0.02200  0.87210  0.88830  Biso   1.000  H
  H40      1.0000 0.47800  0.37210  0.61170  Biso   1.000  H
  C41      1.0000 0.17150  0.35513  0.18758  Biso   1.000  C
  C42      1.0000 0.32850  0.85513  0.31242  Biso   1.000  C
  C43      1.0000 0.82850  0.64487  0.81242  Biso   1.000  C
  C44      1.0000 0.67150  0.14487  0.68758  Biso   1.000  C
  H41      1.0000 0.18890  0.40280  0.14840  Biso   1.000  H
  H42      1.0000 0.31110  0.90280  0.35160  Biso   1.000  H
  H43      1.0000 0.81110  0.59720  0.85160  Biso   1.000  H
  H44      1.0000 0.68890  0.09720  0.64840  Biso   1.000  H
  H45      1.0000 0.08850  0.37480  0.22180  Biso   1.000  H
  H46      1.0000 0.41150  0.87480  0.27820  Biso   1.000  H
  H47      1.0000 0.91150  0.62520  0.77820  Biso   1.000  H
  H48      1.0000 0.58850  0.12520  0.72180  Biso   1.000  H
  C45      1.0000 0.83400  0.16837  0.20268  Biso   1.000  C
  C46      1.0000 0.66600  0.66837  0.29732  Biso   1.000  C
  C47      1.0000 0.16600  0.83163  0.79732  Biso   1.000  C
  C48      1.0000 0.33400  0.33163  0.70268  Biso   1.000  C
  H49      1.0000 0.84050  0.23420  0.20460  Biso   1.000  H
  H50      1.0000 0.65950  0.73420  0.29540  Biso   1.000  H
  H51      1.0000 0.15950  0.76580  0.79540  Biso   1.000  H
  H52      1.0000 0.34050  0.26580  0.70460  Biso   1.000  H
  H53      1.0000 0.75030  0.15210  0.16700  Biso   1.000  H
  H54      1.0000 0.74970  0.65210  0.33300  Biso   1.000  H
  H55      1.0000 0.24970  0.84790  0.83300  Biso   1.000  H
  H56      1.0000 0.25030  0.34790  0.66700  Biso   1.000  H
  C49      1.0000 0.31260  0.34464  0.23786  Biso   1.000  C
  C50      1.0000 0.18740  0.84464  0.26214  Biso   1.000  C
  C51      1.0000 0.68740  0.65536  0.76214  Biso   1.000  C
  C52      1.0000 0.81260  0.15536  0.73786  Biso   1.000  C
  N5       1.0000 0.29974  0.29059  0.30327  Biso   1.000  N
  N6       1.0000 0.20026  0.79059  0.19673  Biso   1.000  N
  N7       1.0000 0.70026  0.70941  0.69673  Biso   1.000  N
  N8       1.0000 0.79974  0.20941  0.80327  Biso   1.000  N
  C53      1.0000 0.45040  0.38715  0.21984  Biso   1.000  C
  C54      1.0000 0.04960  0.88715  0.28016  Biso   1.000  C
  C55      1.0000 0.54960  0.61285  0.78016  Biso   1.000  C
  C56      1.0000 0.95040  0.11285  0.71984  Biso   1.000  C
  H57      1.0000 0.45820  0.42360  0.17450  Biso   1.000  H
  H58      1.0000 0.04180  0.92360  0.32550  Biso   1.000  H
  H59      1.0000 0.54180  0.57640  0.82550  Biso   1.000  H
  H60      1.0000 0.95820  0.07640  0.67450  Biso   1.000  H
  C57      1.0000 0.42070  0.28078  0.35264  Biso   1.000  C
  C58      1.0000 0.07930  0.78078  0.14736  Biso   1.000  C
  C59      1.0000 0.57930  0.71922  0.64736  Biso   1.000  C
  C60      1.0000 0.92070  0.21922  0.85264  Biso   1.000  C
  H61      1.0000 0.41050  0.24500  0.39830  Biso   1.000  H
  H62      1.0000 0.08950  0.74500  0.10170  Biso   1.000  H
  H63      1.0000 0.58950  0.75500  0.60170  Biso   1.000  H
  H64      1.0000 0.91050  0.25500  0.89830  Biso   1.000  H
  C61      1.0000 0.57580  0.37485  0.26990  Biso   1.000  C
  C62      1.0000 0.92420  0.87485  0.23010  Biso   1.000  C
  C63      1.0000 0.42420  0.62515  0.73010  Biso   1.000  C
  C64      1.0000 0.07580  0.12515  0.76990  Biso   1.000  C
  H65      1.0000 0.66920  0.40170  0.25790  Biso   1.000  H
  H66      1.0000 0.83080  0.90170  0.24210  Biso   1.000  H
  H67      1.0000 0.33080  0.59830  0.74210  Biso   1.000  H
  H68      1.0000 0.16920  0.09830  0.75790  Biso   1.000  H
  C65      1.0000 0.55980  0.32213  0.33778  Biso   1.000  C
  C66      1.0000 0.94020  0.82213  0.16222  Biso   1.000  C
  C67      1.0000 0.44020  0.67787  0.66222  Biso   1.000  C
  C68      1.0000 0.05980  0.17787  0.83778  Biso   1.000  C
  H69      1.0000 0.64140  0.31450  0.37310  Biso   1.000  H
  H70      1.0000 0.85860  0.81450  0.12690  Biso   1.000  H
  H71      1.0000 0.35860  0.68550  0.62690  Biso   1.000  H
  H72      1.0000 0.14140  0.18550  0.87310  Biso   1.000  H
  C69      1.0000 0.80270  0.13241  0.28487  Biso   1.000  C
  C70      1.0000 0.69730  0.63241  0.21513  Biso   1.000  C
  C71      1.0000 0.19730  0.86759  0.71513  Biso   1.000  C
  C72      1.0000 0.30270  0.36759  0.78487  Biso   1.000  C
  C73      1.0000 0.67040  0.08465  0.30328  Biso   1.000  C
  C74      1.0000 0.82960  0.58465  0.19672  Biso   1.000  C
  C75      1.0000 0.32960  0.91535  0.69672  Biso   1.000  C
  C76      1.0000 0.17040  0.41535  0.80328  Biso   1.000  C
  H73      1.0000 0.59520  0.07590  0.26430  Biso   1.000  H
  H74      1.0000 0.90480  0.57590  0.23570  Biso   1.000  H
  H75      1.0000 0.40480  0.92410  0.73570  Biso   1.000  H
  H76      1.0000 0.09520  0.42410  0.76430  Biso   1.000  H
  C77      1.0000 0.65090  0.05011  0.37971  Biso   1.000  C
  C78      1.0000 0.84910  0.55011  0.12029  Biso   1.000  C
  C79      1.0000 0.34910  0.94989  0.62029  Biso   1.000  C
  C80      1.0000 0.15090  0.44989  0.87971  Biso   1.000  C
  H77      1.0000 0.56290  0.01790  0.39260  Biso   1.000  H
  H78      1.0000 0.93710  0.51790  0.10740  Biso   1.000  H
  H79      1.0000 0.43710  0.98210  0.60740  Biso   1.000  H
  H80      1.0000 0.06290  0.48210  0.89260  Biso   1.000  H
  C81      1.0000 0.76380  0.06409  0.43656  Biso   1.000  C
  C82      1.0000 0.73620  0.56409  0.06344  Biso   1.000  C
  C83      1.0000 0.23620  0.93591  0.56344  Biso   1.000  C
  C84      1.0000 0.26380  0.43591  0.93656  Biso   1.000  C
  H81      1.0000 0.75330  0.04150  0.48840  Biso   1.000  H
  H82      1.0000 0.74670  0.54150  0.01160  Biso   1.000  H
  H83      1.0000 0.24670  0.95850  0.51160  Biso   1.000  H
  H84      1.0000 0.25330  0.45850  0.98840  Biso   1.000  H
  C85      1.0000 0.89210  0.11215  0.41494  Biso   1.000  C
  C86      1.0000 0.60790  0.61215  0.08506  Biso   1.000  C
  C87      1.0000 0.10790  0.88785  0.58506  Biso   1.000  C
  C88      1.0000 0.39210  0.38785  0.91494  Biso   1.000  C
  H85      1.0000 0.96780  0.12190  0.45340  Biso   1.000  H
  H86      1.0000 0.53220  0.62190  0.04660  Biso   1.000  H
  H87      1.0000 0.03220  0.87810  0.54660  Biso   1.000  H
  H88      1.0000 0.46780  0.37810  0.95340  Biso   1.000  H
  N9       1.0000 0.91320  0.14570  0.34055  Biso   1.000  N
  N10      1.0000 0.58680  0.64570  0.15945  Biso   1.000  N
  N11      1.0000 0.08680  0.85430  0.65945  Biso   1.000  N
  N12      1.0000 0.41320  0.35430  0.84055  Biso   1.000  N
  O9       1.0000 0.74770  0.28720  0.04613  Biso   1.000  O
  O10      1.0000 0.75230  0.78720  0.45387  Biso   1.000  O
  O11      1.0000 0.25230  0.71280  0.95387  Biso   1.000  O
  O12      1.0000 0.24770  0.21280  0.54613  Biso   1.000  O
  H89      1.0000 0.75200  0.33700  0.03000  Biso   1.000  H
  H90      1.0000 0.74800  0.83700  0.47000  Biso   1.000  H
  H91      1.0000 0.24800  0.66300  0.97000  Biso   1.000  H
  H92      1.0000 0.25200  0.16300  0.53000  Biso   1.000  H
  H93      1.0000 0.68800  0.24800  0.02800  Biso   1.000  H
  H94      1.0000 0.81200  0.74800  0.47200  Biso   1.000  H
  H95      1.0000 0.31200  0.75200  0.97200  Biso   1.000  H
  H96      1.0000 0.18800  0.25200  0.52800  Biso   1.000  H
