data_image0
_cell_length_a       10.915
_cell_length_b       7.871
_cell_length_c       12.336
_cell_angle_alpha    90
_cell_angle_beta     90
_cell_angle_gamma    90

_symmetry_space_group_name_H-M    "P 1"
_symmetry_int_tables_number       1

loop_
  _symmetry_equiv_pos_as_xyz
  'x, y, z'

loop_
  _atom_site_label
  _atom_site_occupancy
  _atom_site_fract_x
  _atom_site_fract_y
  _atom_site_fract_z
  _atom_site_thermal_displace_type
  _atom_site_B_iso_or_equiv
  _atom_site_type_symbol
  Cu1      1.0000 0.10934  0.25000  0.11288  Biso   1.000  Cu
  Cu2      1.0000 0.39066  0.75000  0.61288  Biso   1.000  Cu
  Cu3      1.0000 0.60934  0.25000  0.38712  Biso   1.000  Cu
  Cu4      1.0000 0.89066  0.75000  0.88712  Biso   1.000  Cu
  S1       1.0000 0.84050  0.25000  0.16730  Biso   1.000  S
  S2       1.0000 0.65950  0.75000  0.66730  Biso   1.000  S
  S3       1.0000 0.34050  0.25000  0.33270  Biso   1.000  S
  S4       1.0000 0.15950  0.75000  0.83270  Biso   1.000  S
  O1       1.0000 0.97230  0.25000  0.21060  Biso   1.000  O
  O2       1.0000 0.52770  0.75000  0.71060  Biso   1.000  O
  O3       1.0000 0.47230  0.25000  0.28940  Biso   1.000  O
  O4       1.0000 0.02770  0.75000  0.78940  Biso   1.000  O
  O5       1.0000 0.25820  0.25000  0.24120  Biso   1.000  O
  O6       1.0000 0.24180  0.75000  0.74120  Biso   1.000  O
  O7       1.0000 0.75820  0.25000  0.25880  Biso   1.000  O
  O8       1.0000 0.74180  0.75000  0.75880  Biso   1.000  O
  O9       1.0000 0.82270  0.40140  0.10080  Biso   1.000  O
  O10      1.0000 0.67730  0.59860  0.60080  Biso   1.000  O
  O11      1.0000 0.32270  0.09860  0.39920  Biso   1.000  O
  O12      1.0000 0.17730  0.90140  0.89920  Biso   1.000  O
  O13      1.0000 0.17730  0.59860  0.89920  Biso   1.000  O
  O14      1.0000 0.32270  0.40140  0.39920  Biso   1.000  O
  O15      1.0000 0.67730  0.90140  0.60080  Biso   1.000  O
  O16      1.0000 0.82270  0.09860  0.10080  Biso   1.000  O
  O17      1.0000 0.10510  0.50120  0.09950  Biso   1.000  O
  O18      1.0000 0.39490  0.49880  0.59950  Biso   1.000  O
  O19      1.0000 0.60510  0.99880  0.40050  Biso   1.000  O
  O20      1.0000 0.89490  0.00120  0.90050  Biso   1.000  O
  O21      1.0000 0.89490  0.49880  0.90050  Biso   1.000  O
  O22      1.0000 0.60510  0.50120  0.40050  Biso   1.000  O
  O23      1.0000 0.39490  0.00120  0.59950  Biso   1.000  O
  O24      1.0000 0.10510  0.99880  0.09950  Biso   1.000  O
  O25      1.0000 0.23060  0.25000  0.99740  Biso   1.000  O
  O26      1.0000 0.26940  0.75000  0.49740  Biso   1.000  O
  O27      1.0000 0.73060  0.25000  0.50260  Biso   1.000  O
  O28      1.0000 0.76940  0.75000  0.00260  Biso   1.000  O
  O29      1.0000 0.07150  0.25000  0.88400  Biso   1.000  O
  O30      1.0000 0.42850  0.75000  0.38400  Biso   1.000  O
  O31      1.0000 0.57150  0.25000  0.61600  Biso   1.000  O
  O32      1.0000 0.92850  0.75000  0.11600  Biso   1.000  O
  C1       1.0000 0.18350  0.25000  0.90470  Biso   1.000  C
  C2       1.0000 0.31650  0.75000  0.40470  Biso   1.000  C
  C3       1.0000 0.68350  0.25000  0.59530  Biso   1.000  C
  C4       1.0000 0.81650  0.75000  0.09530  Biso   1.000  C
  C5       1.0000 0.26780  0.25000  0.80670  Biso   1.000  C
  C6       1.0000 0.23220  0.75000  0.30670  Biso   1.000  C
  C7       1.0000 0.76780  0.25000  0.69330  Biso   1.000  C
  C8       1.0000 0.73220  0.75000  0.19330  Biso   1.000  C
  N1       1.0000 0.39870  0.25000  0.84000  Biso   1.000  N
  N2       1.0000 0.10130  0.75000  0.34000  Biso   1.000  N
  N3       1.0000 0.89870  0.25000  0.66000  Biso   1.000  N
  N4       1.0000 0.60130  0.75000  0.16000  Biso   1.000  N
  C9       1.0000 0.45340  0.40020  0.85680  Biso   1.000  C
  C10      1.0000 0.04660  0.59980  0.35680  Biso   1.000  C
  C11      1.0000 0.95340  0.09980  0.64320  Biso   1.000  C
  C12      1.0000 0.54660  0.90020  0.14320  Biso   1.000  C
  C13      1.0000 0.54660  0.59980  0.14320  Biso   1.000  C
  C14      1.0000 0.95340  0.40020  0.64320  Biso   1.000  C
  C15      1.0000 0.04660  0.90020  0.35680  Biso   1.000  C
  C16      1.0000 0.45340  0.09980  0.85680  Biso   1.000  C
  C17      1.0000 0.57200  0.40190  0.89700  Biso   1.000  C
  C18      1.0000 0.92800  0.59810  0.39700  Biso   1.000  C
  C19      1.0000 0.07200  0.09810  0.60300  Biso   1.000  C
  C20      1.0000 0.42800  0.90190  0.10300  Biso   1.000  C
  C21      1.0000 0.42800  0.59810  0.10300  Biso   1.000  C
  C22      1.0000 0.07200  0.40190  0.60300  Biso   1.000  C
  C23      1.0000 0.92800  0.90190  0.39700  Biso   1.000  C
  C24      1.0000 0.57200  0.09810  0.89700  Biso   1.000  C
  C25      1.0000 0.62830  0.25000  0.91890  Biso   1.000  C
  C26      1.0000 0.87170  0.75000  0.41890  Biso   1.000  C
  C27      1.0000 0.12830  0.25000  0.58110  Biso   1.000  C
  C28      1.0000 0.37170  0.75000  0.08110  Biso   1.000  C
