data_image0
_cell_length_a       20.0157
_cell_length_b       26.8932
_cell_length_c       26.989
_cell_angle_alpha    90
_cell_angle_beta     90
_cell_angle_gamma    90

_symmetry_space_group_name_H-M    "P 1"
_symmetry_int_tables_number       1

loop_
  _symmetry_equiv_pos_as_xyz
  'x, y, z'

loop_
  _atom_site_label
  _atom_site_occupancy
  _atom_site_fract_x
  _atom_site_fract_y
  _atom_site_fract_z
  _atom_site_thermal_displace_type
  _atom_site_B_iso_or_equiv
  _atom_site_type_symbol
  Cu1      1.0000 0.94621  0.75000  0.76724  Biso   1.000  Cu
  Cu2      1.0000 0.55379  0.25000  0.26724  Biso   1.000  Cu
  Cu3      1.0000 0.44621  0.75000  0.73276  Biso   1.000  Cu
  Cu4      1.0000 0.05379  0.25000  0.23276  Biso   1.000  Cu
  Cu5      1.0000 0.03128  0.75000  0.69135  Biso   1.000  Cu
  Cu6      1.0000 0.46872  0.25000  0.19135  Biso   1.000  Cu
  Cu7      1.0000 0.53128  0.75000  0.80865  Biso   1.000  Cu
  Cu8      1.0000 0.96872  0.25000  0.30865  Biso   1.000  Cu
  Cu9      1.0000 0.55324  0.25000  0.73264  Biso   1.000  Cu
  Cu10     1.0000 0.94676  0.75000  0.23264  Biso   1.000  Cu
  Cu11     1.0000 0.05324  0.25000  0.76736  Biso   1.000  Cu
  Cu12     1.0000 0.44676  0.75000  0.26736  Biso   1.000  Cu
  Cu13     1.0000 0.46699  0.25000  0.80634  Biso   1.000  Cu
  Cu14     1.0000 0.03301  0.75000  0.30634  Biso   1.000  Cu
  Cu15     1.0000 0.96699  0.25000  0.69366  Biso   1.000  Cu
  Cu16     1.0000 0.53301  0.75000  0.19366  Biso   1.000  Cu
  Cu17     1.0000 0.04399  0.53676  0.50014  Biso   1.000  Cu
  Cu18     1.0000 0.45601  0.46324  0.00014  Biso   1.000  Cu
  Cu19     1.0000 0.54399  0.96324  0.99986  Biso   1.000  Cu
  Cu20     1.0000 0.95601  0.03676  0.49986  Biso   1.000  Cu
  Cu21     1.0000 0.95601  0.46324  0.49986  Biso   1.000  Cu
  Cu22     1.0000 0.54399  0.53676  0.99986  Biso   1.000  Cu
  Cu23     1.0000 0.45601  0.03676  0.00014  Biso   1.000  Cu
  Cu24     1.0000 0.04399  0.96324  0.50014  Biso   1.000  Cu
  O1       1.0000 0.59850  0.30350  0.77050  Biso   1.000  O
  O2       1.0000 0.90150  0.69650  0.27050  Biso   1.000  O
  O3       1.0000 0.09850  0.19650  0.72950  Biso   1.000  O
  O4       1.0000 0.40150  0.80350  0.22950  Biso   1.000  O
  O5       1.0000 0.40150  0.69650  0.22950  Biso   1.000  O
  O6       1.0000 0.09850  0.30350  0.72950  Biso   1.000  O
  O7       1.0000 0.90150  0.80350  0.27050  Biso   1.000  O
  O8       1.0000 0.59850  0.19650  0.77050  Biso   1.000  O
  O9       1.0000 0.52440  0.30190  0.83560  Biso   1.000  O
  O10      1.0000 0.97560  0.69810  0.33560  Biso   1.000  O
  O11      1.0000 0.02440  0.19810  0.66440  Biso   1.000  O
  O12      1.0000 0.47560  0.80190  0.16440  Biso   1.000  O
  O13      1.0000 0.47560  0.69810  0.16440  Biso   1.000  O
  O14      1.0000 0.02440  0.30190  0.66440  Biso   1.000  O
  O15      1.0000 0.97560  0.80190  0.33560  Biso   1.000  O
  O16      1.0000 0.52440  0.19810  0.83560  Biso   1.000  O
  O17      1.0000 0.99280  0.30080  0.79320  Biso   1.000  O
  O18      1.0000 0.50720  0.69920  0.29320  Biso   1.000  O
  O19      1.0000 0.49280  0.19920  0.70680  Biso   1.000  O
  O20      1.0000 0.00720  0.80080  0.20680  Biso   1.000  O
  O21      1.0000 0.00720  0.69920  0.20680  Biso   1.000  O
  O22      1.0000 0.49280  0.30080  0.70680  Biso   1.000  O
  O23      1.0000 0.50720  0.80080  0.29320  Biso   1.000  O
  O24      1.0000 0.99280  0.19920  0.79320  Biso   1.000  O
  O25      1.0000 0.91850  0.30260  0.73040  Biso   1.000  O
  O26      1.0000 0.58150  0.69740  0.23040  Biso   1.000  O
  O27      1.0000 0.41850  0.19740  0.76960  Biso   1.000  O
  O28      1.0000 0.08150  0.80260  0.26960  Biso   1.000  O
  O29      1.0000 0.08150  0.69740  0.26960  Biso   1.000  O
  O30      1.0000 0.41850  0.30260  0.76960  Biso   1.000  O
  O31      1.0000 0.58150  0.80260  0.23040  Biso   1.000  O
  O32      1.0000 0.91850  0.19740  0.73040  Biso   1.000  O
  O33      1.0000 0.61760  0.25000  0.66860  Biso   1.000  O
  O34      1.0000 0.88240  0.75000  0.16860  Biso   1.000  O
  O35      1.0000 0.11760  0.25000  0.83140  Biso   1.000  O
  O36      1.0000 0.38240  0.75000  0.33140  Biso   1.000  O
  O37      1.0000 0.40760  0.25000  0.87480  Biso   1.000  O
  O38      1.0000 0.09240  0.75000  0.37480  Biso   1.000  O
  O39      1.0000 0.90760  0.25000  0.62520  Biso   1.000  O
  O40      1.0000 0.59240  0.75000  0.12520  Biso   1.000  O
  O41      1.0000 0.97310  0.69920  0.66760  Biso   1.000  O
  O42      1.0000 0.52690  0.30080  0.16760  Biso   1.000  O
  O43      1.0000 0.47310  0.80080  0.83240  Biso   1.000  O
  O44      1.0000 0.02690  0.19920  0.33240  Biso   1.000  O
  O45      1.0000 0.02690  0.30080  0.33240  Biso   1.000  O
  O46      1.0000 0.47310  0.69920  0.83240  Biso   1.000  O
  O47      1.0000 0.52690  0.19920  0.16760  Biso   1.000  O
  O48      1.0000 0.97310  0.80080  0.66760  Biso   1.000  O
  O49      1.0000 0.89860  0.69780  0.73060  Biso   1.000  O
  O50      1.0000 0.60140  0.30220  0.23060  Biso   1.000  O
  O51      1.0000 0.39860  0.80220  0.76940  Biso   1.000  O
  O52      1.0000 0.10140  0.19780  0.26940  Biso   1.000  O
  O53      1.0000 0.10140  0.30220  0.26940  Biso   1.000  O
  O54      1.0000 0.39860  0.69780  0.76940  Biso   1.000  O
  O55      1.0000 0.60140  0.19780  0.23060  Biso   1.000  O
  O56      1.0000 0.89860  0.80220  0.73060  Biso   1.000  O
  O57      1.0000 0.57700  0.69980  0.77050  Biso   1.000  O
  O58      1.0000 0.92300  0.30020  0.27050  Biso   1.000  O
  O59      1.0000 0.07700  0.80020  0.72950  Biso   1.000  O
  O60      1.0000 0.42300  0.19980  0.22950  Biso   1.000  O
  O61      1.0000 0.42300  0.30020  0.22950  Biso   1.000  O
  O62      1.0000 0.07700  0.69980  0.72950  Biso   1.000  O
  O63      1.0000 0.92300  0.19980  0.27050  Biso   1.000  O
  O64      1.0000 0.57700  0.80020  0.77050  Biso   1.000  O
  O65      1.0000 0.50760  0.70130  0.70630  Biso   1.000  O
  O66      1.0000 0.99240  0.29870  0.20630  Biso   1.000  O
  O67      1.0000 0.00760  0.79870  0.79370  Biso   1.000  O
  O68      1.0000 0.49240  0.20130  0.29370  Biso   1.000  O
  O69      1.0000 0.49240  0.29870  0.29370  Biso   1.000  O
  O70      1.0000 0.00760  0.70130  0.79370  Biso   1.000  O
  O71      1.0000 0.99240  0.20130  0.20630  Biso   1.000  O
  O72      1.0000 0.50760  0.79870  0.70630  Biso   1.000  O
  O73      1.0000 0.09780  0.75000  0.62890  Biso   1.000  O
  O74      1.0000 0.40220  0.25000  0.12890  Biso   1.000  O
  O75      1.0000 0.59780  0.75000  0.87110  Biso   1.000  O
  O76      1.0000 0.90220  0.25000  0.37110  Biso   1.000  O
  O77      1.0000 0.87940  0.75000  0.82710  Biso   1.000  O
  O78      1.0000 0.62060  0.25000  0.32710  Biso   1.000  O
  O79      1.0000 0.37940  0.75000  0.67290  Biso   1.000  O
  O80      1.0000 0.12060  0.25000  0.17290  Biso   1.000  O
  O81      1.0000 0.98400  0.56580  0.55060  Biso   1.000  O
  O82      1.0000 0.51600  0.43420  0.05060  Biso   1.000  O
  O83      1.0000 0.48400  0.93420  0.94940  Biso   1.000  O
  O84      1.0000 0.01600  0.06580  0.44940  Biso   1.000  O
  O85      1.0000 0.01600  0.43420  0.44940  Biso   1.000  O
  O86      1.0000 0.48400  0.56580  0.94940  Biso   1.000  O
  O87      1.0000 0.51600  0.06580  0.05060  Biso   1.000  O
  O88      1.0000 0.98400  0.93420  0.55060  Biso   1.000  O
  O89      1.0000 0.51260  0.43720  0.94890  Biso   1.000  O
  O90      1.0000 0.98740  0.56280  0.44890  Biso   1.000  O
  O91      1.0000 0.01260  0.06280  0.55110  Biso   1.000  O
  O92      1.0000 0.48740  0.93720  0.05110  Biso   1.000  O
  O93      1.0000 0.48740  0.56280  0.05110  Biso   1.000  O
  O94      1.0000 0.01260  0.43720  0.55110  Biso   1.000  O
  O95      1.0000 0.98740  0.93720  0.44890  Biso   1.000  O
  O96      1.0000 0.51260  0.06280  0.94890  Biso   1.000  O
  O97      1.0000 0.11590  0.59680  0.49810  Biso   1.000  O
  O98      1.0000 0.38410  0.40320  0.99810  Biso   1.000  O
  O99      1.0000 0.61590  0.90320  0.00190  Biso   1.000  O
  O100     1.0000 0.88410  0.09680  0.50190  Biso   1.000  O
  O101     1.0000 0.88410  0.40320  0.50190  Biso   1.000  O
  O102     1.0000 0.61590  0.59680  0.00190  Biso   1.000  O
  O103     1.0000 0.38410  0.09680  0.99810  Biso   1.000  O
  O104     1.0000 0.11590  0.90320  0.49810  Biso   1.000  O
  O105     1.0000 0.58720  0.49690  0.94820  Biso   1.000  O
  O106     1.0000 0.91280  0.50310  0.44820  Biso   1.000  O
  O107     1.0000 0.08720  0.00310  0.55180  Biso   1.000  O
  O108     1.0000 0.41280  0.99690  0.05180  Biso   1.000  O
  O109     1.0000 0.41280  0.50310  0.05180  Biso   1.000  O
  O110     1.0000 0.08720  0.49690  0.55180  Biso   1.000  O
  O111     1.0000 0.91280  0.99690  0.44820  Biso   1.000  O
  O112     1.0000 0.58720  0.00310  0.94820  Biso   1.000  O
  O113     1.0000 0.66590  0.57190  0.54620  Biso   1.000  O
  O114     1.0000 0.83410  0.42810  0.04620  Biso   1.000  O
  O115     1.0000 0.16590  0.92810  0.95380  Biso   1.000  O
  O116     1.0000 0.33410  0.07190  0.45380  Biso   1.000  O
  O117     1.0000 0.33410  0.42810  0.45380  Biso   1.000  O
  O118     1.0000 0.16590  0.57190  0.95380  Biso   1.000  O
  O119     1.0000 0.83410  0.07190  0.04620  Biso   1.000  O
  O120     1.0000 0.66590  0.92810  0.54620  Biso   1.000  O
  H1       1.0000 0.67180  0.57730  0.51580  Biso   1.000  H
  H2       1.0000 0.82820  0.42270  0.01580  Biso   1.000  H
  H3       1.0000 0.17180  0.92270  0.98420  Biso   1.000  H
  H4       1.0000 0.32820  0.07730  0.48420  Biso   1.000  H
  H5       1.0000 0.32820  0.42270  0.48420  Biso   1.000  H
  H6       1.0000 0.17180  0.57730  0.98420  Biso   1.000  H
  H7       1.0000 0.82820  0.07730  0.01580  Biso   1.000  H
  H8       1.0000 0.67180  0.92270  0.51580  Biso   1.000  H
  O121     1.0000 0.60250  0.64570  0.54710  Biso   1.000  O
  O122     1.0000 0.89750  0.35430  0.04710  Biso   1.000  O
  O123     1.0000 0.10250  0.85430  0.95290  Biso   1.000  O
  O124     1.0000 0.39750  0.14570  0.45290  Biso   1.000  O
  O125     1.0000 0.39750  0.35430  0.45290  Biso   1.000  O
  O126     1.0000 0.10250  0.64570  0.95290  Biso   1.000  O
  O127     1.0000 0.89750  0.14570  0.04710  Biso   1.000  O
  O128     1.0000 0.60250  0.85430  0.54710  Biso   1.000  O
  O129     1.0000 0.81560  0.40950  0.95440  Biso   1.000  O
  O130     1.0000 0.68440  0.59050  0.45440  Biso   1.000  O
  O131     1.0000 0.31560  0.09050  0.54560  Biso   1.000  O
  O132     1.0000 0.18440  0.90950  0.04560  Biso   1.000  O
  O133     1.0000 0.18440  0.59050  0.04560  Biso   1.000  O
  O134     1.0000 0.31560  0.40950  0.54560  Biso   1.000  O
  O135     1.0000 0.68440  0.90950  0.45440  Biso   1.000  O
  O136     1.0000 0.81560  0.09050  0.95440  Biso   1.000  O
  O137     1.0000 0.92290  0.37680  0.95160  Biso   1.000  O
  O138     1.0000 0.57710  0.62320  0.45160  Biso   1.000  O
  O139     1.0000 0.42290  0.12320  0.54840  Biso   1.000  O
  O140     1.0000 0.07710  0.87680  0.04840  Biso   1.000  O
  O141     1.0000 0.07710  0.62320  0.04840  Biso   1.000  O
  O142     1.0000 0.42290  0.37680  0.54840  Biso   1.000  O
  O143     1.0000 0.57710  0.87680  0.45160  Biso   1.000  O
  O144     1.0000 0.92290  0.12320  0.95160  Biso   1.000  O
  H9       1.0000 0.91290  0.37120  0.98130  Biso   1.000  H
  H10      1.0000 0.58710  0.62880  0.48130  Biso   1.000  H
  H11      1.0000 0.41290  0.12880  0.51870  Biso   1.000  H
  H12      1.0000 0.08710  0.87120  0.01870  Biso   1.000  H
  H13      1.0000 0.08710  0.62880  0.01870  Biso   1.000  H
  H14      1.0000 0.41290  0.37120  0.51870  Biso   1.000  H
  H15      1.0000 0.58710  0.87120  0.48130  Biso   1.000  H
  H16      1.0000 0.91290  0.12880  0.98130  Biso   1.000  H
  C1       1.0000 0.57030  0.32160  0.81240  Biso   1.000  C
  C2       1.0000 0.92970  0.67840  0.31240  Biso   1.000  C
  C3       1.0000 0.07030  0.17840  0.68760  Biso   1.000  C
  C4       1.0000 0.42970  0.82160  0.18760  Biso   1.000  C
  C5       1.0000 0.42970  0.67840  0.18760  Biso   1.000  C
  C6       1.0000 0.07030  0.32160  0.68760  Biso   1.000  C
  C7       1.0000 0.92970  0.82160  0.31240  Biso   1.000  C
  C8       1.0000 0.57030  0.17840  0.81240  Biso   1.000  C
  C9       1.0000 0.92260  0.68050  0.69300  Biso   1.000  C
  C10      1.0000 0.57740  0.31950  0.19300  Biso   1.000  C
  C11      1.0000 0.42260  0.81950  0.80700  Biso   1.000  C
  C12      1.0000 0.07740  0.18050  0.30700  Biso   1.000  C
  C13      1.0000 0.07740  0.31950  0.30700  Biso   1.000  C
  C14      1.0000 0.42260  0.68050  0.80700  Biso   1.000  C
  C15      1.0000 0.57740  0.18050  0.19300  Biso   1.000  C
  C16      1.0000 0.92260  0.81950  0.69300  Biso   1.000  C
  C17      1.0000 0.89580  0.63470  0.67170  Biso   1.000  C
  C18      1.0000 0.60420  0.36530  0.17170  Biso   1.000  C
  C19      1.0000 0.39580  0.86530  0.82830  Biso   1.000  C
  C20      1.0000 0.10420  0.13470  0.32830  Biso   1.000  C
  C21      1.0000 0.10420  0.36530  0.32830  Biso   1.000  C
  C22      1.0000 0.39580  0.63470  0.82830  Biso   1.000  C
  C23      1.0000 0.60420  0.13470  0.17170  Biso   1.000  C
  C24      1.0000 0.89580  0.86530  0.67170  Biso   1.000  C
  C25      1.0000 0.94140  0.53720  0.56800  Biso   1.000  C
  C26      1.0000 0.55860  0.46280  0.06800  Biso   1.000  C
  C27      1.0000 0.44140  0.96280  0.93200  Biso   1.000  C
  C28      1.0000 0.05860  0.03720  0.43200  Biso   1.000  C
  C29      1.0000 0.05860  0.46280  0.43200  Biso   1.000  C
  C30      1.0000 0.44140  0.53720  0.93200  Biso   1.000  C
  C31      1.0000 0.55860  0.03720  0.06800  Biso   1.000  C
  C32      1.0000 0.94140  0.96280  0.56800  Biso   1.000  C
  C33      1.0000 0.56810  0.45490  0.93360  Biso   1.000  C
  C34      1.0000 0.93190  0.54510  0.43360  Biso   1.000  C
  C35      1.0000 0.06810  0.04510  0.56640  Biso   1.000  C
  C36      1.0000 0.43190  0.95490  0.06640  Biso   1.000  C
  C37      1.0000 0.43190  0.54510  0.06640  Biso   1.000  C
  C38      1.0000 0.06810  0.45490  0.56640  Biso   1.000  C
  C39      1.0000 0.93190  0.95490  0.43360  Biso   1.000  C
  C40      1.0000 0.56810  0.04510  0.93360  Biso   1.000  C
  C41      1.0000 0.94070  0.31520  0.77430  Biso   1.000  C
  C42      1.0000 0.55930  0.68480  0.27430  Biso   1.000  C
  C43      1.0000 0.44070  0.18480  0.72570  Biso   1.000  C
  C44      1.0000 0.05930  0.81520  0.22570  Biso   1.000  C
  C45      1.0000 0.05930  0.68480  0.22570  Biso   1.000  C
  C46      1.0000 0.44070  0.31520  0.72570  Biso   1.000  C
  C47      1.0000 0.55930  0.81520  0.27430  Biso   1.000  C
  C48      1.0000 0.94070  0.18480  0.77430  Biso   1.000  C
  C49      1.0000 0.89610  0.35490  0.79850  Biso   1.000  C
  C50      1.0000 0.60390  0.64510  0.29850  Biso   1.000  C
  C51      1.0000 0.39610  0.14510  0.70150  Biso   1.000  C
  C52      1.0000 0.10390  0.85490  0.20150  Biso   1.000  C
  C53      1.0000 0.10390  0.64510  0.20150  Biso   1.000  C
  C54      1.0000 0.39610  0.35490  0.70150  Biso   1.000  C
  C55      1.0000 0.60390  0.85490  0.29850  Biso   1.000  C
  C56      1.0000 0.89610  0.14510  0.79850  Biso   1.000  C
  C57      1.0000 0.89870  0.35160  0.85240  Biso   1.000  C
  C58      1.0000 0.60130  0.64840  0.35240  Biso   1.000  C
  C59      1.0000 0.39870  0.14840  0.64760  Biso   1.000  C
  C60      1.0000 0.10130  0.85160  0.14760  Biso   1.000  C
  C61      1.0000 0.10130  0.64840  0.14760  Biso   1.000  C
  C62      1.0000 0.39870  0.35160  0.64760  Biso   1.000  C
  C63      1.0000 0.60130  0.85160  0.35240  Biso   1.000  C
  C64      1.0000 0.89870  0.14840  0.85240  Biso   1.000  C
  H17      1.0000 0.92190  0.32550  0.86870  Biso   1.000  H
  H18      1.0000 0.57810  0.67450  0.36870  Biso   1.000  H
  H19      1.0000 0.42190  0.17450  0.63130  Biso   1.000  H
  H20      1.0000 0.07810  0.82550  0.13130  Biso   1.000  H
  H21      1.0000 0.07810  0.67450  0.13130  Biso   1.000  H
  H22      1.0000 0.42190  0.32550  0.63130  Biso   1.000  H
  H23      1.0000 0.57810  0.82550  0.36870  Biso   1.000  H
  H24      1.0000 0.92190  0.17450  0.86870  Biso   1.000  H
  C65      1.0000 0.86570  0.38830  0.87860  Biso   1.000  C
  C66      1.0000 0.63430  0.61170  0.37860  Biso   1.000  C
  C67      1.0000 0.36570  0.11170  0.62140  Biso   1.000  C
  C68      1.0000 0.13430  0.88830  0.12140  Biso   1.000  C
  C69      1.0000 0.13430  0.61170  0.12140  Biso   1.000  C
  C70      1.0000 0.36570  0.38830  0.62140  Biso   1.000  C
  C71      1.0000 0.63430  0.88830  0.37860  Biso   1.000  C
  C72      1.0000 0.86570  0.11170  0.87860  Biso   1.000  C
  C73      1.0000 0.81680  0.41860  0.85140  Biso   1.000  C
  C74      1.0000 0.68320  0.58140  0.35140  Biso   1.000  C
  C75      1.0000 0.31680  0.08140  0.64860  Biso   1.000  C
  C76      1.0000 0.18320  0.91860  0.14860  Biso   1.000  C
  C77      1.0000 0.18320  0.58140  0.14860  Biso   1.000  C
  C78      1.0000 0.31680  0.41860  0.64860  Biso   1.000  C
  C79      1.0000 0.68320  0.91860  0.35140  Biso   1.000  C
  C80      1.0000 0.81680  0.08140  0.85140  Biso   1.000  C
  H25      1.0000 0.78580  0.43870  0.86900  Biso   1.000  H
  H26      1.0000 0.71420  0.56130  0.36900  Biso   1.000  H
  H27      1.0000 0.28580  0.06130  0.63100  Biso   1.000  H
  H28      1.0000 0.21420  0.93870  0.13100  Biso   1.000  H
  H29      1.0000 0.21420  0.56130  0.13100  Biso   1.000  H
  H30      1.0000 0.28580  0.43870  0.63100  Biso   1.000  H
  H31      1.0000 0.71420  0.93870  0.36900  Biso   1.000  H
  H32      1.0000 0.78580  0.06130  0.86900  Biso   1.000  H
  C81      1.0000 0.81610  0.41780  0.79970  Biso   1.000  C
  C82      1.0000 0.68390  0.58220  0.29970  Biso   1.000  C
  C83      1.0000 0.31610  0.08220  0.70030  Biso   1.000  C
  C84      1.0000 0.18390  0.91780  0.20030  Biso   1.000  C
  C85      1.0000 0.18390  0.58220  0.20030  Biso   1.000  C
  C86      1.0000 0.31610  0.41780  0.70030  Biso   1.000  C
  C87      1.0000 0.68390  0.91780  0.29970  Biso   1.000  C
  C88      1.0000 0.81610  0.08220  0.79970  Biso   1.000  C
  C89      1.0000 0.85610  0.38490  0.77470  Biso   1.000  C
  C90      1.0000 0.64390  0.61510  0.27470  Biso   1.000  C
  C91      1.0000 0.35610  0.11510  0.72530  Biso   1.000  C
  C92      1.0000 0.14390  0.88490  0.22530  Biso   1.000  C
  C93      1.0000 0.14390  0.61510  0.22530  Biso   1.000  C
  C94      1.0000 0.35610  0.38490  0.72530  Biso   1.000  C
  C95      1.0000 0.64390  0.88490  0.27470  Biso   1.000  C
  C96      1.0000 0.85610  0.11510  0.77470  Biso   1.000  C
  H33      1.0000 0.85460  0.38390  0.73960  Biso   1.000  H
  H34      1.0000 0.64540  0.61610  0.23960  Biso   1.000  H
  H35      1.0000 0.35460  0.11610  0.76040  Biso   1.000  H
  H36      1.0000 0.14540  0.88390  0.26040  Biso   1.000  H
  H37      1.0000 0.14540  0.61610  0.26040  Biso   1.000  H
  H38      1.0000 0.35460  0.38390  0.76040  Biso   1.000  H
  H39      1.0000 0.64540  0.88390  0.23960  Biso   1.000  H
  H40      1.0000 0.85460  0.11610  0.73960  Biso   1.000  H
  C97      1.0000 0.78080  0.45990  0.77300  Biso   1.000  C
  C98      1.0000 0.71920  0.54010  0.27300  Biso   1.000  C
  C99      1.0000 0.28080  0.04010  0.72700  Biso   1.000  C
  C100     1.0000 0.21920  0.95990  0.22700  Biso   1.000  C
  C101     1.0000 0.21920  0.54010  0.22700  Biso   1.000  C
  C102     1.0000 0.28080  0.45990  0.72700  Biso   1.000  C
  C103     1.0000 0.71920  0.95990  0.27300  Biso   1.000  C
  C104     1.0000 0.78080  0.04010  0.77300  Biso   1.000  C
  C105     1.0000 0.71310  0.47070  0.78390  Biso   1.000  C
  C106     1.0000 0.78690  0.52930  0.28390  Biso   1.000  C
  C107     1.0000 0.21310  0.02930  0.71610  Biso   1.000  C
  C108     1.0000 0.28690  0.97070  0.21610  Biso   1.000  C
  C109     1.0000 0.28690  0.52930  0.21610  Biso   1.000  C
  C110     1.0000 0.21310  0.47070  0.71610  Biso   1.000  C
  C111     1.0000 0.78690  0.97070  0.28390  Biso   1.000  C
  C112     1.0000 0.71310  0.02930  0.78390  Biso   1.000  C
  C113     1.0000 0.68770  0.51150  0.76340  Biso   1.000  C
  C114     1.0000 0.81230  0.48850  0.26340  Biso   1.000  C
  C115     1.0000 0.18770  0.98850  0.73660  Biso   1.000  C
  C116     1.0000 0.31230  0.01150  0.23660  Biso   1.000  C
  C117     1.0000 0.31230  0.48850  0.23660  Biso   1.000  C
  C118     1.0000 0.18770  0.51150  0.73660  Biso   1.000  C
  C119     1.0000 0.81230  0.01150  0.26340  Biso   1.000  C
  C120     1.0000 0.68770  0.98850  0.76340  Biso   1.000  C
  H41      1.0000 0.64550  0.52230  0.77550  Biso   1.000  H
  H42      1.0000 0.85450  0.47770  0.27550  Biso   1.000  H
  H43      1.0000 0.14550  0.97770  0.72450  Biso   1.000  H
  H44      1.0000 0.35450  0.02230  0.22450  Biso   1.000  H
  H45      1.0000 0.35450  0.47770  0.22450  Biso   1.000  H
  H46      1.0000 0.14550  0.52230  0.72450  Biso   1.000  H
  H47      1.0000 0.85450  0.02230  0.27550  Biso   1.000  H
  H48      1.0000 0.64550  0.97770  0.77550  Biso   1.000  H
  C121     1.0000 0.71780  0.54150  0.72430  Biso   1.000  C
  C122     1.0000 0.78220  0.45850  0.22430  Biso   1.000  C
  C123     1.0000 0.21780  0.95850  0.77570  Biso   1.000  C
  C124     1.0000 0.28220  0.04150  0.27570  Biso   1.000  C
  C125     1.0000 0.28220  0.45850  0.27570  Biso   1.000  C
  C126     1.0000 0.21780  0.54150  0.77570  Biso   1.000  C
  C127     1.0000 0.78220  0.04150  0.22430  Biso   1.000  C
  C128     1.0000 0.71780  0.95850  0.72430  Biso   1.000  C
  C129     1.0000 0.78330  0.52720  0.71430  Biso   1.000  C
  C130     1.0000 0.71670  0.47280  0.21430  Biso   1.000  C
  C131     1.0000 0.28330  0.97280  0.78570  Biso   1.000  C
  C132     1.0000 0.21670  0.02720  0.28570  Biso   1.000  C
  C133     1.0000 0.21670  0.47280  0.28570  Biso   1.000  C
  C134     1.0000 0.28330  0.52720  0.78570  Biso   1.000  C
  C135     1.0000 0.71670  0.02720  0.21430  Biso   1.000  C
  C136     1.0000 0.78330  0.97280  0.71430  Biso   1.000  C
  C137     1.0000 0.81650  0.48710  0.74010  Biso   1.000  C
  C138     1.0000 0.68350  0.51290  0.24010  Biso   1.000  C
  C139     1.0000 0.31650  0.01290  0.75990  Biso   1.000  C
  C140     1.0000 0.18350  0.98710  0.25990  Biso   1.000  C
  C141     1.0000 0.18350  0.51290  0.25990  Biso   1.000  C
  C142     1.0000 0.31650  0.48710  0.75990  Biso   1.000  C
  C143     1.0000 0.68350  0.98710  0.24010  Biso   1.000  C
  C144     1.0000 0.81650  0.01290  0.74010  Biso   1.000  C
  H49      1.0000 0.86230  0.47990  0.73400  Biso   1.000  H
  H50      1.0000 0.63770  0.52010  0.23400  Biso   1.000  H
  H51      1.0000 0.36230  0.02010  0.76600  Biso   1.000  H
  H52      1.0000 0.13770  0.97990  0.26600  Biso   1.000  H
  H53      1.0000 0.13770  0.52010  0.26600  Biso   1.000  H
  H54      1.0000 0.36230  0.47990  0.76600  Biso   1.000  H
  H55      1.0000 0.63770  0.97990  0.23400  Biso   1.000  H
  H56      1.0000 0.86230  0.02010  0.73400  Biso   1.000  H
  C145     1.0000 0.83390  0.55580  0.68270  Biso   1.000  C
  C146     1.0000 0.66610  0.44420  0.18270  Biso   1.000  C
  C147     1.0000 0.33390  0.94420  0.81730  Biso   1.000  C
  C148     1.0000 0.16610  0.05580  0.31730  Biso   1.000  C
  C149     1.0000 0.16610  0.44420  0.31730  Biso   1.000  C
  C150     1.0000 0.33390  0.55580  0.81730  Biso   1.000  C
  C151     1.0000 0.66610  0.05580  0.18270  Biso   1.000  C
  C152     1.0000 0.83390  0.94420  0.68270  Biso   1.000  C
  C153     1.0000 0.85360  0.60760  0.69720  Biso   1.000  C
  C154     1.0000 0.64640  0.39240  0.19720  Biso   1.000  C
  C155     1.0000 0.35360  0.89240  0.80280  Biso   1.000  C
  C156     1.0000 0.14640  0.10760  0.30280  Biso   1.000  C
  C157     1.0000 0.14640  0.39240  0.30280  Biso   1.000  C
  C158     1.0000 0.35360  0.60760  0.80280  Biso   1.000  C
  C159     1.0000 0.64640  0.10760  0.19720  Biso   1.000  C
  C160     1.0000 0.85360  0.89240  0.69720  Biso   1.000  C
  H57      1.0000 0.83470  0.62140  0.72640  Biso   1.000  H
  H58      1.0000 0.66530  0.37860  0.22640  Biso   1.000  H
  H59      1.0000 0.33470  0.87860  0.77360  Biso   1.000  H
  H60      1.0000 0.16530  0.12140  0.27360  Biso   1.000  H
  H61      1.0000 0.16530  0.37860  0.27360  Biso   1.000  H
  H62      1.0000 0.33470  0.62140  0.77360  Biso   1.000  H
  H63      1.0000 0.66530  0.12140  0.22640  Biso   1.000  H
  H64      1.0000 0.83470  0.87860  0.72640  Biso   1.000  H
  C161     1.0000 0.91990  0.60780  0.62630  Biso   1.000  C
  C162     1.0000 0.58010  0.39220  0.12630  Biso   1.000  C
  C163     1.0000 0.41990  0.89220  0.87370  Biso   1.000  C
  C164     1.0000 0.08010  0.10780  0.37370  Biso   1.000  C
  C165     1.0000 0.08010  0.39220  0.37370  Biso   1.000  C
  C166     1.0000 0.41990  0.60780  0.87370  Biso   1.000  C
  C167     1.0000 0.58010  0.10780  0.12630  Biso   1.000  C
  C168     1.0000 0.91990  0.89220  0.62630  Biso   1.000  C
  H65      1.0000 0.95170  0.62500  0.60650  Biso   1.000  H
  H66      1.0000 0.54830  0.37500  0.10650  Biso   1.000  H
  H67      1.0000 0.45170  0.87500  0.89350  Biso   1.000  H
  H68      1.0000 0.04830  0.12500  0.39350  Biso   1.000  H
  H69      1.0000 0.04830  0.37500  0.39350  Biso   1.000  H
  H70      1.0000 0.45170  0.62500  0.89350  Biso   1.000  H
  H71      1.0000 0.54830  0.12500  0.10650  Biso   1.000  H
  H72      1.0000 0.95170  0.87500  0.60650  Biso   1.000  H
  C169     1.0000 0.85580  0.53340  0.63620  Biso   1.000  C
  C170     1.0000 0.64420  0.46660  0.13620  Biso   1.000  C
  C171     1.0000 0.35580  0.96660  0.86380  Biso   1.000  C
  C172     1.0000 0.14420  0.03340  0.36380  Biso   1.000  C
  C173     1.0000 0.14420  0.46660  0.36380  Biso   1.000  C
  C174     1.0000 0.35580  0.53340  0.86380  Biso   1.000  C
  C175     1.0000 0.64420  0.03340  0.13620  Biso   1.000  C
  C176     1.0000 0.85580  0.96660  0.63620  Biso   1.000  C
  H73      1.0000 0.84050  0.50200  0.62470  Biso   1.000  H
  H74      1.0000 0.65950  0.49800  0.12470  Biso   1.000  H
  H75      1.0000 0.34050  0.99800  0.87530  Biso   1.000  H
  H76      1.0000 0.15950  0.00200  0.37530  Biso   1.000  H
  H77      1.0000 0.15950  0.49800  0.37530  Biso   1.000  H
  H78      1.0000 0.34050  0.50200  0.87530  Biso   1.000  H
  H79      1.0000 0.65950  0.00200  0.12470  Biso   1.000  H
  H80      1.0000 0.84050  0.99800  0.62470  Biso   1.000  H
  C177     1.0000 0.56040  0.68590  0.72870  Biso   1.000  C
  C178     1.0000 0.93960  0.31410  0.22870  Biso   1.000  C
  C179     1.0000 0.06040  0.81410  0.77130  Biso   1.000  C
  C180     1.0000 0.43960  0.18590  0.27130  Biso   1.000  C
  C181     1.0000 0.43960  0.31410  0.27130  Biso   1.000  C
  C182     1.0000 0.06040  0.68590  0.77130  Biso   1.000  C
  C183     1.0000 0.93960  0.18590  0.22870  Biso   1.000  C
  C184     1.0000 0.56040  0.81410  0.72870  Biso   1.000  C
  C185     1.0000 0.67990  0.57910  0.69940  Biso   1.000  C
  C186     1.0000 0.82010  0.42090  0.19940  Biso   1.000  C
  C187     1.0000 0.17990  0.92090  0.80060  Biso   1.000  C
  C188     1.0000 0.32010  0.07910  0.30060  Biso   1.000  C
  C189     1.0000 0.32010  0.42090  0.30060  Biso   1.000  C
  C190     1.0000 0.17990  0.57910  0.80060  Biso   1.000  C
  C191     1.0000 0.82010  0.07910  0.19940  Biso   1.000  C
  C192     1.0000 0.67990  0.92090  0.69940  Biso   1.000  C
  C193     1.0000 0.64140  0.61600  0.72470  Biso   1.000  C
  C194     1.0000 0.85860  0.38400  0.22470  Biso   1.000  C
  C195     1.0000 0.14140  0.88400  0.77530  Biso   1.000  C
  C196     1.0000 0.35860  0.11600  0.27530  Biso   1.000  C
  C197     1.0000 0.35860  0.38400  0.27530  Biso   1.000  C
  C198     1.0000 0.14140  0.61600  0.77530  Biso   1.000  C
  C199     1.0000 0.85860  0.11600  0.22470  Biso   1.000  C
  C200     1.0000 0.64140  0.88400  0.72470  Biso   1.000  C
  H81      1.0000 0.64470  0.61700  0.75980  Biso   1.000  H
  H82      1.0000 0.85530  0.38300  0.25980  Biso   1.000  H
  H83      1.0000 0.14470  0.88300  0.74020  Biso   1.000  H
  H84      1.0000 0.35530  0.11700  0.24020  Biso   1.000  H
  H85      1.0000 0.35530  0.38300  0.24020  Biso   1.000  H
  H86      1.0000 0.14470  0.61700  0.74020  Biso   1.000  H
  H87      1.0000 0.85530  0.11700  0.25980  Biso   1.000  H
  H88      1.0000 0.64470  0.88300  0.75980  Biso   1.000  H
  C201     1.0000 0.59770  0.65220  0.70120  Biso   1.000  C
  C202     1.0000 0.90230  0.34780  0.20120  Biso   1.000  C
  C203     1.0000 0.09770  0.84780  0.79880  Biso   1.000  C
  C204     1.0000 0.40230  0.15220  0.29880  Biso   1.000  C
  C205     1.0000 0.40230  0.34780  0.29880  Biso   1.000  C
  C206     1.0000 0.09770  0.65220  0.79880  Biso   1.000  C
  C207     1.0000 0.90230  0.15220  0.20120  Biso   1.000  C
  C208     1.0000 0.59770  0.84780  0.70120  Biso   1.000  C
  C209     1.0000 0.67850  0.57880  0.64820  Biso   1.000  C
  C210     1.0000 0.82150  0.42120  0.14820  Biso   1.000  C
  C211     1.0000 0.17850  0.92120  0.85180  Biso   1.000  C
  C212     1.0000 0.32150  0.07880  0.35180  Biso   1.000  C
  C213     1.0000 0.32150  0.42120  0.35180  Biso   1.000  C
  C214     1.0000 0.17850  0.57880  0.85180  Biso   1.000  C
  C215     1.0000 0.82150  0.07880  0.14820  Biso   1.000  C
  C216     1.0000 0.67850  0.92120  0.64820  Biso   1.000  C
  H89      1.0000 0.70350  0.55510  0.62980  Biso   1.000  H
  H90      1.0000 0.79650  0.44490  0.12980  Biso   1.000  H
  H91      1.0000 0.20350  0.94490  0.87020  Biso   1.000  H
  H92      1.0000 0.29650  0.05510  0.37020  Biso   1.000  H
  H93      1.0000 0.29650  0.44490  0.37020  Biso   1.000  H
  H94      1.0000 0.20350  0.55510  0.87020  Biso   1.000  H
  H95      1.0000 0.79650  0.05510  0.12980  Biso   1.000  H
  H96      1.0000 0.70350  0.94490  0.62980  Biso   1.000  H
  C217     1.0000 0.59430  0.64560  0.64850  Biso   1.000  C
  C218     1.0000 0.90570  0.35440  0.14850  Biso   1.000  C
  C219     1.0000 0.09430  0.85440  0.85150  Biso   1.000  C
  C220     1.0000 0.40570  0.14560  0.35150  Biso   1.000  C
  C221     1.0000 0.40570  0.35440  0.35150  Biso   1.000  C
  C222     1.0000 0.09430  0.64560  0.85150  Biso   1.000  C
  C223     1.0000 0.90570  0.14560  0.14850  Biso   1.000  C
  C224     1.0000 0.59430  0.85440  0.64850  Biso   1.000  C
  H97      1.0000 0.56160  0.66270  0.62950  Biso   1.000  H
  H98      1.0000 0.93840  0.33730  0.12950  Biso   1.000  H
  H99      1.0000 0.06160  0.83730  0.87050  Biso   1.000  H
  H100     1.0000 0.43840  0.16270  0.37050  Biso   1.000  H
  H101     1.0000 0.43840  0.33730  0.37050  Biso   1.000  H
  H102     1.0000 0.06160  0.66270  0.87050  Biso   1.000  H
  H103     1.0000 0.93840  0.16270  0.12950  Biso   1.000  H
  H104     1.0000 0.56160  0.83730  0.62950  Biso   1.000  H
  C225     1.0000 0.64040  0.61350  0.62520  Biso   1.000  C
  C226     1.0000 0.85960  0.38650  0.12520  Biso   1.000  C
  C227     1.0000 0.14040  0.88650  0.87480  Biso   1.000  C
  C228     1.0000 0.35960  0.11350  0.37480  Biso   1.000  C
  C229     1.0000 0.35960  0.38650  0.37480  Biso   1.000  C
  C230     1.0000 0.14040  0.61350  0.87480  Biso   1.000  C
  C231     1.0000 0.85960  0.11350  0.12520  Biso   1.000  C
  C232     1.0000 0.64040  0.88650  0.62520  Biso   1.000  C
  C233     1.0000 0.63630  0.60880  0.56560  Biso   1.000  C
  C234     1.0000 0.86370  0.39120  0.06560  Biso   1.000  C
  C235     1.0000 0.13630  0.89120  0.93440  Biso   1.000  C
  C236     1.0000 0.36370  0.10880  0.43440  Biso   1.000  C
  C237     1.0000 0.36370  0.39120  0.43440  Biso   1.000  C
  C238     1.0000 0.13630  0.60880  0.93440  Biso   1.000  C
  C239     1.0000 0.86370  0.10880  0.06560  Biso   1.000  C
  C240     1.0000 0.63630  0.89120  0.56560  Biso   1.000  C
  C241     1.0000 0.86910  0.39040  0.92710  Biso   1.000  C
  C242     1.0000 0.63090  0.60960  0.42710  Biso   1.000  C
  C243     1.0000 0.36910  0.10960  0.57290  Biso   1.000  C
  C244     1.0000 0.13090  0.89040  0.07290  Biso   1.000  C
  C245     1.0000 0.13090  0.60960  0.07290  Biso   1.000  C
  C246     1.0000 0.36910  0.39040  0.57290  Biso   1.000  C
  C247     1.0000 0.63090  0.89040  0.42710  Biso   1.000  C
  C248     1.0000 0.86910  0.10960  0.92710  Biso   1.000  C
  C249     1.0000 0.90230  0.56320  0.61040  Biso   1.000  C
  C250     1.0000 0.59770  0.43680  0.11040  Biso   1.000  C
  C251     1.0000 0.40230  0.93680  0.88960  Biso   1.000  C
  C252     1.0000 0.09770  0.06320  0.38960  Biso   1.000  C
  C253     1.0000 0.09770  0.43680  0.38960  Biso   1.000  C
  C254     1.0000 0.40230  0.56320  0.88960  Biso   1.000  C
  C255     1.0000 0.59770  0.06320  0.11040  Biso   1.000  C
  C256     1.0000 0.90230  0.93680  0.61040  Biso   1.000  C
  O145     1.0000 0.91410  0.50420  0.55250  Biso   1.000  O
  O146     1.0000 0.58590  0.49580  0.05250  Biso   1.000  O
  O147     1.0000 0.41410  0.99580  0.94750  Biso   1.000  O
  O148     1.0000 0.08590  0.00420  0.44750  Biso   1.000  O
  O149     1.0000 0.08590  0.49580  0.44750  Biso   1.000  O
  O150     1.0000 0.41410  0.50420  0.94750  Biso   1.000  O
  O151     1.0000 0.58590  0.00420  0.05250  Biso   1.000  O
  O152     1.0000 0.91410  0.99580  0.55250  Biso   1.000  O
  C257     1.0000 0.60350  0.36860  0.82890  Biso   1.000  C
  C258     1.0000 0.89650  0.63140  0.32890  Biso   1.000  C
  C259     1.0000 0.10350  0.13140  0.67110  Biso   1.000  C
  C260     1.0000 0.39650  0.86860  0.17110  Biso   1.000  C
  C261     1.0000 0.39650  0.63140  0.17110  Biso   1.000  C
  C262     1.0000 0.10350  0.36860  0.67110  Biso   1.000  C
  C263     1.0000 0.89650  0.86860  0.32890  Biso   1.000  C
  C264     1.0000 0.60350  0.13140  0.82890  Biso   1.000  C
  C265     1.0000 0.57400  0.38450  0.87140  Biso   1.000  C
  C266     1.0000 0.92600  0.61550  0.37140  Biso   1.000  C
  C267     1.0000 0.07400  0.11550  0.62860  Biso   1.000  C
  C268     1.0000 0.42600  0.88450  0.12860  Biso   1.000  C
  C269     1.0000 0.42600  0.61550  0.12860  Biso   1.000  C
  C270     1.0000 0.07400  0.38450  0.62860  Biso   1.000  C
  C271     1.0000 0.92600  0.88450  0.37140  Biso   1.000  C
  C272     1.0000 0.57400  0.11550  0.87140  Biso   1.000  C
  H105     1.0000 0.54260  0.36520  0.88930  Biso   1.000  H
  H106     1.0000 0.95740  0.63480  0.38930  Biso   1.000  H
  H107     1.0000 0.04260  0.13480  0.61070  Biso   1.000  H
  H108     1.0000 0.45740  0.86520  0.11070  Biso   1.000  H
  H109     1.0000 0.45740  0.63480  0.11070  Biso   1.000  H
  H110     1.0000 0.04260  0.36520  0.61070  Biso   1.000  H
  H111     1.0000 0.95740  0.86520  0.38930  Biso   1.000  H
  H112     1.0000 0.54260  0.13480  0.88930  Biso   1.000  H
  C273     1.0000 0.59500  0.43380  0.88680  Biso   1.000  C
  C274     1.0000 0.90500  0.56620  0.38680  Biso   1.000  C
  C275     1.0000 0.09500  0.06620  0.61320  Biso   1.000  C
  C276     1.0000 0.40500  0.93380  0.11320  Biso   1.000  C
  C277     1.0000 0.40500  0.56620  0.11320  Biso   1.000  C
  C278     1.0000 0.09500  0.43380  0.61320  Biso   1.000  C
  C279     1.0000 0.90500  0.93380  0.38680  Biso   1.000  C
  C280     1.0000 0.59500  0.06620  0.88680  Biso   1.000  C
  C281     1.0000 0.67490  0.43930  0.82010  Biso   1.000  C
  C282     1.0000 0.82510  0.56070  0.32010  Biso   1.000  C
  C283     1.0000 0.17490  0.06070  0.67990  Biso   1.000  C
  C284     1.0000 0.32510  0.93930  0.17990  Biso   1.000  C
  C285     1.0000 0.32510  0.56070  0.17990  Biso   1.000  C
  C286     1.0000 0.17490  0.43930  0.67990  Biso   1.000  C
  C287     1.0000 0.82510  0.93930  0.32010  Biso   1.000  C
  C288     1.0000 0.67490  0.06070  0.82010  Biso   1.000  C
  C289     1.0000 0.64470  0.46090  0.85850  Biso   1.000  C
  C290     1.0000 0.85530  0.53910  0.35850  Biso   1.000  C
  C291     1.0000 0.14470  0.03910  0.64150  Biso   1.000  C
  C292     1.0000 0.35530  0.96090  0.14150  Biso   1.000  C
  C293     1.0000 0.35530  0.53910  0.14150  Biso   1.000  C
  C294     1.0000 0.14470  0.46090  0.64150  Biso   1.000  C
  C295     1.0000 0.85530  0.96090  0.35850  Biso   1.000  C
  C296     1.0000 0.64470  0.03910  0.85850  Biso   1.000  C
  H113     1.0000 0.65570  0.49400  0.86740  Biso   1.000  H
  H114     1.0000 0.84430  0.50600  0.36740  Biso   1.000  H
  H115     1.0000 0.15570  0.00600  0.63260  Biso   1.000  H
  H116     1.0000 0.34430  0.99400  0.13260  Biso   1.000  H
  H117     1.0000 0.34430  0.50600  0.13260  Biso   1.000  H
  H118     1.0000 0.15570  0.49400  0.63260  Biso   1.000  H
  H119     1.0000 0.84430  0.99400  0.36740  Biso   1.000  H
  H120     1.0000 0.65570  0.00600  0.86740  Biso   1.000  H
  C297     1.0000 0.65800  0.39470  0.80430  Biso   1.000  C
  C298     1.0000 0.84200  0.60530  0.30430  Biso   1.000  C
  C299     1.0000 0.15800  0.10530  0.69570  Biso   1.000  C
  C300     1.0000 0.34200  0.89470  0.19570  Biso   1.000  C
  C301     1.0000 0.34200  0.60530  0.19570  Biso   1.000  C
  C302     1.0000 0.15800  0.39470  0.69570  Biso   1.000  C
  C303     1.0000 0.84200  0.89470  0.30430  Biso   1.000  C
  C304     1.0000 0.65800  0.10530  0.80430  Biso   1.000  C
  H121     1.0000 0.68080  0.37990  0.77720  Biso   1.000  H
  H122     1.0000 0.81920  0.62010  0.27720  Biso   1.000  H
  H123     1.0000 0.18080  0.12010  0.72280  Biso   1.000  H
  H124     1.0000 0.31920  0.87990  0.22280  Biso   1.000  H
  H125     1.0000 0.31920  0.62010  0.22280  Biso   1.000  H
  H126     1.0000 0.18080  0.37990  0.72280  Biso   1.000  H
  H127     1.0000 0.81920  0.87990  0.27720  Biso   1.000  H
  H128     1.0000 0.68080  0.12010  0.77720  Biso   1.000  H
