data_image0
_cell_length_a       12.751
_cell_length_b       14.762
_cell_length_c       21.641
_cell_angle_alpha    96.651
_cell_angle_beta     94.063
_cell_angle_gamma    110.713

_symmetry_space_group_name_H-M    "P 1"
_symmetry_int_tables_number       1

loop_
  _symmetry_equiv_pos_as_xyz
  'x, y, z'

loop_
  _atom_site_label
  _atom_site_occupancy
  _atom_site_fract_x
  _atom_site_fract_y
  _atom_site_fract_z
  _atom_site_thermal_displace_type
  _atom_site_B_iso_or_equiv
  _atom_site_type_symbol
  Ti1      1.0000 0.52839  0.03745  0.88496  Biso   1.000  Ti
  Ti2      1.0000 0.47161  0.96255  0.11504  Biso   1.000  Ti
  Ti3      1.0000 0.61185  0.22502  0.98616  Biso   1.000  Ti
  Ti4      1.0000 0.38815  0.77498  0.01384  Biso   1.000  Ti
  Ti5      1.0000 0.38101  0.08975  0.01803  Biso   1.000  Ti
  Ti6      1.0000 0.61899  0.91025  0.98197  Biso   1.000  Ti
  Ti7      1.0000 0.62848  0.53947  0.60835  Biso   1.000  Ti
  Ti8      1.0000 0.37152  0.46053  0.39165  Biso   1.000  Ti
  Ti9      1.0000 0.73837  0.66759  0.50879  Biso   1.000  Ti
  Ti10     1.0000 0.26163  0.33241  0.49121  Biso   1.000  Ti
  Ti11     1.0000 0.49457  0.66478  0.50484  Biso   1.000  Ti
  Ti12     1.0000 0.50543  0.33522  0.49516  Biso   1.000  Ti
  Cu1      1.0000 0.05188  0.12724  0.73227  Biso   1.000  Cu
  Cu2      1.0000 0.94812  0.87276  0.26773  Biso   1.000  Cu
  P1       1.0000 0.71172  0.10853  0.08224  Biso   1.000  P
  P2       1.0000 0.28828  0.89147  0.91776  Biso   1.000  P
  P3       1.0000 0.37097  0.52790  0.60327  Biso   1.000  P
  P4       1.0000 0.62903  0.47210  0.39673  Biso   1.000  P
  Cl1      1.0000 0.96180  0.22920  0.74743  Biso   1.000  Cl
  Cl2      1.0000 0.03820  0.77080  0.25257  Biso   1.000  Cl
  Cl3      1.0000 0.13530  0.04190  0.67877  Biso   1.000  Cl
  Cl4      1.0000 0.86470  0.95810  0.32123  Biso   1.000  Cl
  O1       1.0000 0.50990  0.26220  0.92140  Biso   1.000  O
  O2       1.0000 0.49010  0.73780  0.07860  Biso   1.000  O
  O3       1.0000 0.43430  0.12360  0.85400  Biso   1.000  O
  O4       1.0000 0.56570  0.87640  0.14600  Biso   1.000  O
  O5       1.0000 0.72260  0.02600  0.03770  Biso   1.000  O
  O6       1.0000 0.27740  0.97400  0.96230  Biso   1.000  O
  O7       1.0000 0.61630  0.07110  0.12130  Biso   1.000  O
  O8       1.0000 0.38370  0.92890  0.87870  Biso   1.000  O
  O9       1.0000 0.70250  0.18940  0.04740  Biso   1.000  O
  O10      1.0000 0.29750  0.81060  0.95260  Biso   1.000  O
  O11      1.0000 0.49460  0.09100  0.96660  Biso   1.000  O
  O12      1.0000 0.50540  0.90900  0.03340  Biso   1.000  O
  O13      1.0000 0.50200  0.22530  0.04460  Biso   1.000  O
  O14      1.0000 0.49800  0.77470  0.95540  Biso   1.000  O
  O15      1.0000 0.70300  0.34850  0.00030  Biso   1.000  O
  O16      1.0000 0.29700  0.65150  0.99970  Biso   1.000  O
  O17      1.0000 0.65950  0.16540  0.91260  Biso   1.000  O
  O18      1.0000 0.34050  0.83460  0.08740  Biso   1.000  O
  O19      1.0000 0.55020  0.02360  0.80480  Biso   1.000  O
  O20      1.0000 0.44980  0.97640  0.19520  Biso   1.000  O
  O21      1.0000 0.77510  0.77560  0.58930  Biso   1.000  O
  O22      1.0000 0.22490  0.22440  0.41070  Biso   1.000  O
  O23      1.0000 0.69000  0.68500  0.66050  Biso   1.000  O
  O24      1.0000 0.31000  0.31500  0.33950  Biso   1.000  O
  O25      1.0000 0.39480  0.61320  0.56710  Biso   1.000  O
  O26      1.0000 0.60520  0.38680  0.43290  Biso   1.000  O
  O27      1.0000 0.47950  0.52450  0.63360  Biso   1.000  O
  O28      1.0000 0.52050  0.47550  0.36640  Biso   1.000  O
  O29      1.0000 0.29850  0.43230  0.56410  Biso   1.000  O
  O30      1.0000 0.70150  0.56770  0.43590  Biso   1.000  O
  O31      1.0000 0.45960  0.77010  0.50910  Biso   1.000  O
  O32      1.0000 0.54040  0.22990  0.49090  Biso   1.000  O
  O33      1.0000 0.59370  0.60880  0.54210  Biso   1.000  O
  O34      1.0000 0.40630  0.39120  0.45790  Biso   1.000  O
  O35      1.0000 0.87060  0.73550  0.48890  Biso   1.000  O
  O36      1.0000 0.12940  0.26450  0.51110  Biso   1.000  O
  O37      1.0000 0.77270  0.58520  0.56740  Biso   1.000  O
  O38      1.0000 0.22730  0.41480  0.43260  Biso   1.000  O
  O39      1.0000 0.68270  0.50860  0.67760  Biso   1.000  O
  O40      1.0000 0.31730  0.49140  0.32240  Biso   1.000  O
  O41      1.0000 0.27300  0.14180  0.01760  Biso   1.000  O
  O42      1.0000 0.72700  0.85820  0.98240  Biso   1.000  O
  O43      1.0000 0.39080  0.03450  0.08560  Biso   1.000  O
  O44      1.0000 0.60920  0.96550  0.91440  Biso   1.000  O
  O45      1.0000 0.41800  0.58420  0.43770  Biso   1.000  O
  O46      1.0000 0.58200  0.41580  0.56230  Biso   1.000  O
  O47      1.0000 0.64320  0.72980  0.47200  Biso   1.000  O
  O48      1.0000 0.35680  0.27020  0.52800  Biso   1.000  O
  N1       1.0000 0.20000  0.22570  0.77660  Biso   1.000  N
  N2       1.0000 0.80000  0.77430  0.22340  Biso   1.000  N
  N3       1.0000 0.90950  0.01180  0.73060  Biso   1.000  N
  N4       1.0000 0.09050  0.98820  0.26940  Biso   1.000  N
  C1       1.0000 0.44330  0.20860  0.87610  Biso   1.000  C
  C2       1.0000 0.55670  0.79140  0.12390  Biso   1.000  C
  C3       1.0000 0.36900  0.25120  0.84440  Biso   1.000  C
  C4       1.0000 0.63100  0.74880  0.15560  Biso   1.000  C
  C5       1.0000 0.27520  0.19250  0.80410  Biso   1.000  C
  C6       1.0000 0.72480  0.80750  0.19590  Biso   1.000  C
  H1       1.0000 0.26250  0.12610  0.79520  Biso   1.000  H
  H2       1.0000 0.73750  0.87390  0.20480  Biso   1.000  H
  C7       1.0000 0.22510  0.32110  0.78630  Biso   1.000  C
  C8       1.0000 0.77490  0.67890  0.21370  Biso   1.000  C
  H3       1.0000 0.17630  0.34630  0.76680  Biso   1.000  H
  H4       1.0000 0.82370  0.65370  0.23320  Biso   1.000  H
  C9       1.0000 0.31820  0.38410  0.82300  Biso   1.000  C
  C10      1.0000 0.68180  0.61590  0.17700  Biso   1.000  C
  H5       1.0000 0.33280  0.45100  0.82780  Biso   1.000  H
  H6       1.0000 0.66720  0.54900  0.17220  Biso   1.000  H
  C11      1.0000 0.39080  0.35010  0.85320  Biso   1.000  C
  C12      1.0000 0.60920  0.64990  0.14680  Biso   1.000  C
  H7       1.0000 0.45410  0.39320  0.87930  Biso   1.000  H
  H8       1.0000 0.54590  0.60680  0.12070  Biso   1.000  H
  C13      1.0000 0.84020  0.16270  0.13450  Biso   1.000  C
  C14      1.0000 0.15980  0.83730  0.86550  Biso   1.000  C
  C15      1.0000 0.92710  0.24580  0.12240  Biso   1.000  C
  C16      1.0000 0.07290  0.75420  0.87760  Biso   1.000  C
  H9       1.0000 0.91890  0.27420  0.08710  Biso   1.000  H
  H10      1.0000 0.08110  0.72580  0.91290  Biso   1.000  H
  C17      1.0000 0.02280  0.28410  0.16240  Biso   1.000  C
  C18      1.0000 0.97720  0.71590  0.83760  Biso   1.000  C
  H11      1.0000 0.08080  0.33890  0.15400  Biso   1.000  H
  H12      1.0000 0.91920  0.66110  0.84600  Biso   1.000  H
  C19      1.0000 0.03720  0.24560  0.21410  Biso   1.000  C
  C20      1.0000 0.96280  0.75440  0.78590  Biso   1.000  C
  H13      1.0000 0.10420  0.27380  0.24120  Biso   1.000  H
  H14      1.0000 0.89580  0.72620  0.75880  Biso   1.000  H
  C21      1.0000 0.95500  0.16670  0.22650  Biso   1.000  C
  C22      1.0000 0.04500  0.83330  0.77350  Biso   1.000  C
  H15      1.0000 0.96530  0.14000  0.26230  Biso   1.000  H
  H16      1.0000 0.03470  0.86000  0.73770  Biso   1.000  H
  C23      1.0000 0.85650  0.12480  0.18790  Biso   1.000  C
  C24      1.0000 0.14350  0.87520  0.81210  Biso   1.000  C
  H17      1.0000 0.79980  0.07030  0.19760  Biso   1.000  H
  H18      1.0000 0.20020  0.92970  0.80240  Biso   1.000  H
  C25      1.0000 0.15790  0.11630  0.00360  Biso   1.000  C
  C26      1.0000 0.84210  0.88370  0.99640  Biso   1.000  C
  H19      1.0000 0.12420  0.04600  0.00570  Biso   1.000  H
  H20      1.0000 0.87580  0.95400  0.99430  Biso   1.000  H
  C27      1.0000 0.12960  0.12700  0.94130  Biso   1.000  C
  C28      1.0000 0.87040  0.87300  0.05870  Biso   1.000  C
  H21      1.0000 0.16850  0.19370  0.93530  Biso   1.000  H
  H22      1.0000 0.83150  0.80630  0.06470  Biso   1.000  H
  H23      1.0000 0.04960  0.11110  0.93340  Biso   1.000  H
  H24      1.0000 0.95040  0.88890  0.06660  Biso   1.000  H
  H25      1.0000 0.15160  0.08400  0.91290  Biso   1.000  H
  H26      1.0000 0.84840  0.91600  0.08710  Biso   1.000  H
  C29      1.0000 0.11000  0.16100  0.04530  Biso   1.000  C
  C30      1.0000 0.89000  0.83900  0.95470  Biso   1.000  C
  H27      1.0000 0.14820  0.23050  0.04980  Biso   1.000  H
  H28      1.0000 0.85180  0.76950  0.95020  Biso   1.000  H
  H29      1.0000 0.11630  0.13930  0.08520  Biso   1.000  H
  H30      1.0000 0.88370  0.86070  0.91480  Biso   1.000  H
  H31      1.0000 0.03180  0.14400  0.03040  Biso   1.000  H
  H32      1.0000 0.96820  0.85600  0.96960  Biso   1.000  H
  C31      1.0000 0.51000  0.30420  0.09210  Biso   1.000  C
  C32      1.0000 0.49000  0.69580  0.90790  Biso   1.000  C
  H33      1.0000 0.59040  0.34290  0.10460  Biso   1.000  H
  H34      1.0000 0.40960  0.65710  0.89540  Biso   1.000  H
  C33      1.0000 0.45810  0.36900  0.06500  Biso   1.000  C
  C34      1.0000 0.54190  0.63100  0.93500  Biso   1.000  C
  H35      1.0000 0.49640  0.39370  0.03040  Biso   1.000  H
  H36      1.0000 0.50360  0.60630  0.96960  Biso   1.000  H
  H37      1.0000 0.46460  0.42280  0.09650  Biso   1.000  H
  H38      1.0000 0.53540  0.57720  0.90350  Biso   1.000  H
  H39      1.0000 0.37980  0.33230  0.05070  Biso   1.000  H
  H40      1.0000 0.62020  0.66770  0.94930  Biso   1.000  H
  C35      1.0000 0.46140  0.26800  0.14770  Biso   1.000  C
  C36      1.0000 0.53860  0.73200  0.85230  Biso   1.000  C
  H41      1.0000 0.38140  0.23410  0.13760  Biso   1.000  H
  H42      1.0000 0.61860  0.76590  0.86240  Biso   1.000  H
  H43      1.0000 0.47600  0.32210  0.18050  Biso   1.000  H
  H44      1.0000 0.52400  0.67790  0.81950  Biso   1.000  H
  H45      1.0000 0.49500  0.22380  0.16150  Biso   1.000  H
  H46      1.0000 0.50500  0.77620  0.83850  Biso   1.000  H
  C37      1.0000 0.77100  0.45040  0.01680  Biso   1.000  C
  C38      1.0000 0.22900  0.54960  0.98320  Biso   1.000  C
  H47      1.0000 0.71740  0.46530  0.04260  Biso   1.000  H
  H48      1.0000 0.28260  0.53470  0.95740  Biso   1.000  H
  C39      1.0000 0.75780  0.50790  0.97060  Biso   1.000  C
  C40      1.0000 0.24220  0.49210  0.02940  Biso   1.000  C
  H49      1.0000 0.83080  0.54830  0.96150  Biso   1.000  H
  H50      1.0000 0.16920  0.45170  0.03850  Biso   1.000  H
  H51      1.0000 0.71820  0.54870  0.98610  Biso   1.000  H
  H52      1.0000 0.28180  0.45130  0.01390  Biso   1.000  H
  H53      1.0000 0.71540  0.46560  0.93320  Biso   1.000  H
  H54      1.0000 0.28460  0.53440  0.06680  Biso   1.000  H
  C41      1.0000 0.85340  0.47040  0.06590  Biso   1.000  C
  C42      1.0000 0.14660  0.52960  0.93410  Biso   1.000  C
  H55      1.0000 0.82530  0.42770  0.09610  Biso   1.000  H
  H56      1.0000 0.17470  0.57230  0.90390  Biso   1.000  H
  H57      1.0000 0.87460  0.53730  0.08520  Biso   1.000  H
  H58      1.0000 0.12540  0.46270  0.91480  Biso   1.000  H
  H59      1.0000 0.91810  0.46030  0.05090  Biso   1.000  H
  H60      1.0000 0.08190  0.53970  0.94910  Biso   1.000  H
  C43      1.0000 0.76000  0.19670  0.88190  Biso   1.000  C
  C44      1.0000 0.24000  0.80330  0.11810  Biso   1.000  C
  H61      1.0000 0.75360  0.14300  0.84880  Biso   1.000  H
  H62      1.0000 0.24640  0.85700  0.15120  Biso   1.000  H
  C45      1.0000 0.76450  0.28140  0.85120  Biso   1.000  C
  C46      1.0000 0.23550  0.71860  0.14880  Biso   1.000  C
  H63      1.0000 0.70310  0.26190  0.81810  Biso   1.000  H
  H64      1.0000 0.29690  0.73810  0.18190  Biso   1.000  H
  H65      1.0000 0.83490  0.30590  0.83400  Biso   1.000  H
  H66      1.0000 0.16510  0.69410  0.16600  Biso   1.000  H
  H67      1.0000 0.75850  0.33190  0.88130  Biso   1.000  H
  H68      1.0000 0.24150  0.66810  0.11870  Biso   1.000  H
  C47      1.0000 0.85960  0.21020  0.92750  Biso   1.000  C
  C48      1.0000 0.14040  0.78980  0.07250  Biso   1.000  C
  H69      1.0000 0.85560  0.24710  0.96620  Biso   1.000  H
  H70      1.0000 0.14440  0.75290  0.03380  Biso   1.000  H
  H71      1.0000 0.92770  0.24490  0.91070  Biso   1.000  H
  H72      1.0000 0.07230  0.75510  0.08930  Biso   1.000  H
  H73      1.0000 0.85960  0.14730  0.93490  Biso   1.000  H
  H74      1.0000 0.14040  0.85270  0.06510  Biso   1.000  H
  C49      1.0000 0.52380  0.03600  0.74350  Biso   1.000  C
  C50      1.0000 0.47620  0.96400  0.25650  Biso   1.000  C
  H75      1.0000 0.50790  0.09630  0.75070  Biso   1.000  H
  H76      1.0000 0.49210  0.90370  0.24930  Biso   1.000  H
  C51      1.0000 0.41560  0.96700  0.71800  Biso   1.000  C
  C52      1.0000 0.58440  0.03300  0.28200  Biso   1.000  C
  H77      1.0000 0.38870  0.98870  0.68190  Biso   1.000  H
  H78      1.0000 0.61130  0.01130  0.31810  Biso   1.000  H
  H79      1.0000 0.36420  0.96230  0.74890  Biso   1.000  H
  H80      1.0000 0.63580  0.03770  0.25110  Biso   1.000  H
  H81      1.0000 0.42060  0.90440  0.70590  Biso   1.000  H
  H82      1.0000 0.57940  0.09560  0.29410  Biso   1.000  H
  C53      1.0000 0.60520  0.06200  0.70860  Biso   1.000  C
  C54      1.0000 0.39480  0.93800  0.29140  Biso   1.000  C
  H83      1.0000 0.67310  0.06090  0.73050  Biso   1.000  H
  H84      1.0000 0.32690  0.93910  0.26950  Biso   1.000  H
  H85      1.0000 0.61730  0.12630  0.69940  Biso   1.000  H
  H86      1.0000 0.38270  0.87370  0.30060  Biso   1.000  H
  H87      1.0000 0.58530  0.01640  0.67020  Biso   1.000  H
  H88      1.0000 0.41470  0.98360  0.32980  Biso   1.000  H
  C55      1.0000 0.74610  0.76570  0.64130  Biso   1.000  C
  C56      1.0000 0.25390  0.23430  0.35870  Biso   1.000  C
  C57      1.0000 0.77950  0.85270  0.69140  Biso   1.000  C
  C58      1.0000 0.22050  0.14730  0.30860  Biso   1.000  C
  C59      1.0000 0.72870  0.85020  0.74560  Biso   1.000  C
  C60      1.0000 0.27130  0.14980  0.25440  Biso   1.000  C
  H89      1.0000 0.66930  0.79450  0.75150  Biso   1.000  H
  H90      1.0000 0.33070  0.20550  0.24850  Biso   1.000  H
  C61      1.0000 0.76750  0.93160  0.79040  Biso   1.000  C
  C62      1.0000 0.23250  0.06840  0.20960  Biso   1.000  C
  H91      1.0000 0.73140  0.93370  0.82610  Biso   1.000  H
  H92      1.0000 0.26860  0.06630  0.17390  Biso   1.000  H
  C63      1.0000 0.85660  0.00680  0.78240  Biso   1.000  C
  C64      1.0000 0.14340  0.99320  0.21760  Biso   1.000  C
  H93      1.0000 0.88460  0.05980  0.81460  Biso   1.000  H
  H94      1.0000 0.11540  0.94020  0.18540  Biso   1.000  H
  C65      1.0000 0.87030  0.93530  0.68680  Biso   1.000  C
  C66      1.0000 0.12970  0.06470  0.31320  Biso   1.000  C
  H95      1.0000 0.90570  0.93700  0.65060  Biso   1.000  H
  H96      1.0000 0.09430  0.06300  0.34940  Biso   1.000  H
  C67      1.0000 0.29120  0.54860  0.66410  Biso   1.000  C
  C68      1.0000 0.70880  0.45140  0.33590  Biso   1.000  C
  C69      1.0000 0.18890  0.48080  0.66970  Biso   1.000  C
  C70      1.0000 0.81110  0.51920  0.33030  Biso   1.000  C
  H97      1.0000 0.16030  0.42180  0.64240  Biso   1.000  H
  H98      1.0000 0.83970  0.57820  0.35760  Biso   1.000  H
  C71      1.0000 0.12650  0.50070  0.71720  Biso   1.000  C
  C72      1.0000 0.87350  0.49930  0.28280  Biso   1.000  C
  H99      1.0000 0.05910  0.45240  0.72290  Biso   1.000  H
  H100     1.0000 0.94090  0.54760  0.27710  Biso   1.000  H
  C73      1.0000 0.16200  0.58760  0.75420  Biso   1.000  C
  C74      1.0000 0.83800  0.41240  0.24580  Biso   1.000  C
  H101     1.0000 0.11920  0.60040  0.78470  Biso   1.000  H
  H102     1.0000 0.88080  0.39960  0.21530  Biso   1.000  H
  C75      1.0000 0.25880  0.65460  0.74640  Biso   1.000  C
  C76      1.0000 0.74120  0.34540  0.25360  Biso   1.000  C
  H103     1.0000 0.28480  0.71510  0.77210  Biso   1.000  H
  H104     1.0000 0.71520  0.28490  0.22790  Biso   1.000  H
  C77      1.0000 0.32220  0.63650  0.70080  Biso   1.000  C
  C78      1.0000 0.67780  0.36350  0.29920  Biso   1.000  C
  H105     1.0000 0.38840  0.68640  0.69520  Biso   1.000  H
  H106     1.0000 0.61160  0.31360  0.30480  Biso   1.000  H
  C79      1.0000 0.39280  0.82530  0.52050  Biso   1.000  C
  C80      1.0000 0.60720  0.17470  0.47950  Biso   1.000  C
  H107     1.0000 0.44840  0.88870  0.54060  Biso   1.000  H
  H108     1.0000 0.55160  0.11130  0.45940  Biso   1.000  H
  C81      1.0000 0.31700  0.80300  0.56360  Biso   1.000  C
  C82      1.0000 0.68300  0.19700  0.43640  Biso   1.000  C
  H109     1.0000 0.25450  0.74380  0.54700  Biso   1.000  H
  H110     1.0000 0.74550  0.25620  0.45300  Biso   1.000  H
  H111     1.0000 0.29000  0.85560  0.57250  Biso   1.000  H
  H112     1.0000 0.71000  0.14440  0.42750  Biso   1.000  H
  H113     1.0000 0.35340  0.79400  0.60150  Biso   1.000  H
  H114     1.0000 0.64660  0.20600  0.39850  Biso   1.000  H
  C83      1.0000 0.35470  0.84810  0.46250  Biso   1.000  C
  C84      1.0000 0.64530  0.15190  0.53750  Biso   1.000  C
  H115     1.0000 0.31340  0.78850  0.43450  Biso   1.000  H
  H116     1.0000 0.68660  0.21150  0.56550  Biso   1.000  H
  H117     1.0000 0.41870  0.88650  0.44380  Biso   1.000  H
  H118     1.0000 0.58130  0.11350  0.55620  Biso   1.000  H
  H119     1.0000 0.30670  0.88460  0.47020  Biso   1.000  H
  H120     1.0000 0.69330  0.11540  0.52980  Biso   1.000  H
  C85      1.0000 0.67100  0.79610  0.42410  Biso   1.000  C
  C86      1.0000 0.32900  0.20390  0.57590  Biso   1.000  C
  H121     1.0000 0.74520  0.79720  0.41410  Biso   1.000  H
  H122     1.0000 0.25480  0.20280  0.58590  Biso   1.000  H
  C87      1.0000 0.60140  0.75680  0.36720  Biso   1.000  C
  C88      1.0000 0.39860  0.24320  0.63280  Biso   1.000  C
  H123     1.0000 0.62870  0.71280  0.34310  Biso   1.000  H
  H124     1.0000 0.37130  0.28720  0.65690  Biso   1.000  H
  H125     1.0000 0.60220  0.80880  0.34420  Biso   1.000  H
  H126     1.0000 0.39780  0.19120  0.65580  Biso   1.000  H
  H127     1.0000 0.52560  0.72180  0.37520  Biso   1.000  H
  H128     1.0000 0.47440  0.27820  0.62480  Biso   1.000  H
  C89      1.0000 0.69360  0.89670  0.45360  Biso   1.000  C
  C90      1.0000 0.30640  0.10330  0.54640  Biso   1.000  C
  H129     1.0000 0.71560  0.94030  0.42320  Biso   1.000  H
  H130     1.0000 0.28440  0.05970  0.57680  Biso   1.000  H
  H131     1.0000 0.75340  0.91520  0.48760  Biso   1.000  H
  H132     1.0000 0.24660  0.08480  0.51240  Biso   1.000  H
  H133     1.0000 0.62660  0.90060  0.46950  Biso   1.000  H
  H134     1.0000 0.37340  0.09940  0.53050  Biso   1.000  H
  C91      1.0000 0.98140  0.80010  0.48300  Biso   1.000  C
  C92      1.0000 0.01860  0.19990  0.51700  Biso   1.000  C
  C93      1.0000 0.00740  0.80190  0.42580  Biso   1.000  C
  C94      1.0000 0.99260  0.19810  0.57420  Biso   1.000  C
  H135     1.0000 0.95060  0.81380  0.40000  Biso   1.000  H
  H136     1.0000 0.04940  0.18620  0.60000  Biso   1.000  H
  H137     1.0000 0.01160  0.74010  0.40960  Biso   1.000  H
  H138     1.0000 0.98840  0.25990  0.59040  Biso   1.000  H
  H139     1.0000 0.07920  0.85320  0.42580  Biso   1.000  H
  H140     1.0000 0.92080  0.14680  0.57420  Biso   1.000  H
  C95      1.0000 0.03020  0.87000  0.53230  Biso   1.000  C
  C96      1.0000 0.96980  0.13000  0.46770  Biso   1.000  C
  H141     1.0000 0.01100  0.84340  0.57020  Biso   1.000  H
  H142     1.0000 0.98900  0.15660  0.42980  Biso   1.000  H
  H143     1.0000 0.00400  0.92310  0.52970  Biso   1.000  H
  H144     1.0000 0.99600  0.07690  0.47030  Biso   1.000  H
  H145     1.0000 0.11070  0.89360  0.53230  Biso   1.000  H
  H146     1.0000 0.88930  0.10640  0.46770  Biso   1.000  H
  C97      1.0000 0.87120  0.56020  0.57500  Biso   1.000  C
  C98      1.0000 0.12880  0.43980  0.42500  Biso   1.000  C
  C99      1.0000 0.85800  0.47250  0.54990  Biso   1.000  C
  C100     1.0000 0.14200  0.52750  0.45010  Biso   1.000  C
  H147     1.0000 0.89250  0.44460  0.57940  Biso   1.000  H
  H148     1.0000 0.10750  0.55540  0.42060  Biso   1.000  H
  H149     1.0000 0.89410  0.47490  0.51230  Biso   1.000  H
  H150     1.0000 0.10590  0.52510  0.48770  Biso   1.000  H
  C101     1.0000 0.95550  0.63100  0.62260  Biso   1.000  C
  C102     1.0000 0.04450  0.36900  0.37740  Biso   1.000  C
  H151     1.0000 0.01030  0.60420  0.63590  Biso   1.000  H
  H152     1.0000 0.98970  0.39580  0.36410  Biso   1.000  H
  H153     1.0000 0.91950  0.64580  0.65790  Biso   1.000  H
  H154     1.0000 0.08050  0.35420  0.34210  Biso   1.000  H
  H155     1.0000 0.99230  0.68990  0.60560  Biso   1.000  H
  H156     1.0000 0.00770  0.31010  0.39440  Biso   1.000  H
  C103     1.0000 0.70450  0.49730  0.73510  Biso   1.000  C
  C104     1.0000 0.29550  0.50270  0.26490  Biso   1.000  C
  H157     1.0000 0.74850  0.56570  0.75260  Biso   1.000  H
  H158     1.0000 0.25150  0.43430  0.24740  Biso   1.000  H
  C105     1.0000 0.62700  0.48000  0.77140  Biso   1.000  C
  C106     1.0000 0.37300  0.52000  0.22860  Biso   1.000  C
  H159     1.0000 0.57880  0.51560  0.76200  Biso   1.000  H
  H160     1.0000 0.42120  0.48440  0.23800  Biso   1.000  H
  H161     1.0000 0.66060  0.50110  0.81420  Biso   1.000  H
  H162     1.0000 0.33940  0.49890  0.18580  Biso   1.000  H
  H163     1.0000 0.58280  0.41130  0.76530  Biso   1.000  H
  H164     1.0000 0.41720  0.58870  0.23470  Biso   1.000  H
  C107     1.0000 0.79200  0.45600  0.74580  Biso   1.000  C
  C108     1.0000 0.20800  0.54400  0.25420  Biso   1.000  C
  H165     1.0000 0.77860  0.42080  0.78090  Biso   1.000  H
  H166     1.0000 0.22140  0.57920  0.21910  Biso   1.000  H
  H167     1.0000 0.86230  0.51060  0.75520  Biso   1.000  H
  H168     1.0000 0.13770  0.48940  0.24480  Biso   1.000  H
