data_image0
_cell_length_a       12.8145
_cell_length_b       14.7882
_cell_length_c       21.93
_cell_angle_alpha    97.346
_cell_angle_beta     94.755
_cell_angle_gamma    109.668

_symmetry_space_group_name_H-M    "P 1"
_symmetry_int_tables_number       1

loop_
  _symmetry_equiv_pos_as_xyz
  'x, y, z'

loop_
  _atom_site_label
  _atom_site_occupancy
  _atom_site_fract_x
  _atom_site_fract_y
  _atom_site_fract_z
  _atom_site_thermal_displace_type
  _atom_site_B_iso_or_equiv
  _atom_site_type_symbol
  Ti1      1.0000 0.52532  0.03728  0.88628  Biso   1.000  Ti
  Ti2      1.0000 0.47468  0.96272  0.11372  Biso   1.000  Ti
  Ti3      1.0000 0.60693  0.22452  0.98870  Biso   1.000  Ti
  Ti4      1.0000 0.39307  0.77548  0.01130  Biso   1.000  Ti
  Ti5      1.0000 0.37938  0.08959  0.01866  Biso   1.000  Ti
  Ti6      1.0000 0.62062  0.91041  0.98134  Biso   1.000  Ti
  Ti7      1.0000 0.62968  0.54014  0.60846  Biso   1.000  Ti
  Ti8      1.0000 0.37032  0.45986  0.39154  Biso   1.000  Ti
  Ti9      1.0000 0.73590  0.66603  0.51057  Biso   1.000  Ti
  Ti10     1.0000 0.26410  0.33397  0.48943  Biso   1.000  Ti
  Ti11     1.0000 0.49289  0.66437  0.50519  Biso   1.000  Ti
  Ti12     1.0000 0.50711  0.33563  0.49481  Biso   1.000  Ti
  Cu1      1.0000 0.04868  0.12743  0.73292  Biso   1.000  Cu
  Cu2      1.0000 0.95132  0.87257  0.26708  Biso   1.000  Cu
  O1       1.0000 0.50440  0.26260  0.92459  Biso   1.000  O
  O2       1.0000 0.49560  0.73740  0.07541  Biso   1.000  O
  O3       1.0000 0.42930  0.12300  0.85656  Biso   1.000  O
  O4       1.0000 0.57070  0.87700  0.14344  Biso   1.000  O
  O5       1.0000 0.72240  0.02540  0.03779  Biso   1.000  O
  O6       1.0000 0.27760  0.97460  0.96221  Biso   1.000  O
  O7       1.0000 0.61840  0.07160  0.12171  Biso   1.000  O
  O8       1.0000 0.38160  0.92840  0.87829  Biso   1.000  O
  O9       1.0000 0.69970  0.18840  0.04840  Biso   1.000  O
  O10      1.0000 0.30030  0.81160  0.95160  Biso   1.000  O
  O11      1.0000 0.49310  0.09080  0.96832  Biso   1.000  O
  O12      1.0000 0.50690  0.90920  0.03168  Biso   1.000  O
  O13      1.0000 0.49870  0.22470  0.04684  Biso   1.000  O
  O14      1.0000 0.50130  0.77530  0.95316  Biso   1.000  O
  O15      1.0000 0.69570  0.34830  0.00398  Biso   1.000  O
  O16      1.0000 0.30430  0.65170  0.99602  Biso   1.000  O
  O17      1.0000 0.65430  0.16530  0.91469  Biso   1.000  O
  O18      1.0000 0.34570  0.83470  0.08531  Biso   1.000  O
  O19      1.0000 0.54600  0.02300  0.80716  Biso   1.000  O
  O20      1.0000 0.45400  0.97700  0.19284  Biso   1.000  O
  O21      1.0000 0.77270  0.77530  0.59069  Biso   1.000  O
  O22      1.0000 0.22730  0.22470  0.40931  Biso   1.000  O
  O23      1.0000 0.68950  0.68510  0.66010  Biso   1.000  O
  O24      1.0000 0.31050  0.31490  0.33990  Biso   1.000  O
  O25      1.0000 0.39460  0.61480  0.56673  Biso   1.000  O
  O26      1.0000 0.60540  0.38520  0.43327  Biso   1.000  O
  O27      1.0000 0.48130  0.52460  0.63303  Biso   1.000  O
  O28      1.0000 0.51870  0.47540  0.36697  Biso   1.000  O
  O29      1.0000 0.30050  0.43480  0.56271  Biso   1.000  O
  O30      1.0000 0.69950  0.56520  0.43729  Biso   1.000  O
  O31      1.0000 0.45770  0.77160  0.51060  Biso   1.000  O
  O32      1.0000 0.54230  0.22840  0.48940  Biso   1.000  O
  O33      1.0000 0.59350  0.60940  0.54265  Biso   1.000  O
  O34      1.0000 0.40650  0.39060  0.45735  Biso   1.000  O
  O35      1.0000 0.86760  0.73360  0.49105  Biso   1.000  O
  O36      1.0000 0.13240  0.26640  0.50895  Biso   1.000  O
  O37      1.0000 0.77160  0.58480  0.56793  Biso   1.000  O
  O38      1.0000 0.22840  0.41520  0.43207  Biso   1.000  O
  O39      1.0000 0.68550  0.50980  0.67700  Biso   1.000  O
  O40      1.0000 0.31450  0.49020  0.32300  Biso   1.000  O
  O41      1.0000 0.27300  0.14290  0.01840  Biso   1.000  O
  O42      1.0000 0.72700  0.85710  0.98160  Biso   1.000  O
  O43      1.0000 0.39150  0.03410  0.08469  Biso   1.000  O
  O44      1.0000 0.60850  0.96590  0.91531  Biso   1.000  O
  O45      1.0000 0.41650  0.58340  0.43805  Biso   1.000  O
  O46      1.0000 0.58350  0.41660  0.56195  Biso   1.000  O
  O47      1.0000 0.63960  0.72870  0.47330  Biso   1.000  O
  O48      1.0000 0.36040  0.27130  0.52670  Biso   1.000  O
  P1       1.0000 0.71105  0.10838  0.08281  Biso   1.000  P
  P2       1.0000 0.28895  0.89162  0.91719  Biso   1.000  P
  P3       1.0000 0.37347  0.52995  0.60226  Biso   1.000  P
  P4       1.0000 0.62653  0.47005  0.39774  Biso   1.000  P
  Br1      1.0000 0.94929  0.23639  0.74414  Biso   1.000  Br
  Br2      1.0000 0.05071  0.76361  0.25586  Biso   1.000  Br
  Br3      1.0000 0.13789  0.03801  0.67468  Biso   1.000  Br
  Br4      1.0000 0.86211  0.96199  0.32532  Biso   1.000  Br
  N1       1.0000 0.19690  0.22520  0.77740  Biso   1.000  N
  N2       1.0000 0.80310  0.77480  0.22260  Biso   1.000  N
  N3       1.0000 0.90960  0.01210  0.73360  Biso   1.000  N
  N4       1.0000 0.09040  0.98790  0.26640  Biso   1.000  N
  C1       1.0000 0.43900  0.20890  0.87810  Biso   1.000  C
  C2       1.0000 0.56100  0.79110  0.12190  Biso   1.000  C
  C3       1.0000 0.36470  0.25210  0.84510  Biso   1.000  C
  C4       1.0000 0.63530  0.74790  0.15490  Biso   1.000  C
  C5       1.0000 0.26760  0.19140  0.80640  Biso   1.000  C
  C6       1.0000 0.73240  0.80860  0.19360  Biso   1.000  C
  H1       1.0000 0.25190  0.12450  0.80060  Biso   1.000  H
  H2       1.0000 0.74810  0.87550  0.19940  Biso   1.000  H
  C7       1.0000 0.22580  0.32150  0.78180  Biso   1.000  C
  C8       1.0000 0.77420  0.67850  0.21820  Biso   1.000  C
  H3       1.0000 0.17900  0.34570  0.75960  Biso   1.000  H
  H4       1.0000 0.82100  0.65430  0.24040  Biso   1.000  H
  C9       1.0000 0.32200  0.38730  0.81740  Biso   1.000  C
  C10      1.0000 0.67800  0.61270  0.18260  Biso   1.000  C
  H5       1.0000 0.33940  0.45400  0.81900  Biso   1.000  H
  H6       1.0000 0.66060  0.54600  0.18100  Biso   1.000  H
  C11      1.0000 0.39130  0.35180  0.85030  Biso   1.000  C
  C12      1.0000 0.60870  0.64820  0.14970  Biso   1.000  C
  H7       1.0000 0.45520  0.39420  0.87580  Biso   1.000  H
  H8       1.0000 0.54480  0.60580  0.12420  Biso   1.000  H
  C13      1.0000 0.83880  0.16370  0.13490  Biso   1.000  C
  C14      1.0000 0.16120  0.83630  0.86510  Biso   1.000  C
  C15      1.0000 0.92280  0.24330  0.12170  Biso   1.000  C
  C16      1.0000 0.07720  0.75670  0.87830  Biso   1.000  C
  H9       1.0000 0.91250  0.26930  0.08620  Biso   1.000  H
  H10      1.0000 0.08750  0.73070  0.91380  Biso   1.000  H
  C17      1.0000 0.02340  0.28460  0.16200  Biso   1.000  C
  C18      1.0000 0.97660  0.71540  0.83800  Biso   1.000  C
  H11      1.0000 0.08080  0.33690  0.15260  Biso   1.000  H
  H12      1.0000 0.91920  0.66310  0.84740  Biso   1.000  H
  C19      1.0000 0.03730  0.24840  0.21490  Biso   1.000  C
  C20      1.0000 0.96270  0.75160  0.78510  Biso   1.000  C
  H13      1.0000 0.10320  0.27780  0.24230  Biso   1.000  H
  H14      1.0000 0.89680  0.72220  0.75770  Biso   1.000  H
  C21      1.0000 0.95660  0.17040  0.22770  Biso   1.000  C
  C22      1.0000 0.04340  0.82960  0.77230  Biso   1.000  C
  H15      1.0000 0.96780  0.14510  0.26340  Biso   1.000  H
  H16      1.0000 0.03220  0.85490  0.73660  Biso   1.000  H
  C23      1.0000 0.85660  0.12720  0.18810  Biso   1.000  C
  C24      1.0000 0.14340  0.87280  0.81190  Biso   1.000  C
  H17      1.0000 0.80130  0.07340  0.19750  Biso   1.000  H
  H18      1.0000 0.19870  0.92660  0.80250  Biso   1.000  H
  C25      1.0000 0.15630  0.11580  0.00110  Biso   1.000  C
  C26      1.0000 0.84370  0.88420  0.99890  Biso   1.000  C
  H19      1.0000 0.12520  0.04510  0.99940  Biso   1.000  H
  H20      1.0000 0.87480  0.95490  0.00060  Biso   1.000  H
  C27      1.0000 0.13010  0.13250  0.94130  Biso   1.000  C
  C28      1.0000 0.86990  0.86750  0.05870  Biso   1.000  C
  H21      1.0000 0.17580  0.19710  0.93690  Biso   1.000  H
  H22      1.0000 0.82420  0.80290  0.06310  Biso   1.000  H
  H23      1.0000 0.05260  0.12580  0.93460  Biso   1.000  H
  H24      1.0000 0.94740  0.87420  0.06540  Biso   1.000  H
  H25      1.0000 0.14380  0.08600  0.91130  Biso   1.000  H
  H26      1.0000 0.85620  0.91400  0.08870  Biso   1.000  H
  C29      1.0000 0.10600  0.15650  0.04800  Biso   1.000  C
  C30      1.0000 0.89400  0.84350  0.95200  Biso   1.000  C
  H27      1.0000 0.14910  0.22440  0.06090  Biso   1.000  H
  H28      1.0000 0.85090  0.77560  0.93910  Biso   1.000  H
  H29      1.0000 0.10400  0.12320  0.08300  Biso   1.000  H
  H30      1.0000 0.89600  0.87680  0.91700  Biso   1.000  H
  H31      1.0000 0.03120  0.14910  0.03170  Biso   1.000  H
  H32      1.0000 0.96880  0.85090  0.96830  Biso   1.000  H
  C31      1.0000 0.50630  0.30380  0.09530  Biso   1.000  C
  C32      1.0000 0.49370  0.69620  0.90470  Biso   1.000  C
  H33      1.0000 0.58560  0.34120  0.10950  Biso   1.000  H
  H34      1.0000 0.41440  0.65880  0.89050  Biso   1.000  H
  C33      1.0000 0.45390  0.37000  0.06780  Biso   1.000  C
  C34      1.0000 0.54610  0.63000  0.93220  Biso   1.000  C
  H35      1.0000 0.49020  0.39200  0.03310  Biso   1.000  H
  H36      1.0000 0.50980  0.60800  0.96690  Biso   1.000  H
  H37      1.0000 0.46240  0.42510  0.09870  Biso   1.000  H
  H38      1.0000 0.53760  0.57490  0.90130  Biso   1.000  H
  H39      1.0000 0.37580  0.33480  0.05420  Biso   1.000  H
  H40      1.0000 0.62420  0.66520  0.94580  Biso   1.000  H
  C35      1.0000 0.45340  0.26610  0.14920  Biso   1.000  C
  C36      1.0000 0.54660  0.73390  0.85080  Biso   1.000  C
  H41      1.0000 0.37380  0.23760  0.13780  Biso   1.000  H
  H42      1.0000 0.62620  0.76240  0.86220  Biso   1.000  H
  H43      1.0000 0.47060  0.31870  0.18330  Biso   1.000  H
  H44      1.0000 0.52940  0.68130  0.81670  Biso   1.000  H
  H45      1.0000 0.48180  0.21770  0.16120  Biso   1.000  H
  H46      1.0000 0.51820  0.78230  0.83880  Biso   1.000  H
  C37      1.0000 0.76050  0.44640  0.02100  Biso   1.000  C
  C38      1.0000 0.23950  0.55360  0.97900  Biso   1.000  C
  H47      1.0000 0.71120  0.46340  0.04860  Biso   1.000  H
  H48      1.0000 0.28880  0.53660  0.95140  Biso   1.000  H
  C39      1.0000 0.74910  0.50550  0.97670  Biso   1.000  C
  C40      1.0000 0.25090  0.49450  0.02330  Biso   1.000  C
  H49      1.0000 0.80670  0.51210  0.95040  Biso   1.000  H
  H50      1.0000 0.19330  0.48790  0.04960  Biso   1.000  H
  H51      1.0000 0.75580  0.56860  0.99770  Biso   1.000  H
  H52      1.0000 0.24420  0.43140  0.00230  Biso   1.000  H
  H53      1.0000 0.67720  0.47580  0.95190  Biso   1.000  H
  H54      1.0000 0.32280  0.52420  0.04810  Biso   1.000  H
  C41      1.0000 0.85240  0.46870  0.06610  Biso   1.000  C
  C42      1.0000 0.14760  0.53130  0.93390  Biso   1.000  C
  H55      1.0000 0.83160  0.43000  0.09810  Biso   1.000  H
  H56      1.0000 0.16840  0.57000  0.90190  Biso   1.000  H
  H57      1.0000 0.87710  0.53640  0.08370  Biso   1.000  H
  H58      1.0000 0.12290  0.46360  0.91630  Biso   1.000  H
  H59      1.0000 0.91190  0.45490  0.04760  Biso   1.000  H
  H60      1.0000 0.08810  0.54510  0.95240  Biso   1.000  H
  C43      1.0000 0.75220  0.19720  0.88410  Biso   1.000  C
  C44      1.0000 0.24780  0.80280  0.11590  Biso   1.000  C
  H61      1.0000 0.74580  0.14530  0.84980  Biso   1.000  H
  H62      1.0000 0.25420  0.85470  0.15020  Biso   1.000  H
  C45      1.0000 0.75410  0.28610  0.85660  Biso   1.000  C
  C46      1.0000 0.24590  0.71390  0.14340  Biso   1.000  C
  H63      1.0000 0.68320  0.27320  0.83230  Biso   1.000  H
  H64      1.0000 0.31680  0.72680  0.16770  Biso   1.000  H
  H65      1.0000 0.81220  0.30150  0.83060  Biso   1.000  H
  H66      1.0000 0.18780  0.69850  0.16940  Biso   1.000  H
  H67      1.0000 0.76800  0.34010  0.88930  Biso   1.000  H
  H68      1.0000 0.23200  0.65990  0.11070  Biso   1.000  H
  C47      1.0000 0.85550  0.21140  0.92870  Biso   1.000  C
  C48      1.0000 0.14450  0.78860  0.07130  Biso   1.000  C
  H69      1.0000 0.86840  0.26640  0.96050  Biso   1.000  H
  H70      1.0000 0.13160  0.73360  0.03950  Biso   1.000  H
  H71      1.0000 0.91900  0.22260  0.90650  Biso   1.000  H
  H72      1.0000 0.08100  0.77740  0.09350  Biso   1.000  H
  H73      1.0000 0.84460  0.15410  0.94730  Biso   1.000  H
  H74      1.0000 0.15540  0.84590  0.05270  Biso   1.000  H
  C49      1.0000 0.51610  0.03320  0.74570  Biso   1.000  C
  C50      1.0000 0.48390  0.96680  0.25430  Biso   1.000  C
  H75      1.0000 0.49370  0.09050  0.75260  Biso   1.000  H
  H76      1.0000 0.50630  0.90950  0.24740  Biso   1.000  H
  C51      1.0000 0.41260  0.95900  0.71780  Biso   1.000  C
  C52      1.0000 0.58740  0.04100  0.28220  Biso   1.000  C
  H77      1.0000 0.37430  0.98460  0.68880  Biso   1.000  H
  H78      1.0000 0.62570  0.01540  0.31120  Biso   1.000  H
  H79      1.0000 0.36680  0.93820  0.74940  Biso   1.000  H
  H80      1.0000 0.63320  0.06180  0.25060  Biso   1.000  H
  H81      1.0000 0.42730  0.90470  0.69640  Biso   1.000  H
  H82      1.0000 0.57270  0.09530  0.30360  Biso   1.000  H
  C53      1.0000 0.60150  0.06430  0.71130  Biso   1.000  C
  C54      1.0000 0.39850  0.93570  0.28870  Biso   1.000  C
  H83      1.0000 0.62370  0.01060  0.69610  Biso   1.000  H
  H84      1.0000 0.37630  0.98940  0.30390  Biso   1.000  H
  H85      1.0000 0.66400  0.11440  0.73670  Biso   1.000  H
  H86      1.0000 0.33600  0.88560  0.26330  Biso   1.000  H
  H87      1.0000 0.57700  0.08970  0.67690  Biso   1.000  H
  H88      1.0000 0.42300  0.91030  0.32310  Biso   1.000  H
  C55      1.0000 0.74340  0.76340  0.64410  Biso   1.000  C
  C56      1.0000 0.25660  0.23660  0.35590  Biso   1.000  C
  C57      1.0000 0.77940  0.85210  0.69300  Biso   1.000  C
  C58      1.0000 0.22060  0.14790  0.30700  Biso   1.000  C
  C59      1.0000 0.73180  0.85270  0.74650  Biso   1.000  C
  C60      1.0000 0.26820  0.14730  0.25350  Biso   1.000  C
  H89      1.0000 0.67260  0.79810  0.75160  Biso   1.000  H
  H90      1.0000 0.32740  0.20190  0.24840  Biso   1.000  H
  C61      1.0000 0.77020  0.93320  0.79300  Biso   1.000  C
  C62      1.0000 0.22980  0.06680  0.20700  Biso   1.000  C
  H91      1.0000 0.73610  0.93480  0.82870  Biso   1.000  H
  H92      1.0000 0.26390  0.06520  0.17130  Biso   1.000  H
  C63      1.0000 0.85840  0.00900  0.78470  Biso   1.000  C
  C64      1.0000 0.14160  0.99100  0.21530  Biso   1.000  C
  H93      1.0000 0.88580  0.06270  0.81630  Biso   1.000  H
  H94      1.0000 0.11420  0.93730  0.18370  Biso   1.000  H
  C65      1.0000 0.86800  0.93560  0.68740  Biso   1.000  C
  C66      1.0000 0.13200  0.06440  0.31260  Biso   1.000  C
  H95      1.0000 0.89910  0.93830  0.65050  Biso   1.000  H
  H96      1.0000 0.10090  0.06170  0.34950  Biso   1.000  H
  C67      1.0000 0.29470  0.55350  0.66250  Biso   1.000  C
  C68      1.0000 0.70530  0.44650  0.33750  Biso   1.000  C
  C69      1.0000 0.19440  0.48460  0.66950  Biso   1.000  C
  C70      1.0000 0.80560  0.51540  0.33050  Biso   1.000  C
  H97      1.0000 0.16810  0.42390  0.64420  Biso   1.000  H
  H98      1.0000 0.83190  0.57610  0.35580  Biso   1.000  H
  C71      1.0000 0.13250  0.50740  0.71530  Biso   1.000  C
  C72      1.0000 0.86750  0.49260  0.28470  Biso   1.000  C
  H99      1.0000 0.06410  0.46170  0.71960  Biso   1.000  H
  H100     1.0000 0.93590  0.53830  0.28040  Biso   1.000  H
  C73      1.0000 0.17050  0.59380  0.75300  Biso   1.000  C
  C74      1.0000 0.82950  0.40620  0.24700  Biso   1.000  C
  H101     1.0000 0.12900  0.60730  0.78340  Biso   1.000  H
  H102     1.0000 0.87100  0.39270  0.21660  Biso   1.000  H
  C75      1.0000 0.26900  0.66110  0.74680  Biso   1.000  C
  C76      1.0000 0.73100  0.33890  0.25320  Biso   1.000  C
  H103     1.0000 0.29570  0.72080  0.77310  Biso   1.000  H
  H104     1.0000 0.70430  0.27920  0.22690  Biso   1.000  H
  C77      1.0000 0.33050  0.64080  0.70100  Biso   1.000  C
  C78      1.0000 0.66950  0.35920  0.29900  Biso   1.000  C
  H105     1.0000 0.39760  0.68810  0.69650  Biso   1.000  H
  H106     1.0000 0.60240  0.31190  0.30350  Biso   1.000  H
  C79      1.0000 0.38870  0.82640  0.51880  Biso   1.000  C
  C80      1.0000 0.61130  0.17360  0.48120  Biso   1.000  C
  H107     1.0000 0.44190  0.89140  0.53670  Biso   1.000  H
  H108     1.0000 0.55810  0.10860  0.46330  Biso   1.000  H
  C81      1.0000 0.31570  0.80800  0.56110  Biso   1.000  C
  C82      1.0000 0.68430  0.19200  0.43890  Biso   1.000  C
  H109     1.0000 0.25950  0.74460  0.54790  Biso   1.000  H
  H110     1.0000 0.74050  0.25540  0.45210  Biso   1.000  H
  H111     1.0000 0.28080  0.85630  0.56450  Biso   1.000  H
  H112     1.0000 0.71920  0.14370  0.43550  Biso   1.000  H
  H113     1.0000 0.35520  0.81000  0.60070  Biso   1.000  H
  H114     1.0000 0.64480  0.19000  0.39930  Biso   1.000  H
  C83      1.0000 0.34390  0.84150  0.45970  Biso   1.000  C
  C84      1.0000 0.65610  0.15850  0.54030  Biso   1.000  C
  H115     1.0000 0.30470  0.77960  0.43390  Biso   1.000  H
  H116     1.0000 0.69530  0.22040  0.56610  Biso   1.000  H
  H117     1.0000 0.40400  0.87890  0.43980  Biso   1.000  H
  H118     1.0000 0.59600  0.12110  0.56020  Biso   1.000  H
  H119     1.0000 0.29320  0.87600  0.46630  Biso   1.000  H
  H120     1.0000 0.70680  0.12400  0.53370  Biso   1.000  H
  C85      1.0000 0.66840  0.79450  0.42780  Biso   1.000  C
  C86      1.0000 0.33160  0.20550  0.57220  Biso   1.000  C
  H121     1.0000 0.74040  0.79380  0.41610  Biso   1.000  H
  H122     1.0000 0.25960  0.20620  0.58390  Biso   1.000  H
  C87      1.0000 0.59040  0.75770  0.37240  Biso   1.000  C
  C88      1.0000 0.40960  0.24230  0.62760  Biso   1.000  C
  H123     1.0000 0.59020  0.69470  0.35500  Biso   1.000  H
  H124     1.0000 0.40980  0.30530  0.64500  Biso   1.000  H
  H125     1.0000 0.61140  0.80140  0.34310  Biso   1.000  H
  H126     1.0000 0.38860  0.19860  0.65690  Biso   1.000  H
  H127     1.0000 0.51690  0.75230  0.38200  Biso   1.000  H
  H128     1.0000 0.48310  0.24770  0.61800  Biso   1.000  H
  C89      1.0000 0.68910  0.89550  0.45880  Biso   1.000  C
  C90      1.0000 0.31090  0.10450  0.54120  Biso   1.000  C
  H129     1.0000 0.71180  0.93960  0.42980  Biso   1.000  H
  H130     1.0000 0.28820  0.06040  0.57020  Biso   1.000  H
  H131     1.0000 0.74720  0.91300  0.49340  Biso   1.000  H
  H132     1.0000 0.25280  0.08700  0.50660  Biso   1.000  H
  H133     1.0000 0.62180  0.89930  0.47330  Biso   1.000  H
  H134     1.0000 0.37820  0.10070  0.52670  Biso   1.000  H
  C91      1.0000 0.97230  0.79950  0.48410  Biso   1.000  C
  C92      1.0000 0.02770  0.20050  0.51590  Biso   1.000  C
  H135     1.0000 0.01300  0.76150  0.50200  Biso   1.000  H
  H136     1.0000 0.98700  0.23850  0.49800  Biso   1.000  H
  C93      1.0000 0.00790  0.78880  0.42880  Biso   1.000  C
  C94      1.0000 0.99210  0.21120  0.57120  Biso   1.000  C
  H137     1.0000 0.96960  0.81410  0.39970  Biso   1.000  H
  H138     1.0000 0.03040  0.18590  0.60030  Biso   1.000  H
  H139     1.0000 0.99270  0.72100  0.41430  Biso   1.000  H
  H140     1.0000 0.00730  0.27900  0.58570  Biso   1.000  H
  H141     1.0000 0.08690  0.82380  0.43280  Biso   1.000  H
  H142     1.0000 0.91310  0.17620  0.56720  Biso   1.000  H
  C95      1.0000 0.01980  0.87550  0.52730  Biso   1.000  C
  C96      1.0000 0.98020  0.12450  0.47270  Biso   1.000  C
  H143     1.0000 0.98160  0.86700  0.56320  Biso   1.000  H
  H144     1.0000 0.01840  0.13300  0.43680  Biso   1.000  H
  H145     1.0000 0.01610  0.93260  0.51220  Biso   1.000  H
  H146     1.0000 0.98390  0.06740  0.48780  Biso   1.000  H
  H147     1.0000 0.09660  0.88280  0.53830  Biso   1.000  H
  H148     1.0000 0.90340  0.11720  0.46170  Biso   1.000  H
  C97      1.0000 0.87110  0.55830  0.57610  Biso   1.000  C
  C98      1.0000 0.12890  0.44170  0.42390  Biso   1.000  C
  H149     1.0000 0.90250  0.58910  0.54150  Biso   1.000  H
  H150     1.0000 0.09750  0.41090  0.45850  Biso   1.000  H
  C99      1.0000 0.86310  0.47360  0.55030  Biso   1.000  C
  C100     1.0000 0.13690  0.52640  0.44970  Biso   1.000  C
  H151     1.0000 0.81220  0.42550  0.56960  Biso   1.000  H
  H152     1.0000 0.18780  0.57450  0.43040  Biso   1.000  H
  H153     1.0000 0.93530  0.46720  0.55480  Biso   1.000  H
  H154     1.0000 0.06470  0.53280  0.44520  Biso   1.000  H
  H155     1.0000 0.83570  0.46430  0.50700  Biso   1.000  H
  H156     1.0000 0.16430  0.53570  0.49300  Biso   1.000  H
  C101     1.0000 0.95710  0.62900  0.62230  Biso   1.000  C
  C102     1.0000 0.04290  0.37100  0.37770  Biso   1.000  C
  H157     1.0000 0.02030  0.60840  0.62750  Biso   1.000  H
  H158     1.0000 0.97970  0.39160  0.37250  Biso   1.000  H
  H159     1.0000 0.92810  0.63410  0.66110  Biso   1.000  H
  H160     1.0000 0.07190  0.36590  0.33890  Biso   1.000  H
  H161     1.0000 0.97980  0.69130  0.60900  Biso   1.000  H
  H162     1.0000 0.02020  0.30870  0.39100  Biso   1.000  H
  C103     1.0000 0.70940  0.49490  0.73330  Biso   1.000  C
  C104     1.0000 0.29060  0.50510  0.26670  Biso   1.000  C
  H163     1.0000 0.75830  0.56130  0.75150  Biso   1.000  H
  H164     1.0000 0.24170  0.43870  0.24850  Biso   1.000  H
  C105     1.0000 0.63400  0.48200  0.77340  Biso   1.000  C
  C106     1.0000 0.36600  0.51800  0.22660  Biso   1.000  C
  H165     1.0000 0.62940  0.54330  0.78970  Biso   1.000  H
  H166     1.0000 0.37060  0.45670  0.21030  Biso   1.000  H
  H167     1.0000 0.65750  0.45350  0.80670  Biso   1.000  H
  H168     1.0000 0.34250  0.54650  0.19330  Biso   1.000  H
  H169     1.0000 0.56270  0.43880  0.75240  Biso   1.000  H
  H170     1.0000 0.43730  0.56120  0.24760  Biso   1.000  H
  C107     1.0000 0.78940  0.44700  0.73870  Biso   1.000  C
  C108     1.0000 0.21060  0.55300  0.26130  Biso   1.000  C
  H171     1.0000 0.75700  0.38130  0.71690  Biso   1.000  H
  H172     1.0000 0.24300  0.61870  0.28310  Biso   1.000  H
  H173     1.0000 0.81000  0.44630  0.78170  Biso   1.000  H
  H174     1.0000 0.19000  0.55370  0.21830  Biso   1.000  H
  H175     1.0000 0.85460  0.48130  0.72120  Biso   1.000  H
  H176     1.0000 0.14540  0.51870  0.27880  Biso   1.000  H
