data_image0
_cell_length_a       6.664
_cell_length_b       8.754
_cell_length_c       8.925
_cell_angle_alpha    103.065
_cell_angle_beta     110.14
_cell_angle_gamma    92.776

_symmetry_space_group_name_H-M    "P 1"
_symmetry_int_tables_number       1

loop_
  _symmetry_equiv_pos_as_xyz
  'x, y, z'

loop_
  _atom_site_label
  _atom_site_occupancy
  _atom_site_fract_x
  _atom_site_fract_y
  _atom_site_fract_z
  _atom_site_thermal_displace_type
  _atom_site_B_iso_or_equiv
  _atom_site_type_symbol
  Ca1      1.0000 0.13337  0.79200  0.58531  Biso   1.000  Ca
  Ca2      1.0000 0.86663  0.20800  0.41469  Biso   1.000  Ca
  Cu1      1.0000 0.50000  0.00000  0.00000  Biso   1.000  Cu
  O1       1.0000 0.29490  0.69810  0.81800  Biso   1.000  O
  O2       1.0000 0.70510  0.30190  0.18200  Biso   1.000  O
  O3       1.0000 0.38770  0.83750  0.07820  Biso   1.000  O
  O4       1.0000 0.61230  0.16250  0.92180  Biso   1.000  O
  O5       1.0000 0.21550  0.55980  0.45900  Biso   1.000  O
  O6       1.0000 0.78450  0.44020  0.54100  Biso   1.000  O
  O7       1.0000 0.19930  0.29770  0.41020  Biso   1.000  O
  O8       1.0000 0.80070  0.70230  0.58980  Biso   1.000  O
  O9       1.0000 0.20850  0.00330  0.84050  Biso   1.000  O
  O10      1.0000 0.79150  0.99670  0.15950  Biso   1.000  O
  O11      1.0000 0.02330  0.11700  0.65270  Biso   1.000  O
  O12      1.0000 0.97670  0.88300  0.34730  Biso   1.000  O
  C1       1.0000 0.27070  0.56100  0.01140  Biso   1.000  C
  C2       1.0000 0.72930  0.43900  0.98860  Biso   1.000  C
  C3       1.0000 0.28080  0.56230  0.16900  Biso   1.000  C
  C4       1.0000 0.71920  0.43770  0.83100  Biso   1.000  C
  H1       1.0000 0.31660  0.65770  0.24990  Biso   1.000  H
  H2       1.0000 0.68340  0.34230  0.75010  Biso   1.000  H
  C5       1.0000 0.23770  0.42110  0.20740  Biso   1.000  C
  C6       1.0000 0.76230  0.57890  0.79260  Biso   1.000  C
  C7       1.0000 0.19290  0.27860  0.08830  Biso   1.000  C
  C8       1.0000 0.80710  0.72140  0.91170  Biso   1.000  C
  H3       1.0000 0.17030  0.18410  0.11480  Biso   1.000  H
  H4       1.0000 0.82970  0.81590  0.88520  Biso   1.000  H
  C9       1.0000 0.18150  0.27650  0.92880  Biso   1.000  C
  C10      1.0000 0.81850  0.72350  0.07120  Biso   1.000  C
  C11      1.0000 0.21630  0.41820  0.88950  Biso   1.000  C
  C12      1.0000 0.78370  0.58180  0.11050  Biso   1.000  C
  H5       1.0000 0.20340  0.41760  0.78220  Biso   1.000  H
  H6       1.0000 0.79660  0.58240  0.21780  Biso   1.000  H
  C13      1.0000 0.31780  0.70850  0.96390  Biso   1.000  C
  C14      1.0000 0.68220  0.29150  0.03610  Biso   1.000  C
  C15      1.0000 0.21950  0.42780  0.37280  Biso   1.000  C
  C16      1.0000 0.78050  0.57220  0.62720  Biso   1.000  C
  C17      1.0000 0.13390  0.12550  0.79890  Biso   1.000  C
  C18      1.0000 0.86610  0.87450  0.20110  Biso   1.000  C
  O13      1.0000 0.48540  0.89600  0.61110  Biso   1.000  O
  O14      1.0000 0.51460  0.10400  0.38890  Biso   1.000  O
  H7       1.0000 0.58700  0.84400  0.60400  Biso   1.000  H
  H8       1.0000 0.41300  0.15600  0.39600  Biso   1.000  H
  H9       1.0000 0.54400  0.98710  0.66900  Biso   1.000  H
  H10      1.0000 0.45600  0.01290  0.33100  Biso   1.000  H
