data_image0
_cell_length_a       10.4781
_cell_length_b       17.4118
_cell_length_c       12.2993
_cell_angle_alpha    90
_cell_angle_beta     102.311
_cell_angle_gamma    90

_symmetry_space_group_name_H-M    "P 1"
_symmetry_int_tables_number       1

loop_
  _symmetry_equiv_pos_as_xyz
  'x, y, z'

loop_
  _atom_site_label
  _atom_site_occupancy
  _atom_site_fract_x
  _atom_site_fract_y
  _atom_site_fract_z
  _atom_site_thermal_displace_type
  _atom_site_B_iso_or_equiv
  _atom_site_type_symbol
  H1       1.0000 0.68800  0.30310  0.91700  Biso   1.000  H
  H2       1.0000 0.81200  0.80310  0.58300  Biso   1.000  H
  H3       1.0000 0.31200  0.69690  0.08300  Biso   1.000  H
  H4       1.0000 0.18800  0.19690  0.41700  Biso   1.000  H
  H5       1.0000 0.65100  0.25190  0.99100  Biso   1.000  H
  H6       1.0000 0.84900  0.75190  0.50900  Biso   1.000  H
  H7       1.0000 0.34900  0.74810  0.00900  Biso   1.000  H
  H8       1.0000 0.15100  0.24810  0.49100  Biso   1.000  H
  Cu1      1.0000 0.20839  0.27625  0.05263  Biso   1.000  Cu
  Cu2      1.0000 0.29161  0.77625  0.44737  Biso   1.000  Cu
  Cu3      1.0000 0.79161  0.72375  0.94737  Biso   1.000  Cu
  Cu4      1.0000 0.70839  0.22375  0.55263  Biso   1.000  Cu
  Cu5      1.0000 0.95328  0.10745  0.01718  Biso   1.000  Cu
  Cu6      1.0000 0.54672  0.60745  0.48282  Biso   1.000  Cu
  Cu7      1.0000 0.04672  0.89255  0.98282  Biso   1.000  Cu
  Cu8      1.0000 0.45328  0.39255  0.51718  Biso   1.000  Cu
  Cu9      1.0000 0.23628  0.06298  0.02422  Biso   1.000  Cu
  Cu10     1.0000 0.26372  0.56298  0.47578  Biso   1.000  Cu
  Cu11     1.0000 0.76372  0.93702  0.97578  Biso   1.000  Cu
  Cu12     1.0000 0.73628  0.43702  0.52422  Biso   1.000  Cu
  Cu13     1.0000 0.50000  0.00000  0.00000  Biso   1.000  Cu
  Cu14     1.0000 0.00000  0.50000  0.50000  Biso   1.000  Cu
  N1       1.0000 0.62693  0.29400  0.94548  Biso   1.000  N
  N2       1.0000 0.87307  0.79400  0.55452  Biso   1.000  N
  N3       1.0000 0.37307  0.70600  0.05452  Biso   1.000  N
  N4       1.0000 0.12693  0.20600  0.44548  Biso   1.000  N
  N5       1.0000 0.35467  0.31323  0.97058  Biso   1.000  N
  N6       1.0000 0.14533  0.81323  0.52942  Biso   1.000  N
  N7       1.0000 0.64533  0.68677  0.02942  Biso   1.000  N
  N8       1.0000 0.85467  0.18677  0.47058  Biso   1.000  N
  N9       1.0000 0.11186  0.37030  0.98961  Biso   1.000  N
  N10      1.0000 0.38814  0.87030  0.51039  Biso   1.000  N
  N11      1.0000 0.88814  0.62970  0.01039  Biso   1.000  N
  N12      1.0000 0.61186  0.12970  0.48961  Biso   1.000  N
  H9       1.0000 0.05040  0.35830  0.93020  Biso   1.000  H
  H10      1.0000 0.44960  0.85830  0.56980  Biso   1.000  H
  H11      1.0000 0.94960  0.64170  0.06980  Biso   1.000  H
  H12      1.0000 0.55040  0.14170  0.43020  Biso   1.000  H
  H13      1.0000 0.07370  0.39200  0.04000  Biso   1.000  H
  H14      1.0000 0.42630  0.89200  0.46000  Biso   1.000  H
  H15      1.0000 0.92630  0.60800  0.96000  Biso   1.000  H
  H16      1.0000 0.57370  0.10800  0.54000  Biso   1.000  H
  N13      1.0000 0.30631  0.18126  0.10996  Biso   1.000  N
  N14      1.0000 0.19369  0.68126  0.39004  Biso   1.000  N
  N15      1.0000 0.69369  0.81874  0.89004  Biso   1.000  N
  N16      1.0000 0.80631  0.31874  0.60996  Biso   1.000  N
  N17      1.0000 0.31870  0.17167  0.20894  Biso   1.000  N
  N18      1.0000 0.18130  0.67167  0.29106  Biso   1.000  N
  N19      1.0000 0.68130  0.82833  0.79106  Biso   1.000  N
  N20      1.0000 0.81870  0.32833  0.70894  Biso   1.000  N
  N21      1.0000 0.33130  0.16066  0.30347  Biso   1.000  N
  N22      1.0000 0.16870  0.66066  0.19653  Biso   1.000  N
  N23      1.0000 0.66870  0.83934  0.69653  Biso   1.000  N
  N24      1.0000 0.83130  0.33934  0.80347  Biso   1.000  N
  N25      1.0000 0.04888  0.22805  0.08844  Biso   1.000  N
  N26      1.0000 0.45112  0.72805  0.41156  Biso   1.000  N
  N27      1.0000 0.95112  0.77195  0.91156  Biso   1.000  N
  N28      1.0000 0.54888  0.27195  0.58844  Biso   1.000  N
  N29      1.0000 0.95811  0.26693  0.10192  Biso   1.000  N
  N30      1.0000 0.54189  0.76693  0.39808  Biso   1.000  N
  N31      1.0000 0.04189  0.73307  0.89808  Biso   1.000  N
  N32      1.0000 0.45811  0.23307  0.60192  Biso   1.000  N
  N33      1.0000 0.86912  0.30070  0.11808  Biso   1.000  N
  N34      1.0000 0.63088  0.80070  0.38192  Biso   1.000  N
  N35      1.0000 0.13088  0.69930  0.88192  Biso   1.000  N
  N36      1.0000 0.36912  0.19930  0.61808  Biso   1.000  N
  N37      1.0000 0.09743  0.04262  0.10785  Biso   1.000  N
  N38      1.0000 0.40257  0.54262  0.39215  Biso   1.000  N
  N39      1.0000 0.90257  0.95738  0.89215  Biso   1.000  N
  N40      1.0000 0.59743  0.45738  0.60785  Biso   1.000  N
  N41      1.0000 0.09892  0.02841  0.20516  Biso   1.000  N
  N42      1.0000 0.40108  0.52841  0.29484  Biso   1.000  N
  N43      1.0000 0.90108  0.97159  0.79484  Biso   1.000  N
  N44      1.0000 0.59892  0.47159  0.70516  Biso   1.000  N
  N45      1.0000 0.09350  0.01400  0.29462  Biso   1.000  N
  N46      1.0000 0.40650  0.51400  0.20538  Biso   1.000  N
  N47      1.0000 0.90650  0.98600  0.70538  Biso   1.000  N
  N48      1.0000 0.59350  0.48600  0.79462  Biso   1.000  N
  N49      1.0000 0.08049  0.10550  0.91536  Biso   1.000  N
  N50      1.0000 0.41951  0.60550  0.58464  Biso   1.000  N
  N51      1.0000 0.91951  0.89450  0.08464  Biso   1.000  N
  N52      1.0000 0.58049  0.39450  0.41536  Biso   1.000  N
  N53      1.0000 0.08770  0.16412  0.86250  Biso   1.000  N
  N54      1.0000 0.41230  0.66412  0.63750  Biso   1.000  N
  N55      1.0000 0.91230  0.83588  0.13750  Biso   1.000  N
  N56      1.0000 0.58770  0.33588  0.36250  Biso   1.000  N
  N57      1.0000 0.09129  0.21899  0.81224  Biso   1.000  N
  N58      1.0000 0.40871  0.71899  0.68776  Biso   1.000  N
  N59      1.0000 0.90871  0.78101  0.18776  Biso   1.000  N
  N60      1.0000 0.59129  0.28101  0.31224  Biso   1.000  N
  N61      1.0000 0.84502  0.09557  0.12849  Biso   1.000  N
  N62      1.0000 0.65498  0.59557  0.37151  Biso   1.000  N
  N63      1.0000 0.15498  0.90443  0.87151  Biso   1.000  N
  N64      1.0000 0.34502  0.40443  0.62849  Biso   1.000  N
  N65      1.0000 0.73367  0.11579  0.10531  Biso   1.000  N
  N66      1.0000 0.76633  0.61579  0.39469  Biso   1.000  N
  N67      1.0000 0.26633  0.88421  0.89469  Biso   1.000  N
  N68      1.0000 0.23367  0.38421  0.60531  Biso   1.000  N
  N69      1.0000 0.62438  0.13404  0.08553  Biso   1.000  N
  N70      1.0000 0.87562  0.63404  0.41447  Biso   1.000  N
  N71      1.0000 0.37562  0.86596  0.91447  Biso   1.000  N
  N72      1.0000 0.12438  0.36596  0.58553  Biso   1.000  N
  N73      1.0000 0.31035  0.33963  0.41296  Biso   1.000  N
  N74      1.0000 0.18965  0.83963  0.08704  Biso   1.000  N
  N75      1.0000 0.68965  0.66037  0.58704  Biso   1.000  N
  N76      1.0000 0.81035  0.16037  0.91296  Biso   1.000  N
  N77      1.0000 0.29605  0.34190  0.31379  Biso   1.000  N
  N78      1.0000 0.20395  0.84190  0.18621  Biso   1.000  N
  N79      1.0000 0.70395  0.65810  0.68621  Biso   1.000  N
  N80      1.0000 0.79605  0.15810  0.81379  Biso   1.000  N
  N81      1.0000 0.27880  0.34298  0.21777  Biso   1.000  N
  N82      1.0000 0.22120  0.84298  0.28223  Biso   1.000  N
  N83      1.0000 0.72120  0.65702  0.78223  Biso   1.000  N
  N84      1.0000 0.77880  0.15702  0.71777  Biso   1.000  N
  N85      1.0000 0.38839  0.00587  0.11179  Biso   1.000  N
  N86      1.0000 0.11161  0.50587  0.38821  Biso   1.000  N
  N87      1.0000 0.61161  0.99413  0.88821  Biso   1.000  N
  N88      1.0000 0.88839  0.49413  0.61179  Biso   1.000  N
  N89      1.0000 0.41543  0.98647  0.20878  Biso   1.000  N
  N90      1.0000 0.08457  0.48647  0.29122  Biso   1.000  N
  N91      1.0000 0.58457  0.01353  0.79122  Biso   1.000  N
  N92      1.0000 0.91543  0.51353  0.70878  Biso   1.000  N
  N93      1.0000 0.44220  0.96849  0.29970  Biso   1.000  N
  N94      1.0000 0.05780  0.46849  0.20030  Biso   1.000  N
  N95      1.0000 0.55780  0.03151  0.70030  Biso   1.000  N
  N96      1.0000 0.94220  0.53151  0.79970  Biso   1.000  N
  N97      1.0000 0.35188  0.06028  0.91415  Biso   1.000  N
  N98      1.0000 0.14812  0.56028  0.58585  Biso   1.000  N
  N99      1.0000 0.64812  0.93972  0.08585  Biso   1.000  N
  N100     1.0000 0.85188  0.43972  0.41415  Biso   1.000  N
  N101     1.0000 0.29913  0.05186  0.81580  Biso   1.000  N
  N102     1.0000 0.20087  0.55186  0.68420  Biso   1.000  N
  N103     1.0000 0.70087  0.94814  0.18420  Biso   1.000  N
  N104     1.0000 0.79913  0.44814  0.31580  Biso   1.000  N
  N105     1.0000 0.24790  0.04627  0.72493  Biso   1.000  N
  N106     1.0000 0.25210  0.54627  0.77507  Biso   1.000  N
  N107     1.0000 0.75210  0.95373  0.27507  Biso   1.000  N
  N108     1.0000 0.74790  0.45373  0.22493  Biso   1.000  N
  C1       1.0000 0.39850  0.25009  0.90553  Biso   1.000  C
  C2       1.0000 0.10150  0.75009  0.59447  Biso   1.000  C
  C3       1.0000 0.60150  0.74991  0.09447  Biso   1.000  C
  C4       1.0000 0.89850  0.24991  0.40553  Biso   1.000  C
  H17      1.0000 0.32610  0.23550  0.84590  Biso   1.000  H
  H18      1.0000 0.17390  0.73550  0.65410  Biso   1.000  H
  H19      1.0000 0.67390  0.76450  0.15410  Biso   1.000  H
  H20      1.0000 0.82610  0.26450  0.34590  Biso   1.000  H
  H21      1.0000 0.42080  0.20590  0.95380  Biso   1.000  H
  H22      1.0000 0.07920  0.70590  0.54620  Biso   1.000  H
  H23      1.0000 0.57920  0.79410  0.04620  Biso   1.000  H
  H24      1.0000 0.92080  0.29410  0.45380  Biso   1.000  H
  C5       1.0000 0.51510  0.26984  0.85526  Biso   1.000  C
  C6       1.0000 0.98490  0.76984  0.64474  Biso   1.000  C
  C7       1.0000 0.48490  0.73016  0.14474  Biso   1.000  C
  C8       1.0000 0.01510  0.23016  0.35526  Biso   1.000  C
  H25      1.0000 0.53980  0.22540  0.81680  Biso   1.000  H
  H26      1.0000 0.96020  0.72540  0.68320  Biso   1.000  H
  H27      1.0000 0.46020  0.77460  0.18320  Biso   1.000  H
  H28      1.0000 0.03980  0.27460  0.31680  Biso   1.000  H
  H29      1.0000 0.49210  0.31110  0.80170  Biso   1.000  H
  H30      1.0000 0.00790  0.81110  0.69830  Biso   1.000  H
  H31      1.0000 0.50790  0.68890  0.19830  Biso   1.000  H
  H32      1.0000 0.99210  0.18890  0.30170  Biso   1.000  H
  C9       1.0000 0.47070  0.33789  0.05636  Biso   1.000  C
  C10      1.0000 0.02930  0.83789  0.44364  Biso   1.000  C
  C11      1.0000 0.52930  0.66211  0.94364  Biso   1.000  C
  C12      1.0000 0.97070  0.16211  0.55636  Biso   1.000  C
  H33      1.0000 0.49560  0.29630  0.10920  Biso   1.000  H
  H34      1.0000 0.00440  0.79630  0.39080  Biso   1.000  H
  H35      1.0000 0.50440  0.70370  0.89080  Biso   1.000  H
  H36      1.0000 0.99560  0.20370  0.60920  Biso   1.000  H
  H37      1.0000 0.44610  0.38140  0.09670  Biso   1.000  H
  H38      1.0000 0.05390  0.88140  0.40330  Biso   1.000  H
  H39      1.0000 0.55390  0.61860  0.90330  Biso   1.000  H
  H40      1.0000 0.94610  0.11860  0.59670  Biso   1.000  H
  C13      1.0000 0.58830  0.36014  0.00945  Biso   1.000  C
  C14      1.0000 0.91170  0.86014  0.49055  Biso   1.000  C
  C15      1.0000 0.41170  0.63986  0.99055  Biso   1.000  C
  C16      1.0000 0.08830  0.13986  0.50945  Biso   1.000  C
  H41      1.0000 0.56710  0.40430  0.96090  Biso   1.000  H
  H42      1.0000 0.93290  0.90430  0.53910  Biso   1.000  H
  H43      1.0000 0.43290  0.59570  0.03910  Biso   1.000  H
  H44      1.0000 0.06710  0.09570  0.46090  Biso   1.000  H
  H45      1.0000 0.66060  0.37400  0.06970  Biso   1.000  H
  H46      1.0000 0.83940  0.87400  0.43030  Biso   1.000  H
  H47      1.0000 0.33940  0.62600  0.93030  Biso   1.000  H
  H48      1.0000 0.16060  0.12600  0.56970  Biso   1.000  H
  C17      1.0000 0.29330  0.37794  0.89785  Biso   1.000  C
  C18      1.0000 0.20670  0.87794  0.60215  Biso   1.000  C
  C19      1.0000 0.70670  0.62206  0.10215  Biso   1.000  C
  C20      1.0000 0.79330  0.12206  0.39785  Biso   1.000  C
  H49      1.0000 0.24150  0.35780  0.82890  Biso   1.000  H
  H50      1.0000 0.25850  0.85780  0.67110  Biso   1.000  H
  H51      1.0000 0.75850  0.64220  0.17110  Biso   1.000  H
  H52      1.0000 0.74150  0.14220  0.32890  Biso   1.000  H
  H53      1.0000 0.36070  0.41080  0.87990  Biso   1.000  H
  H54      1.0000 0.13930  0.91080  0.62010  Biso   1.000  H
  H55      1.0000 0.63930  0.58920  0.12010  Biso   1.000  H
  H56      1.0000 0.86070  0.08920  0.37990  Biso   1.000  H
  C21      1.0000 0.20720  0.42381  0.95810  Biso   1.000  C
  C22      1.0000 0.29280  0.92381  0.54190  Biso   1.000  C
  C23      1.0000 0.79280  0.57619  0.04190  Biso   1.000  C
  C24      1.0000 0.70720  0.07619  0.45810  Biso   1.000  C
  H57      1.0000 0.25960  0.44770  0.02390  Biso   1.000  H
  H58      1.0000 0.24040  0.94770  0.47610  Biso   1.000  H
  H59      1.0000 0.74040  0.55230  0.97610  Biso   1.000  H
  H60      1.0000 0.75960  0.05230  0.52390  Biso   1.000  H
  H61      1.0000 0.16210  0.46390  0.90990  Biso   1.000  H
  H62      1.0000 0.33790  0.96390  0.59010  Biso   1.000  H
  H63      1.0000 0.83790  0.53610  0.09010  Biso   1.000  H
  H64      1.0000 0.66210  0.03610  0.40990  Biso   1.000  H
