data_image0
_cell_length_a       7.8463
_cell_length_b       12.7472
_cell_length_c       16.514
_cell_angle_alpha    90
_cell_angle_beta     90
_cell_angle_gamma    90

_symmetry_space_group_name_H-M    "P 1"
_symmetry_int_tables_number       1

loop_
  _symmetry_equiv_pos_as_xyz
  'x, y, z'

loop_
  _atom_site_label
  _atom_site_occupancy
  _atom_site_fract_x
  _atom_site_fract_y
  _atom_site_fract_z
  _atom_site_thermal_displace_type
  _atom_site_B_iso_or_equiv
  _atom_site_type_symbol
  C1       1.0000 0.16640  0.78330  0.66460  Biso   1.000  C
  C2       1.0000 0.33360  0.21670  0.16460  Biso   1.000  C
  C3       1.0000 0.66640  0.71670  0.33540  Biso   1.000  C
  C4       1.0000 0.83360  0.28330  0.83540  Biso   1.000  C
  H1       1.0000 0.22900  0.82290  0.62790  Biso   1.000  H
  H2       1.0000 0.27100  0.17710  0.12790  Biso   1.000  H
  H3       1.0000 0.72900  0.67710  0.37210  Biso   1.000  H
  H4       1.0000 0.77100  0.32290  0.87210  Biso   1.000  H
  C5       1.0000 0.95640  0.94050  0.50230  Biso   1.000  C
  C6       1.0000 0.54360  0.05950  0.00230  Biso   1.000  C
  C7       1.0000 0.45640  0.55950  0.49770  Biso   1.000  C
  C8       1.0000 0.04360  0.44050  0.99770  Biso   1.000  C
  C9       1.0000 0.96260  0.65640  0.68840  Biso   1.000  C
  C10      1.0000 0.53740  0.34360  0.18840  Biso   1.000  C
  C11      1.0000 0.46260  0.84360  0.31160  Biso   1.000  C
  C12      1.0000 0.03740  0.15640  0.81160  Biso   1.000  C
  C13      1.0000 0.72960  0.22660  0.48120  Biso   1.000  C
  C14      1.0000 0.77040  0.77340  0.98120  Biso   1.000  C
  C15      1.0000 0.22960  0.27340  0.51880  Biso   1.000  C
  C16      1.0000 0.27040  0.72660  0.01880  Biso   1.000  C
  C17      1.0000 0.98560  0.66900  0.77170  Biso   1.000  C
  C18      1.0000 0.51440  0.33100  0.27170  Biso   1.000  C
  C19      1.0000 0.48560  0.83100  0.22830  Biso   1.000  C
  C20      1.0000 0.01440  0.16900  0.72830  Biso   1.000  C
  H5       1.0000 0.92240  0.62930  0.80810  Biso   1.000  H
  H6       1.0000 0.57760  0.37070  0.30810  Biso   1.000  H
  H7       1.0000 0.42240  0.87070  0.19190  Biso   1.000  H
  H8       1.0000 0.07760  0.12930  0.69190  Biso   1.000  H
  C21      1.0000 0.19420  0.79890  0.74540  Biso   1.000  C
  C22      1.0000 0.30580  0.20110  0.24540  Biso   1.000  C
  C23      1.0000 0.69420  0.70110  0.25460  Biso   1.000  C
  C24      1.0000 0.80580  0.29890  0.75460  Biso   1.000  C
  H9       1.0000 0.27350  0.84800  0.76320  Biso   1.000  H
  H10      1.0000 0.22650  0.15200  0.26320  Biso   1.000  H
  H11      1.0000 0.77350  0.65200  0.23680  Biso   1.000  H
  H12      1.0000 0.72650  0.34800  0.73680  Biso   1.000  H
  C25      1.0000 0.10260  0.74080  0.79910  Biso   1.000  C
  C26      1.0000 0.39740  0.25920  0.29910  Biso   1.000  C
  C27      1.0000 0.60260  0.75920  0.20090  Biso   1.000  C
  C28      1.0000 0.89740  0.24080  0.70090  Biso   1.000  C
  H13      1.0000 0.11920  0.74970  0.85450  Biso   1.000  H
  H14      1.0000 0.38080  0.25030  0.35450  Biso   1.000  H
  H15      1.0000 0.61920  0.75030  0.14550  Biso   1.000  H
  H16      1.0000 0.88080  0.24970  0.64550  Biso   1.000  H
  C29      1.0000 0.83110  0.58260  0.65280  Biso   1.000  C
  C30      1.0000 0.66890  0.41740  0.15280  Biso   1.000  C
  C31      1.0000 0.33110  0.91740  0.34720  Biso   1.000  C
  C32      1.0000 0.16890  0.08260  0.84720  Biso   1.000  C
  H17      1.0000 0.77620  0.54470  0.69660  Biso   1.000  H
  H18      1.0000 0.72380  0.45530  0.19660  Biso   1.000  H
  H19      1.0000 0.27620  0.95530  0.30340  Biso   1.000  H
  H20      1.0000 0.22380  0.04470  0.80340  Biso   1.000  H
  H21      1.0000 0.74440  0.62360  0.62540  Biso   1.000  H
  H22      1.0000 0.75560  0.37640  0.12540  Biso   1.000  H
  H23      1.0000 0.24440  0.87640  0.37460  Biso   1.000  H
  H24      1.0000 0.25560  0.12360  0.87460  Biso   1.000  H
  C33      1.0000 0.90490  0.50560  0.59440  Biso   1.000  C
  C34      1.0000 0.59510  0.49440  0.09440  Biso   1.000  C
  C35      1.0000 0.40490  0.99440  0.40560  Biso   1.000  C
  C36      1.0000 0.09510  0.00560  0.90560  Biso   1.000  C
  H25      1.0000 0.00120  0.47080  0.61960  Biso   1.000  H
  H26      1.0000 0.49880  0.52920  0.11960  Biso   1.000  H
  H27      1.0000 0.50120  0.02920  0.38040  Biso   1.000  H
  H28      1.0000 0.99880  0.97080  0.88040  Biso   1.000  H
  H29      1.0000 0.82000  0.45260  0.58220  Biso   1.000  H
  H30      1.0000 0.68000  0.54740  0.08220  Biso   1.000  H
  H31      1.0000 0.32000  0.04740  0.41780  Biso   1.000  H
  H32      1.0000 0.18000  0.95260  0.91780  Biso   1.000  H
  C37      1.0000 0.97140  0.49340  0.45670  Biso   1.000  C
  C38      1.0000 0.52860  0.50660  0.95670  Biso   1.000  C
  C39      1.0000 0.47140  0.00660  0.54330  Biso   1.000  C
  C40      1.0000 0.02860  0.99340  0.04330  Biso   1.000  C
  H33      1.0000 0.93650  0.42450  0.46470  Biso   1.000  H
  H34      1.0000 0.56350  0.57550  0.96470  Biso   1.000  H
  H35      1.0000 0.43650  0.07550  0.53530  Biso   1.000  H
  H36      1.0000 0.06350  0.92450  0.03530  Biso   1.000  H
  C41      1.0000 0.03010  0.51890  0.37660  Biso   1.000  C
  C42      1.0000 0.46990  0.48110  0.87660  Biso   1.000  C
  C43      1.0000 0.53010  0.98110  0.62340  Biso   1.000  C
  C44      1.0000 0.96990  0.01890  0.12340  Biso   1.000  C
  C45      1.0000 0.08650  0.62040  0.35560  Biso   1.000  C
  C46      1.0000 0.41350  0.37960  0.85560  Biso   1.000  C
  C47      1.0000 0.58650  0.87960  0.64440  Biso   1.000  C
  C48      1.0000 0.91350  0.12040  0.14440  Biso   1.000  C
  C49      1.0000 0.14320  0.63350  0.27550  Biso   1.000  C
  C50      1.0000 0.35680  0.36650  0.77550  Biso   1.000  C
  C51      1.0000 0.64320  0.86650  0.72450  Biso   1.000  C
  C52      1.0000 0.85680  0.13350  0.22450  Biso   1.000  C
  H37      1.0000 0.18270  0.69900  0.25930  Biso   1.000  H
  H38      1.0000 0.31730  0.30100  0.75930  Biso   1.000  H
  H39      1.0000 0.68270  0.80100  0.74070  Biso   1.000  H
  H40      1.0000 0.81730  0.19900  0.24070  Biso   1.000  H
  C53      1.0000 0.14250  0.55320  0.22040  Biso   1.000  C
  C54      1.0000 0.35750  0.44680  0.72040  Biso   1.000  C
  C55      1.0000 0.64250  0.94680  0.77960  Biso   1.000  C
  C56      1.0000 0.85750  0.05320  0.27960  Biso   1.000  C
  H41      1.0000 0.18190  0.56520  0.16810  Biso   1.000  H
  H42      1.0000 0.31810  0.43480  0.66810  Biso   1.000  H
  H43      1.0000 0.68190  0.93480  0.83190  Biso   1.000  H
  H44      1.0000 0.81810  0.06520  0.33190  Biso   1.000  H
  C57      1.0000 0.08450  0.45510  0.24120  Biso   1.000  C
  C58      1.0000 0.41550  0.54490  0.74120  Biso   1.000  C
  C59      1.0000 0.58450  0.04490  0.75880  Biso   1.000  C
  C60      1.0000 0.91550  0.95510  0.25880  Biso   1.000  C
  H45      1.0000 0.08290  0.40120  0.20320  Biso   1.000  H
  H46      1.0000 0.41710  0.59880  0.70320  Biso   1.000  H
  H47      1.0000 0.58290  0.09880  0.79680  Biso   1.000  H
  H48      1.0000 0.91710  0.90120  0.29680  Biso   1.000  H
  C61      1.0000 0.02950  0.43810  0.31810  Biso   1.000  C
  C62      1.0000 0.47050  0.56190  0.81810  Biso   1.000  C
  C63      1.0000 0.52950  0.06190  0.68190  Biso   1.000  C
  C64      1.0000 0.97050  0.93810  0.18190  Biso   1.000  C
  H49      1.0000 0.99060  0.37180  0.33250  Biso   1.000  H
  H50      1.0000 0.50940  0.62820  0.83250  Biso   1.000  H
  H51      1.0000 0.49060  0.12820  0.66750  Biso   1.000  H
  H52      1.0000 0.00940  0.87180  0.16750  Biso   1.000  H
  Ag1      1.0000 0.88955  0.09779  0.49772  Biso   1.000  Ag
  Ag2      1.0000 0.61045  0.90221  0.99772  Biso   1.000  Ag
  Ag3      1.0000 0.38955  0.40221  0.50228  Biso   1.000  Ag
  Ag4      1.0000 0.11045  0.59779  0.00228  Biso   1.000  Ag
  Cu1      1.0000 0.02424  0.70185  0.51536  Biso   1.000  Cu
  Cu2      1.0000 0.47576  0.29815  0.01536  Biso   1.000  Cu
  Cu3      1.0000 0.52424  0.79815  0.48464  Biso   1.000  Cu
  Cu4      1.0000 0.97576  0.20185  0.98464  Biso   1.000  Cu
  N1       1.0000 0.05380  0.71390  0.63541  Biso   1.000  N
  N2       1.0000 0.44620  0.28610  0.13541  Biso   1.000  N
  N3       1.0000 0.55380  0.78610  0.36459  Biso   1.000  N
  N4       1.0000 0.94620  0.21390  0.86459  Biso   1.000  N
  N5       1.0000 0.98890  0.85420  0.50680  Biso   1.000  N
  N6       1.0000 0.51110  0.14580  0.00680  Biso   1.000  N
  N7       1.0000 0.48890  0.64580  0.49320  Biso   1.000  N
  N8       1.0000 0.01110  0.35420  0.99320  Biso   1.000  N
  N9       1.0000 0.96130  0.55440  0.51872  Biso   1.000  N
  N10      1.0000 0.53870  0.44560  0.01872  Biso   1.000  N
  N11      1.0000 0.46130  0.94560  0.48128  Biso   1.000  N
  N12      1.0000 0.03870  0.05440  0.98128  Biso   1.000  N
  N13      1.0000 0.65080  0.29970  0.47500  Biso   1.000  N
  N14      1.0000 0.84920  0.70030  0.97500  Biso   1.000  N
  N15      1.0000 0.15080  0.20030  0.52500  Biso   1.000  N
  N16      1.0000 0.34920  0.79970  0.02500  Biso   1.000  N
  O1       1.0000 0.08610  0.70000  0.40507  Biso   1.000  O
  O2       1.0000 0.41390  0.30000  0.90507  Biso   1.000  O
  O3       1.0000 0.58610  0.80000  0.59493  Biso   1.000  O
  O4       1.0000 0.91390  0.20000  0.09493  Biso   1.000  O
