data_image0
_cell_length_a       13.3747
_cell_length_b       16.9222
_cell_length_c       6.7666
_cell_angle_alpha    90
_cell_angle_beta     117.967
_cell_angle_gamma    90

_symmetry_space_group_name_H-M    "P 1"
_symmetry_int_tables_number       1

loop_
  _symmetry_equiv_pos_as_xyz
  'x, y, z'

loop_
  _atom_site_label
  _atom_site_occupancy
  _atom_site_fract_x
  _atom_site_fract_y
  _atom_site_fract_z
  _atom_site_thermal_displace_type
  _atom_site_B_iso_or_equiv
  _atom_site_type_symbol
  Cu1      1.0000 0.98882  0.03753  0.23071  Biso   1.000  Cu
  Cu2      1.0000 0.98882  0.96247  0.73071  Biso   1.000  Cu
  Cu3      1.0000 0.48882  0.53753  0.23071  Biso   1.000  Cu
  Cu4      1.0000 0.48882  0.46247  0.73071  Biso   1.000  Cu
  N1       1.0000 0.11373  0.11012  0.42240  Biso   1.000  N
  N2       1.0000 0.11373  0.88988  0.92240  Biso   1.000  N
  N3       1.0000 0.61373  0.61012  0.42240  Biso   1.000  N
  N4       1.0000 0.61373  0.38988  0.92240  Biso   1.000  N
  N5       1.0000 0.88400  0.12549  0.03090  Biso   1.000  N
  N6       1.0000 0.88400  0.87451  0.53090  Biso   1.000  N
  N7       1.0000 0.38400  0.62549  0.03090  Biso   1.000  N
  N8       1.0000 0.38400  0.37451  0.53090  Biso   1.000  N
  N9       1.0000 0.89720  0.96287  0.97280  Biso   1.000  N
  N10      1.0000 0.89720  0.03713  0.47280  Biso   1.000  N
  N11      1.0000 0.39720  0.46287  0.97280  Biso   1.000  N
  N12      1.0000 0.39720  0.53713  0.47280  Biso   1.000  N
  N13      1.0000 0.86459  0.90199  0.00760  Biso   1.000  N
  N14      1.0000 0.86459  0.09801  0.50760  Biso   1.000  N
  N15      1.0000 0.36459  0.40199  0.00760  Biso   1.000  N
  N16      1.0000 0.36459  0.59801  0.50760  Biso   1.000  N
  N17      1.0000 0.83150  0.84237  0.03700  Biso   1.000  N
  N18      1.0000 0.83150  0.15763  0.53700  Biso   1.000  N
  N19      1.0000 0.33150  0.34237  0.03700  Biso   1.000  N
  N20      1.0000 0.33150  0.65763  0.53700  Biso   1.000  N
  O1       1.0000 0.07250  0.94769  0.40290  Biso   1.000  O
  O2       1.0000 0.07250  0.05231  0.90290  Biso   1.000  O
  O3       1.0000 0.57250  0.44769  0.40290  Biso   1.000  O
  O4       1.0000 0.57250  0.55231  0.90290  Biso   1.000  O
  C1       1.0000 0.25630  0.00671  0.53820  Biso   1.000  C
  C2       1.0000 0.25630  0.99329  0.03820  Biso   1.000  C
  C3       1.0000 0.75630  0.50671  0.53820  Biso   1.000  C
  C4       1.0000 0.75630  0.49329  0.03820  Biso   1.000  C
  C5       1.0000 0.18250  0.94077  0.48270  Biso   1.000  C
  C6       1.0000 0.18250  0.05923  0.98270  Biso   1.000  C
  C7       1.0000 0.68250  0.44077  0.48270  Biso   1.000  C
  C8       1.0000 0.68250  0.55923  0.98270  Biso   1.000  C
  C9       1.0000 0.23350  0.86600  0.52440  Biso   1.000  C
  C10      1.0000 0.23350  0.13400  0.02440  Biso   1.000  C
  C11      1.0000 0.73350  0.36600  0.52440  Biso   1.000  C
  C12      1.0000 0.73350  0.63400  0.02440  Biso   1.000  C
  H1       1.0000 0.18850  0.82120  0.49450  Biso   1.000  H
  H2       1.0000 0.18850  0.17880  0.99450  Biso   1.000  H
  H3       1.0000 0.68850  0.32120  0.49450  Biso   1.000  H
  H4       1.0000 0.68850  0.67880  0.99450  Biso   1.000  H
  C13      1.0000 0.34870  0.85726  0.60870  Biso   1.000  C
  C14      1.0000 0.34870  0.14274  0.10870  Biso   1.000  C
  C15      1.0000 0.84870  0.35726  0.60870  Biso   1.000  C
  C16      1.0000 0.84870  0.64274  0.10870  Biso   1.000  C
  H5       1.0000 0.37910  0.80660  0.63240  Biso   1.000  H
  H6       1.0000 0.37910  0.19340  0.13240  Biso   1.000  H
  H7       1.0000 0.87910  0.30660  0.63240  Biso   1.000  H
  H8       1.0000 0.87910  0.69340  0.13240  Biso   1.000  H
  C17      1.0000 0.42040  0.92130  0.65910  Biso   1.000  C
  C18      1.0000 0.42040  0.07870  0.15910  Biso   1.000  C
  C19      1.0000 0.92040  0.42130  0.65910  Biso   1.000  C
  C20      1.0000 0.92040  0.57870  0.15910  Biso   1.000  C
  C21      1.0000 0.37270  0.99508  0.62520  Biso   1.000  C
  C22      1.0000 0.37270  0.00492  0.12520  Biso   1.000  C
  C23      1.0000 0.87270  0.49508  0.62520  Biso   1.000  C
  C24      1.0000 0.87270  0.50492  0.12520  Biso   1.000  C
  H9       1.0000 0.41970  0.03910  0.66170  Biso   1.000  H
  H10      1.0000 0.41970  0.96090  0.16170  Biso   1.000  H
  H11      1.0000 0.91970  0.53910  0.66170  Biso   1.000  H
  H12      1.0000 0.91970  0.46090  0.16170  Biso   1.000  H
  C25      1.0000 0.21590  0.08657  0.52170  Biso   1.000  C
  C26      1.0000 0.21590  0.91343  0.02170  Biso   1.000  C
  C27      1.0000 0.71590  0.58657  0.52170  Biso   1.000  C
  C28      1.0000 0.71590  0.41343  0.02170  Biso   1.000  C
  H13      1.0000 0.27070  0.12530  0.59150  Biso   1.000  H
  H14      1.0000 0.27070  0.87470  0.09150  Biso   1.000  H
  H15      1.0000 0.77070  0.62530  0.59150  Biso   1.000  H
  H16      1.0000 0.77070  0.37470  0.09150  Biso   1.000  H
  C29      1.0000 0.09170  0.19404  0.44430  Biso   1.000  C
  C30      1.0000 0.09170  0.80596  0.94430  Biso   1.000  C
  C31      1.0000 0.59170  0.69404  0.44430  Biso   1.000  C
  C32      1.0000 0.59170  0.30596  0.94430  Biso   1.000  C
  H17      1.0000 0.16330  0.22160  0.52280  Biso   1.000  H
  H18      1.0000 0.16330  0.77840  0.02280  Biso   1.000  H
  H19      1.0000 0.66330  0.72160  0.52280  Biso   1.000  H
  H20      1.0000 0.66330  0.27840  0.02280  Biso   1.000  H
  H21      1.0000 0.05250  0.19830  0.53360  Biso   1.000  H
  H22      1.0000 0.05250  0.80170  0.03360  Biso   1.000  H
  H23      1.0000 0.55250  0.69830  0.53360  Biso   1.000  H
  H24      1.0000 0.55250  0.30170  0.03360  Biso   1.000  H
  C33      1.0000 0.02180  0.23326  0.22240  Biso   1.000  C
  C34      1.0000 0.02180  0.76674  0.72240  Biso   1.000  C
  C35      1.0000 0.52180  0.73326  0.22240  Biso   1.000  C
  C36      1.0000 0.52180  0.26674  0.72240  Biso   1.000  C
  H25      1.0000 0.02540  0.29000  0.24460  Biso   1.000  H
  H26      1.0000 0.02540  0.71000  0.74460  Biso   1.000  H
  H27      1.0000 0.52540  0.79000  0.24460  Biso   1.000  H
  H28      1.0000 0.52540  0.21000  0.74460  Biso   1.000  H
  H29      1.0000 0.05490  0.22150  0.12520  Biso   1.000  H
  H30      1.0000 0.05490  0.77850  0.62520  Biso   1.000  H
  H31      1.0000 0.55490  0.72150  0.12520  Biso   1.000  H
  H32      1.0000 0.55490  0.27850  0.62520  Biso   1.000  H
  C37      1.0000 0.90060  0.20853  0.10790  Biso   1.000  C
  C38      1.0000 0.90060  0.79147  0.60790  Biso   1.000  C
  C39      1.0000 0.40060  0.70853  0.10790  Biso   1.000  C
  C40      1.0000 0.40060  0.29147  0.60790  Biso   1.000  C
  H33      1.0000 0.86920  0.21560  0.21000  Biso   1.000  H
  H34      1.0000 0.86920  0.78440  0.71000  Biso   1.000  H
  H35      1.0000 0.36920  0.71560  0.21000  Biso   1.000  H
  H36      1.0000 0.36920  0.28440  0.71000  Biso   1.000  H
  H37      1.0000 0.85910  0.24270  0.98000  Biso   1.000  H
  H38      1.0000 0.85910  0.75730  0.48000  Biso   1.000  H
  H39      1.0000 0.35910  0.74270  0.98000  Biso   1.000  H
  H40      1.0000 0.35910  0.25730  0.48000  Biso   1.000  H
  C41      1.0000 0.76270  0.10600  0.93390  Biso   1.000  C
  C42      1.0000 0.76270  0.89400  0.43390  Biso   1.000  C
  C43      1.0000 0.26270  0.60600  0.93390  Biso   1.000  C
  C44      1.0000 0.26270  0.39400  0.43390  Biso   1.000  C
  H41      1.0000 0.74000  0.10760  0.04910  Biso   1.000  H
  H42      1.0000 0.74000  0.89240  0.54910  Biso   1.000  H
  H43      1.0000 0.24000  0.60760  0.04910  Biso   1.000  H
  H44      1.0000 0.24000  0.39240  0.54910  Biso   1.000  H
  H45      1.0000 0.74980  0.05400  0.86990  Biso   1.000  H
  H46      1.0000 0.74980  0.94600  0.36990  Biso   1.000  H
  H47      1.0000 0.24980  0.55400  0.86990  Biso   1.000  H
  H48      1.0000 0.24980  0.44600  0.36990  Biso   1.000  H
  H49      1.0000 0.71930  0.14370  0.81970  Biso   1.000  H
  H50      1.0000 0.71930  0.85630  0.31970  Biso   1.000  H
  H51      1.0000 0.21930  0.64370  0.81970  Biso   1.000  H
  H52      1.0000 0.21930  0.35630  0.31970  Biso   1.000  H
  C45      1.0000 0.54670  0.91070  0.74890  Biso   1.000  C
  C46      1.0000 0.54670  0.08930  0.24890  Biso   1.000  C
  C47      1.0000 0.04670  0.41070  0.74890  Biso   1.000  C
  C48      1.0000 0.04670  0.58930  0.24890  Biso   1.000  C
  H53      1.0000 0.58240  0.96160  0.77320  Biso   1.000  H
  H54      1.0000 0.58240  0.03840  0.27320  Biso   1.000  H
  H55      1.0000 0.08240  0.46160  0.77320  Biso   1.000  H
  H56      1.0000 0.08240  0.53840  0.27320  Biso   1.000  H
  H57      1.0000 0.56080  0.88150  0.64270  Biso   1.000  H
  H58      1.0000 0.56080  0.11850  0.14270  Biso   1.000  H
  H59      1.0000 0.06080  0.38150  0.64270  Biso   1.000  H
  H60      1.0000 0.06080  0.61850  0.14270  Biso   1.000  H
  H61      1.0000 0.57720  0.88230  0.88780  Biso   1.000  H
  H62      1.0000 0.57720  0.11770  0.38780  Biso   1.000  H
  H63      1.0000 0.07720  0.38230  0.88780  Biso   1.000  H
  H64      1.0000 0.07720  0.61770  0.38780  Biso   1.000  H
  H65      1.0000 0.90400  0.12390  0.92200  Biso   1.000  H
  H66      1.0000 0.90400  0.87610  0.42200  Biso   1.000  H
  H67      1.0000 0.40400  0.62390  0.92200  Biso   1.000  H
  H68      1.0000 0.40400  0.37610  0.42200  Biso   1.000  H
