data_image0
_cell_length_a       19.129
_cell_length_b       19.129
_cell_length_c       6.764
_cell_angle_alpha    90
_cell_angle_beta     90
_cell_angle_gamma    90

_symmetry_space_group_name_H-M    "P 1"
_symmetry_int_tables_number       1

loop_
  _symmetry_equiv_pos_as_xyz
  'x, y, z'

loop_
  _atom_site_label
  _atom_site_occupancy
  _atom_site_fract_x
  _atom_site_fract_y
  _atom_site_fract_z
  _atom_site_thermal_displace_type
  _atom_site_B_iso_or_equiv
  _atom_site_type_symbol
  Cu1      1.0000 0.53116  0.53116  0.14758  Biso   1.000  Cu
  Cu2      1.0000 0.96884  0.96884  0.14758  Biso   1.000  Cu
  Cu3      1.0000 0.96884  0.53116  0.14758  Biso   1.000  Cu
  Cu4      1.0000 0.53116  0.96884  0.14758  Biso   1.000  Cu
  Cu5      1.0000 0.46884  0.03116  0.85242  Biso   1.000  Cu
  Cu6      1.0000 0.03116  0.46884  0.85242  Biso   1.000  Cu
  Cu7      1.0000 0.03116  0.03116  0.85242  Biso   1.000  Cu
  Cu8      1.0000 0.46884  0.46884  0.85242  Biso   1.000  Cu
  C1       1.0000 0.52582  0.31305  0.26450  Biso   1.000  C
  C2       1.0000 0.97418  0.18695  0.26450  Biso   1.000  C
  C3       1.0000 0.18695  0.52582  0.26450  Biso   1.000  C
  C4       1.0000 0.31305  0.97418  0.26450  Biso   1.000  C
  C5       1.0000 0.47418  0.81305  0.73550  Biso   1.000  C
  C6       1.0000 0.02582  0.68695  0.73550  Biso   1.000  C
  C7       1.0000 0.81305  0.02582  0.73550  Biso   1.000  C
  C8       1.0000 0.68695  0.47418  0.73550  Biso   1.000  C
  C9       1.0000 0.47418  0.68695  0.73550  Biso   1.000  C
  C10      1.0000 0.02582  0.81305  0.73550  Biso   1.000  C
  C11      1.0000 0.81305  0.47418  0.73550  Biso   1.000  C
  C12      1.0000 0.68695  0.02582  0.73550  Biso   1.000  C
  C13      1.0000 0.52582  0.18695  0.26450  Biso   1.000  C
  C14      1.0000 0.97418  0.31305  0.26450  Biso   1.000  C
  C15      1.0000 0.18695  0.97418  0.26450  Biso   1.000  C
  C16      1.0000 0.31305  0.52582  0.26450  Biso   1.000  C
  C17      1.0000 0.54892  0.31301  0.46010  Biso   1.000  C
  C18      1.0000 0.95108  0.18699  0.46010  Biso   1.000  C
  C19      1.0000 0.18699  0.54892  0.46010  Biso   1.000  C
  C20      1.0000 0.31301  0.95108  0.46010  Biso   1.000  C
  C21      1.0000 0.45108  0.81301  0.53990  Biso   1.000  C
  C22      1.0000 0.04892  0.68699  0.53990  Biso   1.000  C
  C23      1.0000 0.81301  0.04892  0.53990  Biso   1.000  C
  C24      1.0000 0.68699  0.45108  0.53990  Biso   1.000  C
  C25      1.0000 0.45108  0.68699  0.53990  Biso   1.000  C
  C26      1.0000 0.04892  0.81301  0.53990  Biso   1.000  C
  C27      1.0000 0.81301  0.45108  0.53990  Biso   1.000  C
  C28      1.0000 0.68699  0.04892  0.53990  Biso   1.000  C
  C29      1.0000 0.54892  0.18699  0.46010  Biso   1.000  C
  C30      1.0000 0.95108  0.31301  0.46010  Biso   1.000  C
  C31      1.0000 0.18699  0.95108  0.46010  Biso   1.000  C
  C32      1.0000 0.31301  0.54892  0.46010  Biso   1.000  C
  H1       1.0000 0.55690  0.35510  0.52510  Biso   1.000  H
  H2       1.0000 0.94310  0.14490  0.52510  Biso   1.000  H
  H3       1.0000 0.14490  0.55690  0.52510  Biso   1.000  H
  H4       1.0000 0.35510  0.94310  0.52510  Biso   1.000  H
  H5       1.0000 0.44310  0.85510  0.47490  Biso   1.000  H
  H6       1.0000 0.05690  0.64490  0.47490  Biso   1.000  H
  H7       1.0000 0.85510  0.05690  0.47490  Biso   1.000  H
  H8       1.0000 0.64490  0.44310  0.47490  Biso   1.000  H
  H9       1.0000 0.44310  0.64490  0.47490  Biso   1.000  H
  H10      1.0000 0.05690  0.85510  0.47490  Biso   1.000  H
  H11      1.0000 0.85510  0.44310  0.47490  Biso   1.000  H
  H12      1.0000 0.64490  0.05690  0.47490  Biso   1.000  H
  H13      1.0000 0.55690  0.14490  0.52510  Biso   1.000  H
  H14      1.0000 0.94310  0.35510  0.52510  Biso   1.000  H
  H15      1.0000 0.14490  0.94310  0.52510  Biso   1.000  H
  H16      1.0000 0.35510  0.55690  0.52510  Biso   1.000  H
  C33      1.0000 0.56000  0.25000  0.55810  Biso   1.000  C
  C34      1.0000 0.94000  0.25000  0.55810  Biso   1.000  C
  C35      1.0000 0.25000  0.56000  0.55810  Biso   1.000  C
  C36      1.0000 0.25000  0.94000  0.55810  Biso   1.000  C
  C37      1.0000 0.44000  0.75000  0.44190  Biso   1.000  C
  C38      1.0000 0.06000  0.75000  0.44190  Biso   1.000  C
  C39      1.0000 0.75000  0.06000  0.44190  Biso   1.000  C
  C40      1.0000 0.75000  0.44000  0.44190  Biso   1.000  C
  H17      1.0000 0.57490  0.25000  0.68900  Biso   1.000  H
  H18      1.0000 0.92510  0.25000  0.68900  Biso   1.000  H
  H19      1.0000 0.25000  0.57490  0.68900  Biso   1.000  H
  H20      1.0000 0.25000  0.92510  0.68900  Biso   1.000  H
  H21      1.0000 0.42510  0.75000  0.31100  Biso   1.000  H
  H22      1.0000 0.07490  0.75000  0.31100  Biso   1.000  H
  H23      1.0000 0.75000  0.07490  0.31100  Biso   1.000  H
  H24      1.0000 0.75000  0.42510  0.31100  Biso   1.000  H
  C41      1.0000 0.51400  0.25000  0.16760  Biso   1.000  C
  C42      1.0000 0.98600  0.25000  0.16760  Biso   1.000  C
  C43      1.0000 0.25000  0.51400  0.16760  Biso   1.000  C
  C44      1.0000 0.25000  0.98600  0.16760  Biso   1.000  C
  C45      1.0000 0.48600  0.75000  0.83240  Biso   1.000  C
  C46      1.0000 0.01400  0.75000  0.83240  Biso   1.000  C
  C47      1.0000 0.75000  0.01400  0.83240  Biso   1.000  C
  C48      1.0000 0.75000  0.48600  0.83240  Biso   1.000  C
  H25      1.0000 0.49810  0.25000  0.03760  Biso   1.000  H
  H26      1.0000 0.00190  0.25000  0.03760  Biso   1.000  H
  H27      1.0000 0.25000  0.49810  0.03760  Biso   1.000  H
  H28      1.0000 0.25000  0.00190  0.03760  Biso   1.000  H
  H29      1.0000 0.50190  0.75000  0.96240  Biso   1.000  H
  H30      1.0000 0.99810  0.75000  0.96240  Biso   1.000  H
  H31      1.0000 0.75000  0.99810  0.96240  Biso   1.000  H
  H32      1.0000 0.75000  0.50190  0.96240  Biso   1.000  H
  C49      1.0000 0.51447  0.38136  0.16150  Biso   1.000  C
  C50      1.0000 0.98553  0.11864  0.16150  Biso   1.000  C
  C51      1.0000 0.11864  0.51447  0.16150  Biso   1.000  C
  C52      1.0000 0.38136  0.98553  0.16150  Biso   1.000  C
  C53      1.0000 0.48553  0.88136  0.83850  Biso   1.000  C
  C54      1.0000 0.01447  0.61864  0.83850  Biso   1.000  C
  C55      1.0000 0.88136  0.01447  0.83850  Biso   1.000  C
  C56      1.0000 0.61864  0.48553  0.83850  Biso   1.000  C
  C57      1.0000 0.48553  0.61864  0.83850  Biso   1.000  C
  C58      1.0000 0.01447  0.88136  0.83850  Biso   1.000  C
  C59      1.0000 0.88136  0.48553  0.83850  Biso   1.000  C
  C60      1.0000 0.61864  0.01447  0.83850  Biso   1.000  C
  C61      1.0000 0.51447  0.11864  0.16150  Biso   1.000  C
  C62      1.0000 0.98553  0.38136  0.16150  Biso   1.000  C
  C63      1.0000 0.11864  0.98553  0.16150  Biso   1.000  C
  C64      1.0000 0.38136  0.51447  0.16150  Biso   1.000  C
  O1       1.0000 0.48406  0.38101  0.99740  Biso   1.000  O
  O2       1.0000 0.01594  0.11899  0.99740  Biso   1.000  O
  O3       1.0000 0.11899  0.48406  0.99740  Biso   1.000  O
  O4       1.0000 0.38101  0.01594  0.99740  Biso   1.000  O
  O5       1.0000 0.51594  0.88101  0.00260  Biso   1.000  O
  O6       1.0000 0.98406  0.61899  0.00260  Biso   1.000  O
  O7       1.0000 0.88101  0.98406  0.00260  Biso   1.000  O
  O8       1.0000 0.61899  0.51594  0.00260  Biso   1.000  O
  O9       1.0000 0.51594  0.61899  0.00260  Biso   1.000  O
  O10      1.0000 0.98406  0.88101  0.00260  Biso   1.000  O
  O11      1.0000 0.88101  0.51594  0.00260  Biso   1.000  O
  O12      1.0000 0.61899  0.98406  0.00260  Biso   1.000  O
  O13      1.0000 0.48406  0.11899  0.99740  Biso   1.000  O
  O14      1.0000 0.01594  0.38101  0.99740  Biso   1.000  O
  O15      1.0000 0.11899  0.01594  0.99740  Biso   1.000  O
  O16      1.0000 0.38101  0.48406  0.99740  Biso   1.000  O
  O17      1.0000 0.53591  0.43497  0.24730  Biso   1.000  O
  O18      1.0000 0.96409  0.06503  0.24730  Biso   1.000  O
  O19      1.0000 0.06503  0.53591  0.24730  Biso   1.000  O
  O20      1.0000 0.43497  0.96409  0.24730  Biso   1.000  O
  O21      1.0000 0.46409  0.93497  0.75270  Biso   1.000  O
  O22      1.0000 0.03591  0.56503  0.75270  Biso   1.000  O
  O23      1.0000 0.93497  0.03591  0.75270  Biso   1.000  O
  O24      1.0000 0.56503  0.46409  0.75270  Biso   1.000  O
  O25      1.0000 0.46409  0.56503  0.75270  Biso   1.000  O
  O26      1.0000 0.03591  0.93497  0.75270  Biso   1.000  O
  O27      1.0000 0.93497  0.46409  0.75270  Biso   1.000  O
  O28      1.0000 0.56503  0.03591  0.75270  Biso   1.000  O
  O29      1.0000 0.53591  0.06503  0.24730  Biso   1.000  O
  O30      1.0000 0.96409  0.43497  0.24730  Biso   1.000  O
  O31      1.0000 0.06503  0.96409  0.24730  Biso   1.000  O
  O32      1.0000 0.43497  0.53591  0.24730  Biso   1.000  O
  O33      1.0000 0.57482  0.57482  0.40860  Biso   1.000  O
  O34      1.0000 0.92518  0.92518  0.40860  Biso   1.000  O
  O35      1.0000 0.92518  0.57482  0.40860  Biso   1.000  O
  O36      1.0000 0.57482  0.92518  0.40860  Biso   1.000  O
  O37      1.0000 0.42518  0.07482  0.59140  Biso   1.000  O
  O38      1.0000 0.07482  0.42518  0.59140  Biso   1.000  O
  O39      1.0000 0.07482  0.07482  0.59140  Biso   1.000  O
  O40      1.0000 0.42518  0.42518  0.59140  Biso   1.000  O
  H33      1.0000 0.60480  0.60480  0.39490  Biso   1.000  H
  H34      1.0000 0.89520  0.89520  0.39490  Biso   1.000  H
  H35      1.0000 0.89520  0.60480  0.39490  Biso   1.000  H
  H36      1.0000 0.60480  0.89520  0.39490  Biso   1.000  H
  H37      1.0000 0.39520  0.10480  0.60510  Biso   1.000  H
  H38      1.0000 0.10480  0.39520  0.60510  Biso   1.000  H
  H39      1.0000 0.10480  0.10480  0.60510  Biso   1.000  H
  H40      1.0000 0.39520  0.39520  0.60510  Biso   1.000  H
  H41      1.0000 0.56690  0.56690  0.52530  Biso   1.000  H
  H42      1.0000 0.93310  0.93310  0.52530  Biso   1.000  H
  H43      1.0000 0.93310  0.56690  0.52530  Biso   1.000  H
  H44      1.0000 0.56690  0.93310  0.52530  Biso   1.000  H
  H45      1.0000 0.43310  0.06690  0.47470  Biso   1.000  H
  H46      1.0000 0.06690  0.43310  0.47470  Biso   1.000  H
  H47      1.0000 0.06690  0.06690  0.47470  Biso   1.000  H
  H48      1.0000 0.43310  0.43310  0.47470  Biso   1.000  H
  O41      1.0000 0.67260  0.67260  0.95450  Biso   1.000  O
  O42      1.0000 0.82740  0.82740  0.95450  Biso   1.000  O
  O43      1.0000 0.82740  0.67260  0.95450  Biso   1.000  O
  O44      1.0000 0.67260  0.82740  0.95450  Biso   1.000  O
  O45      1.0000 0.32740  0.17260  0.04550  Biso   1.000  O
  O46      1.0000 0.17260  0.32740  0.04550  Biso   1.000  O
  O47      1.0000 0.17260  0.17260  0.04550  Biso   1.000  O
  O48      1.0000 0.32740  0.32740  0.04550  Biso   1.000  O
  H49      1.0000 0.66560  0.66560  0.07270  Biso   1.000  H
  H50      1.0000 0.83440  0.83440  0.07270  Biso   1.000  H
  H51      1.0000 0.83440  0.66560  0.07270  Biso   1.000  H
  H52      1.0000 0.66560  0.83440  0.07270  Biso   1.000  H
  H53      1.0000 0.33440  0.16560  0.92730  Biso   1.000  H
  H54      1.0000 0.16560  0.33440  0.92730  Biso   1.000  H
  H55      1.0000 0.16560  0.16560  0.92730  Biso   1.000  H
  H56      1.0000 0.33440  0.33440  0.92730  Biso   1.000  H
  H57      1.0000 0.64800  0.64800  0.88320  Biso   1.000  H
  H58      1.0000 0.85200  0.85200  0.88320  Biso   1.000  H
  H59      1.0000 0.85200  0.64800  0.88320  Biso   1.000  H
  H60      1.0000 0.64800  0.85200  0.88320  Biso   1.000  H
  H61      1.0000 0.35200  0.14800  0.11680  Biso   1.000  H
  H62      1.0000 0.14800  0.35200  0.11680  Biso   1.000  H
  H63      1.0000 0.14800  0.14800  0.11680  Biso   1.000  H
  H64      1.0000 0.35200  0.35200  0.11680  Biso   1.000  H
  O49      1.0000 0.67210  0.67210  0.48700  Biso   1.000  O
  O50      1.0000 0.82790  0.82790  0.48700  Biso   1.000  O
  O51      1.0000 0.82790  0.67210  0.48700  Biso   1.000  O
  O52      1.0000 0.67210  0.82790  0.48700  Biso   1.000  O
  O53      1.0000 0.32790  0.17210  0.51300  Biso   1.000  O
  O54      1.0000 0.17210  0.32790  0.51300  Biso   1.000  O
  O55      1.0000 0.17210  0.17210  0.51300  Biso   1.000  O
  O56      1.0000 0.32790  0.32790  0.51300  Biso   1.000  O
  H65      1.0000 0.70220  0.70220  0.50080  Biso   1.000  H
  H66      1.0000 0.79780  0.79780  0.50080  Biso   1.000  H
  H67      1.0000 0.79780  0.70220  0.50080  Biso   1.000  H
  H68      1.0000 0.70220  0.79780  0.50080  Biso   1.000  H
  H69      1.0000 0.29780  0.20220  0.49920  Biso   1.000  H
  H70      1.0000 0.20220  0.29780  0.49920  Biso   1.000  H
  H71      1.0000 0.20220  0.20220  0.49920  Biso   1.000  H
  H72      1.0000 0.29780  0.29780  0.49920  Biso   1.000  H
  H73      1.0000 0.65800  0.65800  0.59430  Biso   1.000  H
  H74      1.0000 0.84200  0.84200  0.59430  Biso   1.000  H
  H75      1.0000 0.84200  0.65800  0.59430  Biso   1.000  H
  H76      1.0000 0.65800  0.84200  0.59430  Biso   1.000  H
  H77      1.0000 0.34200  0.15800  0.40570  Biso   1.000  H
  H78      1.0000 0.15800  0.34200  0.40570  Biso   1.000  H
  H79      1.0000 0.15800  0.15800  0.40570  Biso   1.000  H
  H80      1.0000 0.34200  0.34200  0.40570  Biso   1.000  H
