data_image0
_cell_length_a       19.1062
_cell_length_b       19.1062
_cell_length_c       6.7812
_cell_angle_alpha    90
_cell_angle_beta     90
_cell_angle_gamma    90

_symmetry_space_group_name_H-M    "P 1"
_symmetry_int_tables_number       1

loop_
  _symmetry_equiv_pos_as_xyz
  'x, y, z'

loop_
  _atom_site_label
  _atom_site_occupancy
  _atom_site_fract_x
  _atom_site_fract_y
  _atom_site_fract_z
  _atom_site_thermal_displace_type
  _atom_site_B_iso_or_equiv
  _atom_site_type_symbol
  Cu1      1.0000 0.03108  0.46888  0.35279  Biso   1.000  Cu
  Cu2      1.0000 0.03112  0.03108  0.35279  Biso   1.000  Cu
  Cu3      1.0000 0.46888  0.46892  0.35279  Biso   1.000  Cu
  Cu4      1.0000 0.46892  0.03112  0.35279  Biso   1.000  Cu
  Cu5      1.0000 0.96892  0.53112  0.64721  Biso   1.000  Cu
  Cu6      1.0000 0.96888  0.96892  0.64721  Biso   1.000  Cu
  Cu7      1.0000 0.53112  0.53108  0.64721  Biso   1.000  Cu
  Cu8      1.0000 0.53108  0.96888  0.64721  Biso   1.000  Cu
  O1       1.0000 0.01580  0.38180  0.49820  Biso   1.000  O
  O2       1.0000 0.11820  0.01580  0.49820  Biso   1.000  O
  O3       1.0000 0.38180  0.48420  0.49820  Biso   1.000  O
  O4       1.0000 0.48420  0.11820  0.49820  Biso   1.000  O
  O5       1.0000 0.98420  0.61820  0.50180  Biso   1.000  O
  O6       1.0000 0.88180  0.98420  0.50180  Biso   1.000  O
  O7       1.0000 0.61820  0.51580  0.50180  Biso   1.000  O
  O8       1.0000 0.51580  0.88180  0.50180  Biso   1.000  O
  O9       1.0000 0.96440  0.43470  0.74610  Biso   1.000  O
  O10      1.0000 0.06530  0.96440  0.74610  Biso   1.000  O
  O11      1.0000 0.43470  0.53560  0.74610  Biso   1.000  O
  O12      1.0000 0.53560  0.06530  0.74610  Biso   1.000  O
  O13      1.0000 0.03560  0.56530  0.25390  Biso   1.000  O
  O14      1.0000 0.93470  0.03560  0.25390  Biso   1.000  O
  O15      1.0000 0.56530  0.46440  0.25390  Biso   1.000  O
  O16      1.0000 0.46440  0.93470  0.25390  Biso   1.000  O
  O17      1.0000 0.01540  0.11890  0.49700  Biso   1.000  O
  O18      1.0000 0.38110  0.01540  0.49700  Biso   1.000  O
  O19      1.0000 0.11890  0.48460  0.49700  Biso   1.000  O
  O20      1.0000 0.48460  0.38110  0.49700  Biso   1.000  O
  O21      1.0000 0.98460  0.88110  0.50300  Biso   1.000  O
  O22      1.0000 0.61890  0.98460  0.50300  Biso   1.000  O
  O23      1.0000 0.88110  0.51540  0.50300  Biso   1.000  O
  O24      1.0000 0.51540  0.61890  0.50300  Biso   1.000  O
  O25      1.0000 0.96450  0.06510  0.74660  Biso   1.000  O
  O26      1.0000 0.43490  0.96450  0.74660  Biso   1.000  O
  O27      1.0000 0.06510  0.53550  0.74660  Biso   1.000  O
  O28      1.0000 0.53550  0.43490  0.74660  Biso   1.000  O
  O29      1.0000 0.03550  0.93490  0.25340  Biso   1.000  O
  O30      1.0000 0.56510  0.03550  0.25340  Biso   1.000  O
  O31      1.0000 0.93490  0.46450  0.25340  Biso   1.000  O
  O32      1.0000 0.46450  0.56510  0.25340  Biso   1.000  O
  O33      1.0000 0.07490  0.42560  0.09090  Biso   1.000  O
  O34      1.0000 0.07440  0.07490  0.09090  Biso   1.000  O
  O35      1.0000 0.42560  0.42510  0.09090  Biso   1.000  O
  O36      1.0000 0.42510  0.07440  0.09090  Biso   1.000  O
  O37      1.0000 0.92510  0.57440  0.90910  Biso   1.000  O
  O38      1.0000 0.92560  0.92510  0.90910  Biso   1.000  O
  O39      1.0000 0.57440  0.57490  0.90910  Biso   1.000  O
  O40      1.0000 0.57490  0.92560  0.90910  Biso   1.000  O
  C1       1.0000 0.98570  0.38110  0.66120  Biso   1.000  C
  C2       1.0000 0.11890  0.98570  0.66120  Biso   1.000  C
  C3       1.0000 0.38110  0.51430  0.66120  Biso   1.000  C
  C4       1.0000 0.51430  0.11890  0.66120  Biso   1.000  C
  C5       1.0000 0.01430  0.61890  0.33880  Biso   1.000  C
  C6       1.0000 0.88110  0.01430  0.33880  Biso   1.000  C
  C7       1.0000 0.61890  0.48570  0.33880  Biso   1.000  C
  C8       1.0000 0.48570  0.88110  0.33880  Biso   1.000  C
  C9       1.0000 0.97570  0.31310  0.76530  Biso   1.000  C
  C10      1.0000 0.18690  0.97570  0.76530  Biso   1.000  C
  C11      1.0000 0.31310  0.52430  0.76530  Biso   1.000  C
  C12      1.0000 0.52430  0.18690  0.76530  Biso   1.000  C
  C13      1.0000 0.02430  0.68690  0.23470  Biso   1.000  C
  C14      1.0000 0.81310  0.02430  0.23470  Biso   1.000  C
  C15      1.0000 0.68690  0.47570  0.23470  Biso   1.000  C
  C16      1.0000 0.47570  0.81310  0.23470  Biso   1.000  C
  C17      1.0000 0.95290  0.31330  0.96090  Biso   1.000  C
  C18      1.0000 0.18670  0.95290  0.96090  Biso   1.000  C
  C19      1.0000 0.31330  0.54710  0.96090  Biso   1.000  C
  C20      1.0000 0.54710  0.18670  0.96090  Biso   1.000  C
  C21      1.0000 0.04710  0.68670  0.03910  Biso   1.000  C
  C22      1.0000 0.81330  0.04710  0.03910  Biso   1.000  C
  C23      1.0000 0.68670  0.45290  0.03910  Biso   1.000  C
  C24      1.0000 0.45290  0.81330  0.03910  Biso   1.000  C
  H1       1.0000 0.94510  0.35560  0.02540  Biso   1.000  H
  H2       1.0000 0.14440  0.94510  0.02540  Biso   1.000  H
  H3       1.0000 0.35560  0.55490  0.02540  Biso   1.000  H
  H4       1.0000 0.55490  0.14440  0.02540  Biso   1.000  H
  H5       1.0000 0.05490  0.64440  0.97460  Biso   1.000  H
  H6       1.0000 0.85560  0.05490  0.97460  Biso   1.000  H
  H7       1.0000 0.64440  0.44510  0.97460  Biso   1.000  H
  H8       1.0000 0.44510  0.85560  0.97460  Biso   1.000  H
  C25      1.0000 0.94190  0.24970  0.06040  Biso   1.000  C
  C26      1.0000 0.25030  0.94190  0.06040  Biso   1.000  C
  C27      1.0000 0.24970  0.55810  0.06040  Biso   1.000  C
  C28      1.0000 0.55810  0.25030  0.06040  Biso   1.000  C
  C29      1.0000 0.05810  0.75030  0.93960  Biso   1.000  C
  C30      1.0000 0.74970  0.05810  0.93960  Biso   1.000  C
  C31      1.0000 0.75030  0.44190  0.93960  Biso   1.000  C
  C32      1.0000 0.44190  0.74970  0.93960  Biso   1.000  C
  H9       1.0000 0.92750  0.24970  0.19140  Biso   1.000  H
  H10      1.0000 0.25030  0.92750  0.19140  Biso   1.000  H
  H11      1.0000 0.24970  0.57250  0.19140  Biso   1.000  H
  H12      1.0000 0.57250  0.25030  0.19140  Biso   1.000  H
  H13      1.0000 0.07250  0.75030  0.80860  Biso   1.000  H
  H14      1.0000 0.74970  0.07250  0.80860  Biso   1.000  H
  H15      1.0000 0.75030  0.42750  0.80860  Biso   1.000  H
  H16      1.0000 0.42750  0.74970  0.80860  Biso   1.000  H
  C33      1.0000 0.95270  0.18640  0.96110  Biso   1.000  C
  C34      1.0000 0.31360  0.95270  0.96110  Biso   1.000  C
  C35      1.0000 0.18640  0.54730  0.96110  Biso   1.000  C
  C36      1.0000 0.54730  0.31360  0.96110  Biso   1.000  C
  C37      1.0000 0.04730  0.81360  0.03890  Biso   1.000  C
  C38      1.0000 0.68640  0.04730  0.03890  Biso   1.000  C
  C39      1.0000 0.81360  0.45270  0.03890  Biso   1.000  C
  C40      1.0000 0.45270  0.68640  0.03890  Biso   1.000  C
  H17      1.0000 0.94490  0.14410  0.02490  Biso   1.000  H
  H18      1.0000 0.35590  0.94490  0.02490  Biso   1.000  H
  H19      1.0000 0.14410  0.55510  0.02490  Biso   1.000  H
  H20      1.0000 0.55510  0.35590  0.02490  Biso   1.000  H
  H21      1.0000 0.05510  0.85590  0.97510  Biso   1.000  H
  H22      1.0000 0.64410  0.05510  0.97510  Biso   1.000  H
  H23      1.0000 0.85590  0.44490  0.97510  Biso   1.000  H
  H24      1.0000 0.44490  0.64410  0.97510  Biso   1.000  H
  C41      1.0000 0.97540  0.18740  0.76550  Biso   1.000  C
  C42      1.0000 0.31260  0.97540  0.76550  Biso   1.000  C
  C43      1.0000 0.18740  0.52460  0.76550  Biso   1.000  C
  C44      1.0000 0.52460  0.31260  0.76550  Biso   1.000  C
  C45      1.0000 0.02460  0.81260  0.23450  Biso   1.000  C
  C46      1.0000 0.68740  0.02460  0.23450  Biso   1.000  C
  C47      1.0000 0.81260  0.47540  0.23450  Biso   1.000  C
  C48      1.0000 0.47540  0.68740  0.23450  Biso   1.000  C
  C49      1.0000 0.98740  0.24960  0.66840  Biso   1.000  C
  C50      1.0000 0.25040  0.98740  0.66840  Biso   1.000  C
  C51      1.0000 0.24960  0.51260  0.66840  Biso   1.000  C
  C52      1.0000 0.51260  0.25040  0.66840  Biso   1.000  C
  C53      1.0000 0.01260  0.75040  0.33160  Biso   1.000  C
  C54      1.0000 0.74960  0.01260  0.33160  Biso   1.000  C
  C55      1.0000 0.75040  0.48740  0.33160  Biso   1.000  C
  C56      1.0000 0.48740  0.74960  0.33160  Biso   1.000  C
  H25      1.0000 0.00330  0.24930  0.53880  Biso   1.000  H
  H26      1.0000 0.25070  0.00330  0.53880  Biso   1.000  H
  H27      1.0000 0.24930  0.49670  0.53880  Biso   1.000  H
  H28      1.0000 0.49670  0.25070  0.53880  Biso   1.000  H
  H29      1.0000 0.99670  0.75070  0.46120  Biso   1.000  H
  H30      1.0000 0.74930  0.99670  0.46120  Biso   1.000  H
  H31      1.0000 0.75070  0.50330  0.46120  Biso   1.000  H
  H32      1.0000 0.50330  0.74930  0.46120  Biso   1.000  H
  C57      1.0000 0.98610  0.11850  0.66310  Biso   1.000  C
  C58      1.0000 0.38150  0.98610  0.66310  Biso   1.000  C
  C59      1.0000 0.11850  0.51390  0.66310  Biso   1.000  C
  C60      1.0000 0.51390  0.38150  0.66310  Biso   1.000  C
  C61      1.0000 0.01390  0.88150  0.33690  Biso   1.000  C
  C62      1.0000 0.61850  0.01390  0.33690  Biso   1.000  C
  C63      1.0000 0.88150  0.48610  0.33690  Biso   1.000  C
  C64      1.0000 0.48610  0.61850  0.33690  Biso   1.000  C
  O41      1.0000 0.67450  0.82620  0.44800  Biso   1.000  O
  O42      1.0000 0.67380  0.67450  0.44800  Biso   1.000  O
  O43      1.0000 0.82620  0.82550  0.44800  Biso   1.000  O
  O44      1.0000 0.82550  0.67380  0.44800  Biso   1.000  O
  O45      1.0000 0.32550  0.17380  0.55200  Biso   1.000  O
  O46      1.0000 0.32620  0.32550  0.55200  Biso   1.000  O
  O47      1.0000 0.17380  0.17450  0.55200  Biso   1.000  O
  O48      1.0000 0.17450  0.32620  0.55200  Biso   1.000  O
  O49      1.0000 0.32750  0.17240  0.00200  Biso   1.000  O
  O50      1.0000 0.32760  0.32750  0.00200  Biso   1.000  O
  O51      1.0000 0.17240  0.17250  0.00200  Biso   1.000  O
  O52      1.0000 0.17250  0.32760  0.00200  Biso   1.000  O
  O53      1.0000 0.67250  0.82760  0.99800  Biso   1.000  O
  O54      1.0000 0.67240  0.67250  0.99800  Biso   1.000  O
  O55      1.0000 0.82760  0.82750  0.99800  Biso   1.000  O
  O56      1.0000 0.82750  0.67240  0.99800  Biso   1.000  O
