data_image0
_cell_length_a       16.312
_cell_length_b       18.04
_cell_length_c       22.835
_cell_angle_alpha    105.968
_cell_angle_beta     103.67
_cell_angle_gamma    105.645

_symmetry_space_group_name_H-M    "P 1"
_symmetry_int_tables_number       1

loop_
  _symmetry_equiv_pos_as_xyz
  'x, y, z'

loop_
  _atom_site_label
  _atom_site_occupancy
  _atom_site_fract_x
  _atom_site_fract_y
  _atom_site_fract_z
  _atom_site_thermal_displace_type
  _atom_site_B_iso_or_equiv
  _atom_site_type_symbol
  Cu1      1.0000 0.85972  0.97602  0.43143  Biso   1.000  Cu
  Cu2      1.0000 0.14028  0.02398  0.56857  Biso   1.000  Cu
  Cu3      1.0000 0.56763  0.96772  0.08695  Biso   1.000  Cu
  Cu4      1.0000 0.43237  0.03228  0.91305  Biso   1.000  Cu
  P1       1.0000 0.95340  0.85258  0.48737  Biso   1.000  P
  P2       1.0000 0.04660  0.14742  0.51263  Biso   1.000  P
  P3       1.0000 0.40724  0.85944  0.94526  Biso   1.000  P
  P4       1.0000 0.59276  0.14056  0.05474  Biso   1.000  P
  O1       1.0000 0.87930  0.88360  0.47140  Biso   1.000  O
  O2       1.0000 0.12070  0.11640  0.52860  Biso   1.000  O
  O3       1.0000 0.93220  0.79420  0.52610  Biso   1.000  O
  O4       1.0000 0.06780  0.20580  0.47390  Biso   1.000  O
  O5       1.0000 0.94960  0.78730  0.42380  Biso   1.000  O
  O6       1.0000 0.05040  0.21270  0.57620  Biso   1.000  O
  O7       1.0000 0.04680  0.91370  0.52050  Biso   1.000  O
  O8       1.0000 0.95320  0.08630  0.47950  Biso   1.000  O
  O9       1.0000 0.48280  0.86560  0.99870  Biso   1.000  O
  O10      1.0000 0.51720  0.13440  0.00130  Biso   1.000  O
  O11      1.0000 0.40860  0.80580  0.87770  Biso   1.000  O
  O12      1.0000 0.59140  0.19420  0.12230  Biso   1.000  O
  O13      1.0000 0.31800  0.80760  0.95390  Biso   1.000  O
  O14      1.0000 0.68200  0.19240  0.04610  Biso   1.000  O
  O15      1.0000 0.39620  0.93520  0.93690  Biso   1.000  O
  O16      1.0000 0.60380  0.06480  0.06310  Biso   1.000  O
  N1       1.0000 0.74160  0.90130  0.35500  Biso   1.000  N
  N2       1.0000 0.25840  0.09870  0.64500  Biso   1.000  N
  N3       1.0000 0.91620  0.93770  0.36740  Biso   1.000  N
  N4       1.0000 0.08380  0.06230  0.63260  Biso   1.000  N
  N5       1.0000 0.77440  0.99580  0.47690  Biso   1.000  N
  N6       1.0000 0.22560  0.00420  0.52310  Biso   1.000  N
  N7       1.0000 0.56800  0.89770  0.14450  Biso   1.000  N
  N8       1.0000 0.43200  0.10230  0.85550  Biso   1.000  N
  N9       1.0000 0.67380  0.93860  0.07780  Biso   1.000  N
  N10      1.0000 0.32620  0.06140  0.92220  Biso   1.000  N
  N11      1.0000 0.46320  0.98110  0.11140  Biso   1.000  N
  N12      1.0000 0.53680  0.01890  0.88860  Biso   1.000  N
  C1       1.0000 0.76690  0.83270  0.32180  Biso   1.000  C
  C2       1.0000 0.23310  0.16730  0.67820  Biso   1.000  C
  H1       1.0000 0.72190  0.80000  0.27940  Biso   1.000  H
  H2       1.0000 0.27810  0.20000  0.72060  Biso   1.000  H
  H3       1.0000 0.77050  0.79720  0.34660  Biso   1.000  H
  H4       1.0000 0.22950  0.20280  0.65340  Biso   1.000  H
  C3       1.0000 0.85650  0.86950  0.31550  Biso   1.000  C
  C4       1.0000 0.14350  0.13050  0.68450  Biso   1.000  C
  C5       1.0000 0.88180  0.83550  0.26400  Biso   1.000  C
  C6       1.0000 0.11820  0.16450  0.73600  Biso   1.000  C
  H5       1.0000 0.84030  0.78960  0.22870  Biso   1.000  H
  H6       1.0000 0.15970  0.21040  0.77130  Biso   1.000  H
  C7       1.0000 0.96930  0.86970  0.26450  Biso   1.000  C
  C8       1.0000 0.03070  0.13030  0.73550  Biso   1.000  C
  H7       1.0000 0.98680  0.84840  0.22950  Biso   1.000  H
  H8       1.0000 0.01320  0.15160  0.77050  Biso   1.000  H
  C9       1.0000 0.02970  0.93630  0.31880  Biso   1.000  C
  C10      1.0000 0.97030  0.06370  0.68120  Biso   1.000  C
  H9       1.0000 0.08940  0.95890  0.32120  Biso   1.000  H
  H10      1.0000 0.91060  0.04110  0.67880  Biso   1.000  H
  C11      1.0000 0.00220  0.96960  0.36900  Biso   1.000  C
  C12      1.0000 0.99780  0.03040  0.63100  Biso   1.000  C
  H11      1.0000 0.04360  0.01480  0.40490  Biso   1.000  H
  H12      1.0000 0.95640  0.98520  0.59510  Biso   1.000  H
  C13      1.0000 0.67330  0.87420  0.38450  Biso   1.000  C
  C14      1.0000 0.32670  0.12580  0.61550  Biso   1.000  C
  H13      1.0000 0.61360  0.86130  0.35480  Biso   1.000  H
  H14      1.0000 0.38640  0.13870  0.64520  Biso   1.000  H
  H15      1.0000 0.67570  0.82430  0.39190  Biso   1.000  H
  H16      1.0000 0.32430  0.17570  0.60810  Biso   1.000  H
  C15      1.0000 0.68810  0.93810  0.44620  Biso   1.000  C
  C16      1.0000 0.31190  0.06190  0.55380  Biso   1.000  C
  C17      1.0000 0.62280  0.94110  0.47420  Biso   1.000  C
  C18      1.0000 0.37720  0.05890  0.52580  Biso   1.000  C
  H17      1.0000 0.56480  0.90160  0.45370  Biso   1.000  H
  H18      1.0000 0.43520  0.09840  0.54630  Biso   1.000  H
  C19      1.0000 0.64260  0.00170  0.53210  Biso   1.000  C
  C20      1.0000 0.35740  0.99830  0.46790  Biso   1.000  C
  H19      1.0000 0.59800  0.00390  0.55080  Biso   1.000  H
  H20      1.0000 0.40200  0.99610  0.44920  Biso   1.000  H
  C21      1.0000 0.72910  0.06020  0.56290  Biso   1.000  C
  C22      1.0000 0.27090  0.93980  0.43710  Biso   1.000  C
  H21      1.0000 0.74370  0.10210  0.60230  Biso   1.000  H
  H22      1.0000 0.25630  0.89790  0.39770  Biso   1.000  H
  C23      1.0000 0.79310  0.05420  0.53360  Biso   1.000  C
  C24      1.0000 0.20690  0.94580  0.46640  Biso   1.000  C
  H23      1.0000 0.85170  0.09260  0.55430  Biso   1.000  H
  H24      1.0000 0.14830  0.90740  0.44570  Biso   1.000  H
  C25      1.0000 0.71350  0.94500  0.31330  Biso   1.000  C
  C26      1.0000 0.28650  0.05500  0.68670  Biso   1.000  C
  C27      1.0000 0.75240  0.03210  0.33630  Biso   1.000  C
  C28      1.0000 0.24760  0.96790  0.66370  Biso   1.000  C
  H25      1.0000 0.79330  0.06200  0.37790  Biso   1.000  H
  H26      1.0000 0.20670  0.93800  0.62210  Biso   1.000  H
  C29      1.0000 0.72730  0.07140  0.29420  Biso   1.000  C
  C30      1.0000 0.27270  0.92860  0.70580  Biso   1.000  C
  H27      1.0000 0.75180  0.12870  0.30870  Biso   1.000  H
  H28      1.0000 0.24820  0.87130  0.69130  Biso   1.000  H
  C31      1.0000 0.66830  0.02930  0.23250  Biso   1.000  C
  C32      1.0000 0.33170  0.97070  0.76750  Biso   1.000  C
  H29      1.0000 0.65340  0.05770  0.20570  Biso   1.000  H
  H30      1.0000 0.34660  0.94230  0.79430  Biso   1.000  H
  C33      1.0000 0.63100  0.94420  0.21020  Biso   1.000  C
  C34      1.0000 0.36900  0.05580  0.78980  Biso   1.000  C
  C35      1.0000 0.65290  0.90240  0.25110  Biso   1.000  C
  C36      1.0000 0.34710  0.09760  0.74890  Biso   1.000  C
  H31      1.0000 0.62650  0.84520  0.23640  Biso   1.000  H
  H32      1.0000 0.37350  0.15480  0.76360  Biso   1.000  H
  C37      1.0000 0.59610  0.83160  0.10900  Biso   1.000  C
  C38      1.0000 0.40390  0.16840  0.89100  Biso   1.000  C
  H33      1.0000 0.54660  0.79340  0.07010  Biso   1.000  H
  H34      1.0000 0.45340  0.20660  0.92990  Biso   1.000  H
  H35      1.0000 0.61210  0.80100  0.13600  Biso   1.000  H
  H36      1.0000 0.38790  0.19900  0.86400  Biso   1.000  H
  C39      1.0000 0.67760  0.87180  0.09140  Biso   1.000  C
  C40      1.0000 0.32240  0.12820  0.90860  Biso   1.000  C
  C41      1.0000 0.74200  0.83890  0.08430  Biso   1.000  C
  C42      1.0000 0.25800  0.16110  0.91570  Biso   1.000  C
  H37      1.0000 0.74240  0.79200  0.09370  Biso   1.000  H
  H38      1.0000 0.25760  0.20800  0.90630  Biso   1.000  H
  C43      1.0000 0.80790  0.87820  0.06200  Biso   1.000  C
  C44      1.0000 0.19210  0.12180  0.93800  Biso   1.000  C
  H39      1.0000 0.85390  0.85840  0.05720  Biso   1.000  H
  H40      1.0000 0.14610  0.14160  0.94280  Biso   1.000  H
  C45      1.0000 0.80400  0.94570  0.04770  Biso   1.000  C
  C46      1.0000 0.19600  0.05430  0.95230  Biso   1.000  C
  H41      1.0000 0.84580  0.97100  0.03120  Biso   1.000  H
  H42      1.0000 0.15420  0.02900  0.96880  Biso   1.000  H
  C47      1.0000 0.73750  0.97650  0.05770  Biso   1.000  C
  C48      1.0000 0.26250  0.02350  0.94230  Biso   1.000  C
  H43      1.0000 0.73730  0.02470  0.05030  Biso   1.000  H
  H44      1.0000 0.26270  0.97530  0.94970  Biso   1.000  H
  C49      1.0000 0.47280  0.86440  0.14180  Biso   1.000  C
  C50      1.0000 0.52720  0.13560  0.85820  Biso   1.000  C
  H45      1.0000 0.47090  0.84860  0.17890  Biso   1.000  H
  H46      1.0000 0.52910  0.15140  0.82110  Biso   1.000  H
  H47      1.0000 0.43880  0.81580  0.10300  Biso   1.000  H
  H48      1.0000 0.56120  0.18420  0.89700  Biso   1.000  H
  C51      1.0000 0.43190  0.92900  0.14180  Biso   1.000  C
  C52      1.0000 0.56810  0.07100  0.85820  Biso   1.000  C
  C53      1.0000 0.36150  0.93290  0.16510  Biso   1.000  C
  C54      1.0000 0.63850  0.06710  0.83490  Biso   1.000  C
  H49      1.0000 0.34170  0.89830  0.18650  Biso   1.000  H
  H50      1.0000 0.65830  0.10170  0.81350  Biso   1.000  H
  C55      1.0000 0.32180  0.98820  0.15630  Biso   1.000  C
  C56      1.0000 0.67820  0.01180  0.84370  Biso   1.000  C
  H51      1.0000 0.27350  0.99060  0.17080  Biso   1.000  H
  H52      1.0000 0.72650  0.00940  0.82920  Biso   1.000  H
  C57      1.0000 0.35280  0.04070  0.12590  Biso   1.000  C
  C58      1.0000 0.64720  0.95930  0.87410  Biso   1.000  C
  H53      1.0000 0.32750  0.08000  0.12100  Biso   1.000  H
  H54      1.0000 0.67250  0.92000  0.87900  Biso   1.000  H
  C59      1.0000 0.42070  0.03340  0.10350  Biso   1.000  C
  C60      1.0000 0.57930  0.96660  0.89650  Biso   1.000  C
  H55      1.0000 0.43930  0.06690  0.08100  Biso   1.000  H
  H56      1.0000 0.56070  0.93310  0.91900  Biso   1.000  H
  C61      1.0000 0.91280  0.81930  0.58420  Biso   1.000  C
  C62      1.0000 0.08720  0.18070  0.41580  Biso   1.000  C
  C63      1.0000 0.97660  0.82780  0.64090  Biso   1.000  C
  C64      1.0000 0.02340  0.17220  0.35910  Biso   1.000  C
  H57      1.0000 0.03080  0.82070  0.64000  Biso   1.000  H
  H58      1.0000 0.96920  0.17930  0.36000  Biso   1.000  H
  C65      1.0000 0.95900  0.84650  0.69650  Biso   1.000  C
  C66      1.0000 0.04100  0.15350  0.30350  Biso   1.000  C
  H59      1.0000 0.00130  0.85160  0.73420  Biso   1.000  H
  H60      1.0000 0.99870  0.14840  0.26580  Biso   1.000  H
  C67      1.0000 0.88400  0.85780  0.69900  Biso   1.000  C
  C68      1.0000 0.11600  0.14220  0.30100  Biso   1.000  C
  H61      1.0000 0.87440  0.87270  0.73850  Biso   1.000  H
  H62      1.0000 0.12560  0.12730  0.26150  Biso   1.000  H
  C69      1.0000 0.81630  0.84730  0.64170  Biso   1.000  C
  C70      1.0000 0.18370  0.15270  0.35830  Biso   1.000  C
  H63      1.0000 0.76260  0.85450  0.64360  Biso   1.000  H
  H64      1.0000 0.23740  0.14550  0.35640  Biso   1.000  H
  C71      1.0000 0.83120  0.82660  0.58340  Biso   1.000  C
  C72      1.0000 0.16880  0.17340  0.41660  Biso   1.000  C
  H65      1.0000 0.78760  0.81790  0.54510  Biso   1.000  H
  H66      1.0000 0.21240  0.18210  0.45490  Biso   1.000  H
  C73      1.0000 0.01800  0.75420  0.41780  Biso   1.000  C
  C74      1.0000 0.98200  0.24580  0.58220  Biso   1.000  C
  C75      1.0000 0.03310  0.74210  0.36170  Biso   1.000  C
  C76      1.0000 0.96690  0.25790  0.63830  Biso   1.000  C
  H67      1.0000 0.99990  0.75470  0.32920  Biso   1.000  H
  H68      1.0000 0.00010  0.24530  0.67080  Biso   1.000  H
  C77      1.0000 0.09820  0.71090  0.35310  Biso   1.000  C
  C78      1.0000 0.90180  0.28910  0.64690  Biso   1.000  C
  H69      1.0000 0.11040  0.70290  0.31450  Biso   1.000  H
  H70      1.0000 0.88960  0.29710  0.68550  Biso   1.000  H
  C79      1.0000 0.14600  0.69100  0.40070  Biso   1.000  C
  C80      1.0000 0.85400  0.30900  0.59930  Biso   1.000  C
  H71      1.0000 0.18600  0.66390  0.39320  Biso   1.000  H
  H72      1.0000 0.81400  0.33610  0.60680  Biso   1.000  H
  C81      1.0000 0.13410  0.71150  0.45700  Biso   1.000  C
  C82      1.0000 0.86590  0.28850  0.54300  Biso   1.000  C
  H73      1.0000 0.17250  0.70490  0.49080  Biso   1.000  H
  H74      1.0000 0.82750  0.29510  0.50920  Biso   1.000  H
  C83      1.0000 0.06920  0.74180  0.46960  Biso   1.000  C
  C84      1.0000 0.93080  0.25820  0.53040  Biso   1.000  C
  H75      1.0000 0.06020  0.75300  0.50930  Biso   1.000  H
  H76      1.0000 0.93980  0.24700  0.49070  Biso   1.000  H
  C85      1.0000 0.43060  0.73510  0.87110  Biso   1.000  C
  C86      1.0000 0.56940  0.26490  0.12890  Biso   1.000  C
  C87      1.0000 0.36300  0.65970  0.83850  Biso   1.000  C
  C88      1.0000 0.63700  0.34030  0.16150  Biso   1.000  C
  H77      1.0000 0.30350  0.65630  0.82270  Biso   1.000  H
  H78      1.0000 0.69650  0.34370  0.17730  Biso   1.000  H
  C89      1.0000 0.38360  0.58690  0.82880  Biso   1.000  C
  C90      1.0000 0.61640  0.41310  0.17120  Biso   1.000  C
  H79      1.0000 0.33860  0.53540  0.80470  Biso   1.000  H
  H80      1.0000 0.66140  0.46460  0.19530  Biso   1.000  H
  C91      1.0000 0.47200  0.59380  0.85590  Biso   1.000  C
  C92      1.0000 0.52800  0.40620  0.14410  Biso   1.000  C
  H81      1.0000 0.48600  0.54640  0.85240  Biso   1.000  H
  H82      1.0000 0.51400  0.45360  0.14760  Biso   1.000  H
  C93      1.0000 0.53990  0.67090  0.88840  Biso   1.000  C
  C94      1.0000 0.46010  0.32910  0.11160  Biso   1.000  C
  H83      1.0000 0.59980  0.67540  0.90410  Biso   1.000  H
  H84      1.0000 0.40020  0.32460  0.09590  Biso   1.000  H
  C95      1.0000 0.51770  0.74180  0.89730  Biso   1.000  C
  C96      1.0000 0.48230  0.25820  0.10270  Biso   1.000  C
  H85      1.0000 0.56230  0.79360  0.92120  Biso   1.000  H
  H86      1.0000 0.43770  0.20640  0.07880  Biso   1.000  H
  C97      1.0000 0.23380  0.81480  0.92900  Biso   1.000  C
  C98      1.0000 0.76620  0.18520  0.07100  Biso   1.000  C
  C99      1.0000 0.19750  0.80040  0.86420  Biso   1.000  C
  C100     1.0000 0.80250  0.19960  0.13580  Biso   1.000  C
  H87      1.0000 0.22680  0.78400  0.83550  Biso   1.000  H
  H88      1.0000 0.77320  0.21600  0.16450  Biso   1.000  H
  C101     1.0000 0.11760  0.81080  0.84330  Biso   1.000  C
  C102     1.0000 0.88240  0.18920  0.15670  Biso   1.000  C
  H89      1.0000 0.09280  0.80230  0.79980  Biso   1.000  H
  H90      1.0000 0.90720  0.19770  0.20020  Biso   1.000  H
  C103     1.0000 0.07330  0.83330  0.88430  Biso   1.000  C
  C104     1.0000 0.92670  0.16670  0.11570  Biso   1.000  C
  H91      1.0000 0.01900  0.84030  0.86880  Biso   1.000  H
  H92      1.0000 0.98100  0.15970  0.13120  Biso   1.000  H
  C105     1.0000 0.10800  0.84600  0.94900  Biso   1.000  C
  C106     1.0000 0.89200  0.15400  0.05100  Biso   1.000  C
  H93      1.0000 0.07740  0.86140  0.97700  Biso   1.000  H
  H94      1.0000 0.92260  0.13860  0.02300  Biso   1.000  H
  C107     1.0000 0.19160  0.83510  0.97210  Biso   1.000  C
  C108     1.0000 0.80840  0.16490  0.02790  Biso   1.000  C
  H95      1.0000 0.21610  0.84180  0.01520  Biso   1.000  H
  H96      1.0000 0.78390  0.15820  0.98480  Biso   1.000  H
  Cu5      1.0000 0.37771  0.48624  0.42745  Biso   1.000  Cu
  Cu6      1.0000 0.62229  0.51376  0.57255  Biso   1.000  Cu
  Cu7      1.0000 0.05548  0.49237  0.09690  Biso   1.000  Cu
  Cu8      1.0000 0.94452  0.50763  0.90310  Biso   1.000  Cu
  P5       1.0000 0.43560  0.34862  0.48547  Biso   1.000  P
  P6       1.0000 0.56440  0.65138  0.51453  Biso   1.000  P
  P7       1.0000 0.10369  0.64612  0.04666  Biso   1.000  P
  P8       1.0000 0.89631  0.35388  0.95334  Biso   1.000  P
  O17      1.0000 0.37220  0.38990  0.46730  Biso   1.000  O
  O18      1.0000 0.62780  0.61010  0.53270  Biso   1.000  O
  O19      1.0000 0.43410  0.28320  0.42070  Biso   1.000  O
  O20      1.0000 0.56590  0.71680  0.57930  Biso   1.000  O
  O21      1.0000 0.39530  0.28520  0.51730  Biso   1.000  O
  O22      1.0000 0.60470  0.71480  0.48270  Biso   1.000  O
  O23      1.0000 0.53080  0.40220  0.52570  Biso   1.000  O
  O24      1.0000 0.46920  0.59780  0.47430  Biso   1.000  O
  O25      1.0000 0.10250  0.60250  0.09370  Biso   1.000  O
  O26      1.0000 0.89750  0.39750  0.90630  Biso   1.000  O
  O27      1.0000 0.05000  0.70750  0.05810  Biso   1.000  O
  O28      1.0000 0.95000  0.29250  0.94190  Biso   1.000  O
  O29      1.0000 0.20320  0.70970  0.06530  Biso   1.000  O
  O30      1.0000 0.79680  0.29030  0.93470  Biso   1.000  O
  O31      1.0000 0.06670  0.59470  0.97650  Biso   1.000  O
  O32      1.0000 0.93330  0.40530  0.02350  Biso   1.000  O
  N13      1.0000 0.26120  0.41040  0.34940  Biso   1.000  N
  N14      1.0000 0.73880  0.58960  0.65060  Biso   1.000  N
  N15      1.0000 0.43740  0.44040  0.36850  Biso   1.000  N
  N16      1.0000 0.56260  0.55960  0.63150  Biso   1.000  N
  N17      1.0000 0.28910  0.51440  0.46800  Biso   1.000  N
  N18      1.0000 0.71090  0.48560  0.53200  Biso   1.000  N
  N19      1.0000 0.06770  0.41700  0.15080  Biso   1.000  N
  N20      1.0000 0.93230  0.58300  0.84920  Biso   1.000  N
  N21      1.0000 0.98270  0.52410  0.15090  Biso   1.000  N
  N22      1.0000 0.01730  0.47590  0.84910  Biso   1.000  N
  N23      1.0000 0.13200  0.44100  0.05710  Biso   1.000  N
  N24      1.0000 0.86800  0.55900  0.94290  Biso   1.000  N
  C109     1.0000 0.19260  0.38770  0.37920  Biso   1.000  C
  C110     1.0000 0.80740  0.61230  0.62080  Biso   1.000  C
  H97      1.0000 0.19770  0.34220  0.39280  Biso   1.000  H
  H98      1.0000 0.80230  0.65780  0.60720  Biso   1.000  H
  H99      1.0000 0.13290  0.36940  0.34760  Biso   1.000  H
  H100     1.0000 0.86710  0.63060  0.65240  Biso   1.000  H
  C111     1.0000 0.20350  0.45910  0.43630  Biso   1.000  C
  C112     1.0000 0.79650  0.54090  0.56370  Biso   1.000  C
  C113     1.0000 0.13470  0.46730  0.45850  Biso   1.000  C
  C114     1.0000 0.86530  0.53270  0.54150  Biso   1.000  C
  H101     1.0000 0.07580  0.43020  0.43590  Biso   1.000  H
  H102     1.0000 0.92420  0.56980  0.56410  Biso   1.000  H
  C115     1.0000 0.15410  0.53170  0.51530  Biso   1.000  C
  C116     1.0000 0.84590  0.46830  0.48470  Biso   1.000  C
  H103     1.0000 0.10820  0.53650  0.53190  Biso   1.000  H
  H104     1.0000 0.89180  0.46350  0.46810  Biso   1.000  H
  C117     1.0000 0.23850  0.58760  0.54690  Biso   1.000  C
  C118     1.0000 0.76150  0.41240  0.45310  Biso   1.000  C
  H105     1.0000 0.25180  0.63100  0.58510  Biso   1.000  H
  H106     1.0000 0.74820  0.36900  0.41490  Biso   1.000  H
  C119     1.0000 0.30510  0.57800  0.52030  Biso   1.000  C
  C120     1.0000 0.69490  0.42200  0.47970  Biso   1.000  C
  H107     1.0000 0.36300  0.61780  0.54010  Biso   1.000  H
  H108     1.0000 0.63700  0.38220  0.45990  Biso   1.000  H
  C121     1.0000 0.28420  0.34140  0.31610  Biso   1.000  C
  C122     1.0000 0.71580  0.65860  0.68390  Biso   1.000  C
  H109     1.0000 0.24340  0.31430  0.27180  Biso   1.000  H
  H110     1.0000 0.75660  0.68570  0.72820  Biso   1.000  H
  H111     1.0000 0.27740  0.30140  0.33730  Biso   1.000  H
  H112     1.0000 0.72260  0.69860  0.66270  Biso   1.000  H
  C123     1.0000 0.38070  0.37220  0.31690  Biso   1.000  C
  C124     1.0000 0.61930  0.62780  0.68310  Biso   1.000  C
  C125     1.0000 0.41110  0.33140  0.27080  Biso   1.000  C
  C126     1.0000 0.58890  0.66860  0.72920  Biso   1.000  C
  H113     1.0000 0.37000  0.28600  0.23490  Biso   1.000  H
  H114     1.0000 0.63000  0.71400  0.76510  Biso   1.000  H
  C127     1.0000 0.50140  0.35690  0.27700  Biso   1.000  C
  C128     1.0000 0.49860  0.64310  0.72300  Biso   1.000  C
  H115     1.0000 0.52240  0.32910  0.24660  Biso   1.000  H
  H116     1.0000 0.47760  0.67090  0.75340  Biso   1.000  H
  C129     1.0000 0.55990  0.42630  0.33120  Biso   1.000  C
  C130     1.0000 0.44010  0.57370  0.66880  Biso   1.000  C
  H117     1.0000 0.62130  0.44590  0.33710  Biso   1.000  H
  H118     1.0000 0.37870  0.55410  0.66290  Biso   1.000  H
  C131     1.0000 0.52700  0.46590  0.37590  Biso   1.000  C
  C132     1.0000 0.47300  0.53410  0.62410  Biso   1.000  C
  H119     1.0000 0.56710  0.51130  0.41210  Biso   1.000  H
  H120     1.0000 0.43290  0.48870  0.58790  Biso   1.000  H
  C133     1.0000 0.23960  0.45690  0.30690  Biso   1.000  C
  C134     1.0000 0.76040  0.54310  0.69310  Biso   1.000  C
  C135     1.0000 0.29020  0.54070  0.32560  Biso   1.000  C
  C136     1.0000 0.70980  0.45930  0.67440  Biso   1.000  C
  H121     1.0000 0.33770  0.56830  0.36470  Biso   1.000  H
  H122     1.0000 0.66230  0.43170  0.63530  Biso   1.000  H
  C137     1.0000 0.26830  0.58170  0.28480  Biso   1.000  C
  C138     1.0000 0.73170  0.41830  0.71520  Biso   1.000  C
  H123     1.0000 0.30310  0.63680  0.29580  Biso   1.000  H
  H124     1.0000 0.69690  0.36320  0.70420  Biso   1.000  H
  C139     1.0000 0.19700  0.54290  0.22890  Biso   1.000  C
  C140     1.0000 0.80300  0.45710  0.77110  Biso   1.000  C
  H125     1.0000 0.18280  0.57150  0.20220  Biso   1.000  H
  H126     1.0000 0.81720  0.42850  0.79780  Biso   1.000  H
  C141     1.0000 0.14530  0.46090  0.21190  Biso   1.000  C
  C142     1.0000 0.85470  0.53910  0.78810  Biso   1.000  C
  C143     1.0000 0.16630  0.41880  0.25230  Biso   1.000  C
  C144     1.0000 0.83370  0.58120  0.74770  Biso   1.000  C
  H127     1.0000 0.13000  0.36430  0.24200  Biso   1.000  H
  H128     1.0000 0.87000  0.63570  0.75800  Biso   1.000  H
  C145     1.0000 0.98100  0.39650  0.16510  Biso   1.000  C
  C146     1.0000 0.01900  0.60350  0.83490  Biso   1.000  C
  H129     1.0000 0.98890  0.37940  0.20220  Biso   1.000  H
  H130     1.0000 0.01110  0.62060  0.79780  Biso   1.000  H
  H131     1.0000 0.93390  0.35130  0.12840  Biso   1.000  H
  H132     1.0000 0.06610  0.64870  0.87160  Biso   1.000  H
  C147     1.0000 0.95410  0.47150  0.17920  Biso   1.000  C
  C148     1.0000 0.04590  0.52850  0.82080  Biso   1.000  C
  C149     1.0000 0.90220  0.48360  0.21830  Biso   1.000  C
  C150     1.0000 0.09780  0.51640  0.78170  Biso   1.000  C
  H133     1.0000 0.88620  0.44780  0.23960  Biso   1.000  H
  H134     1.0000 0.11380  0.55220  0.76040  Biso   1.000  H
  C151     1.0000 0.87540  0.54960  0.22450  Biso   1.000  C
  C152     1.0000 0.12460  0.45040  0.77550  Biso   1.000  C
  H135     1.0000 0.83930  0.55830  0.24980  Biso   1.000  H
  H136     1.0000 0.16070  0.44170  0.75020  Biso   1.000  H
  C153     1.0000 0.90050  0.60420  0.19410  Biso   1.000  C
  C154     1.0000 0.09950  0.39580  0.80590  Biso   1.000  C
  H137     1.0000 0.88080  0.64850  0.19780  Biso   1.000  H
  H138     1.0000 0.11920  0.35150  0.80220  Biso   1.000  H
  C155     1.0000 0.95600  0.59040  0.15810  Biso   1.000  C
  C156     1.0000 0.04400  0.40960  0.84190  Biso   1.000  C
  H139     1.0000 0.97540  0.62730  0.13840  Biso   1.000  H
  H140     1.0000 0.02460  0.37270  0.86160  Biso   1.000  H
  C157     1.0000 0.07810  0.34540  0.10610  Biso   1.000  C
  C158     1.0000 0.92190  0.65460  0.89390  Biso   1.000  C
  H141     1.0000 0.01930  0.30810  0.07510  Biso   1.000  H
  H142     1.0000 0.98070  0.69190  0.92490  Biso   1.000  H
  H143     1.0000 0.10290  0.31560  0.13050  Biso   1.000  H
  H144     1.0000 0.89710  0.68440  0.86950  Biso   1.000  H
  C159     1.0000 0.14050  0.37470  0.07010  Biso   1.000  C
  C160     1.0000 0.85950  0.62530  0.92990  Biso   1.000  C
  C161     1.0000 0.19370  0.33550  0.05140  Biso   1.000  C
  C162     1.0000 0.80630  0.66450  0.94860  Biso   1.000  C
  H145     1.0000 0.19810  0.29120  0.06350  Biso   1.000  H
  H146     1.0000 0.80190  0.70880  0.93650  Biso   1.000  H
  C163     1.0000 0.24240  0.36110  0.01390  Biso   1.000  C
  C164     1.0000 0.75760  0.63890  0.98610  Biso   1.000  C
  H147     1.0000 0.28070  0.33510  0.00100  Biso   1.000  H
  H148     1.0000 0.71930  0.66490  0.99900  Biso   1.000  H
  C165     1.0000 0.23250  0.42660  0.99600  Biso   1.000  C
  C166     1.0000 0.76750  0.57340  0.00400  Biso   1.000  C
  H149     1.0000 0.26150  0.44380  0.96890  Biso   1.000  H
  H150     1.0000 0.73850  0.55620  0.03110  Biso   1.000  H
  C167     1.0000 0.17850  0.46570  0.01940  Biso   1.000  C
  C168     1.0000 0.82150  0.53430  0.98060  Biso   1.000  C
  H151     1.0000 0.17380  0.51110  0.00900  Biso   1.000  H
  H152     1.0000 0.82620  0.48890  0.99100  Biso   1.000  H
  C169     1.0000 0.47520  0.22360  0.41500  Biso   1.000  C
  C170     1.0000 0.52480  0.77640  0.58500  Biso   1.000  C
  C171     1.0000 0.53560  0.21970  0.46720  Biso   1.000  C
  C172     1.0000 0.46440  0.78030  0.53280  Biso   1.000  C
  H153     1.0000 0.54940  0.25740  0.50840  Biso   1.000  H
  H154     1.0000 0.45060  0.74260  0.49160  Biso   1.000  H
  C173     1.0000 0.57600  0.16040  0.45910  Biso   1.000  C
  C174     1.0000 0.42400  0.83960  0.54090  Biso   1.000  C
  H155     1.0000 0.61770  0.15870  0.49390  Biso   1.000  H
  H156     1.0000 0.38230  0.84130  0.50610  Biso   1.000  H
  C175     1.0000 0.55130  0.10380  0.39670  Biso   1.000  C
  C176     1.0000 0.44870  0.89620  0.60330  Biso   1.000  C
  H157     1.0000 0.57420  0.06150  0.38930  Biso   1.000  H
  H158     1.0000 0.42580  0.93850  0.61070  Biso   1.000  H
  C177     1.0000 0.49000  0.11150  0.34380  Biso   1.000  C
  C178     1.0000 0.51000  0.88850  0.65620  Biso   1.000  C
  H159     1.0000 0.47730  0.07630  0.30180  Biso   1.000  H
  H160     1.0000 0.52270  0.92370  0.69820  Biso   1.000  H
  C179     1.0000 0.45040  0.16900  0.35390  Biso   1.000  C
  C180     1.0000 0.54960  0.83100  0.64610  Biso   1.000  C
  H161     1.0000 0.40750  0.17100  0.31980  Biso   1.000  H
  H162     1.0000 0.59250  0.82900  0.68020  Biso   1.000  H
  C181     1.0000 0.39230  0.31710  0.57870  Biso   1.000  C
  C182     1.0000 0.60770  0.68290  0.42130  Biso   1.000  C
  C183     1.0000 0.46120  0.32630  0.63250  Biso   1.000  C
  C184     1.0000 0.53880  0.67370  0.36750  Biso   1.000  C
  H163     1.0000 0.51100  0.31320  0.62740  Biso   1.000  H
  H164     1.0000 0.48900  0.68680  0.37260  Biso   1.000  H
  C185     1.0000 0.45550  0.35530  0.69390  Biso   1.000  C
  C186     1.0000 0.54450  0.64470  0.30610  Biso   1.000  C
  H165     1.0000 0.50160  0.36150  0.72990  Biso   1.000  H
  H166     1.0000 0.49840  0.63850  0.27010  Biso   1.000  H
  C187     1.0000 0.38100  0.37490  0.70150  Biso   1.000  C
  C188     1.0000 0.61900  0.62510  0.29850  Biso   1.000  C
  H167     1.0000 0.37720  0.39430  0.74260  Biso   1.000  H
  H168     1.0000 0.62280  0.60570  0.25740  Biso   1.000  H
  C189     1.0000 0.31210  0.36560  0.64770  Biso   1.000  C
  C190     1.0000 0.68790  0.63440  0.35230  Biso   1.000  C
  H169     1.0000 0.26230  0.37880  0.65280  Biso   1.000  H
  H170     1.0000 0.73770  0.62120  0.34720  Biso   1.000  H
  C191     1.0000 0.31780  0.33670  0.58630  Biso   1.000  C
  C192     1.0000 0.68220  0.66330  0.41370  Biso   1.000  C
  H171     1.0000 0.27170  0.33050  0.55030  Biso   1.000  H
  H172     1.0000 0.72830  0.66950  0.44970  Biso   1.000  H
  C193     1.0000 0.27380  0.67770  0.06190  Biso   1.000  C
  C194     1.0000 0.72620  0.32230  0.93810  Biso   1.000  C
  C195     1.0000 0.32270  0.67300  0.11730  Biso   1.000  C
  C196     1.0000 0.67730  0.32700  0.88270  Biso   1.000  C
  H173     1.0000 0.30950  0.68810  0.15530  Biso   1.000  H
  H174     1.0000 0.69050  0.31190  0.84470  Biso   1.000  H
  C197     1.0000 0.39410  0.64410  0.11410  Biso   1.000  C
  C198     1.0000 0.60590  0.35590  0.88590  Biso   1.000  C
  H175     1.0000 0.42920  0.63950  0.15050  Biso   1.000  H
  H176     1.0000 0.57080  0.36050  0.84950  Biso   1.000  H
  C199     1.0000 0.41220  0.62270  0.05710  Biso   1.000  C
  C200     1.0000 0.58780  0.37730  0.94290  Biso   1.000  C
  H177     1.0000 0.45980  0.60400  0.05580  Biso   1.000  H
  H178     1.0000 0.54020  0.39600  0.94420  Biso   1.000  H
  C201     1.0000 0.36120  0.62800  0.00170  Biso   1.000  C
  C202     1.0000 0.63880  0.37200  0.99830  Biso   1.000  C
  H179     1.0000 0.37300  0.61260  0.96310  Biso   1.000  H
  H180     1.0000 0.62700  0.38740  0.03690  Biso   1.000  H
  C203     1.0000 0.29290  0.65710  0.00620  Biso   1.000  C
  C204     1.0000 0.70710  0.34290  0.99380  Biso   1.000  C
  H181     1.0000 0.25850  0.66280  0.97010  Biso   1.000  H
  H182     1.0000 0.74150  0.33720  0.02990  Biso   1.000  H
  C205     1.0000 0.07880  0.78300  0.10970  Biso   1.000  C
  C206     1.0000 0.92120  0.21700  0.89030  Biso   1.000  C
  C207     1.0000 0.13930  0.79680  0.16960  Biso   1.000  C
  C208     1.0000 0.86070  0.20320  0.83040  Biso   1.000  C
  H183     1.0000 0.16020  0.75610  0.17750  Biso   1.000  H
  H184     1.0000 0.83980  0.24390  0.82250  Biso   1.000  H
  C209     1.0000 0.16700  0.87520  0.21730  Biso   1.000  C
  C210     1.0000 0.83300  0.12480  0.78270  Biso   1.000  C
  H185     1.0000 0.20850  0.88690  0.25740  Biso   1.000  H
  H186     1.0000 0.79150  0.11310  0.74260  Biso   1.000  H
  C211     1.0000 0.13530  0.93520  0.20720  Biso   1.000  C
  C212     1.0000 0.86470  0.06480  0.79280  Biso   1.000  C
  H187     1.0000 0.15420  0.98670  0.23960  Biso   1.000  H
  H188     1.0000 0.84580  0.01330  0.76040  Biso   1.000  H
  C213     1.0000 0.07220  0.91570  0.14520  Biso   1.000  C
  C214     1.0000 0.92780  0.08430  0.85480  Biso   1.000  C
  H189     1.0000 0.04980  0.95540  0.13700  Biso   1.000  H
  H190     1.0000 0.95020  0.04460  0.86300  Biso   1.000  H
  C215     1.0000 0.04480  0.84220  0.09880  Biso   1.000  C
  C216     1.0000 0.95520  0.15780  0.90120  Biso   1.000  C
  H191     1.0000 0.00270  0.83060  0.05890  Biso   1.000  H
  H192     1.0000 0.99730  0.16940  0.94110  Biso   1.000  H
  Cl1      1.0000 0.66930  0.63902  0.14629  Biso   1.000  Cl
  Cl2      1.0000 0.33070  0.36098  0.85371  Biso   1.000  Cl
  O33      1.0000 0.62660  0.69230  0.17190  Biso   1.000  O
  O34      1.0000 0.37340  0.30770  0.82810  Biso   1.000  O
  O35      1.0000 0.61380  0.56580  0.10140  Biso   1.000  O
  O36      1.0000 0.38620  0.43420  0.89860  Biso   1.000  O
  O37      1.0000 0.71710  0.62170  0.20170  Biso   1.000  O
  O38      1.0000 0.28290  0.37830  0.79830  Biso   1.000  O
  O39      1.0000 0.74300  0.68370  0.12940  Biso   1.000  O
  O40      1.0000 0.25700  0.31630  0.87060  Biso   1.000  O
  Cl3      1.0000 0.88820  0.32860  0.32607  Biso   1.000  Cl
  Cl4      1.0000 0.11180  0.67140  0.67393  Biso   1.000  Cl
  O41      1.0000 0.96500  0.34700  0.30500  Biso   1.000  O
  O42      1.0000 0.03500  0.65300  0.69500  Biso   1.000  O
  O43      1.0000 0.91170  0.33810  0.38980  Biso   1.000  O
  O44      1.0000 0.08830  0.66190  0.61020  Biso   1.000  O
  O45      1.0000 0.83750  0.37310  0.31330  Biso   1.000  O
  O46      1.0000 0.16250  0.62690  0.68670  Biso   1.000  O
  O47      1.0000 0.83680  0.24930  0.29100  Biso   1.000  O
  O48      1.0000 0.16320  0.75070  0.70900  Biso   1.000  O
  Cl5      1.0000 0.38910  0.82270  0.31240  Biso   1.000  Cl
  Cl6      1.0000 0.61090  0.17730  0.68760  Biso   1.000  Cl
  O49      1.0000 0.38500  0.90100  0.32690  Biso   1.000  O
  O50      1.0000 0.61500  0.09900  0.67310  Biso   1.000  O
  O51      1.0000 0.45060  0.81680  0.28160  Biso   1.000  O
  O52      1.0000 0.54940  0.18320  0.71840  Biso   1.000  O
  O53      1.0000 0.40790  0.80380  0.36920  Biso   1.000  O
  O54      1.0000 0.59210  0.19620  0.63080  Biso   1.000  O
  O55      1.0000 0.30150  0.76750  0.26910  Biso   1.000  O
  O56      1.0000 0.69850  0.23250  0.73090  Biso   1.000  O
  Cl7      1.0000 0.16640  0.15640  0.11810  Biso   1.000  Cl
  Cl8      1.0000 0.83360  0.84360  0.88190  Biso   1.000  Cl
  O57      1.0000 0.15660  0.21600  0.16740  Biso   1.000  O
  O58      1.0000 0.84340  0.78400  0.83260  Biso   1.000  O
  O59      1.0000 0.25120  0.18840  0.11280  Biso   1.000  O
  O60      1.0000 0.74880  0.81160  0.88720  Biso   1.000  O
  O61      1.0000 0.13330  0.07440  0.11010  Biso   1.000  O
  O62      1.0000 0.86670  0.92560  0.88990  Biso   1.000  O
  O63      1.0000 0.10220  0.14120  0.05990  Biso   1.000  O
  O64      1.0000 0.89780  0.85880  0.94010  Biso   1.000  O
  Cl9      1.0000 0.18850  0.15550  0.14000  Biso   1.000  Cl
  Cl10     1.0000 0.81150  0.84450  0.86000  Biso   1.000  Cl
  O65      1.0000 0.23030  0.13830  0.19280  Biso   1.000  O
  O66      1.0000 0.76970  0.86170  0.80720  Biso   1.000  O
