data_image0
_cell_length_a       7.9965
_cell_length_b       12.5321
_cell_length_c       17.613
_cell_angle_alpha    90
_cell_angle_beta     90
_cell_angle_gamma    90

_symmetry_space_group_name_H-M    "P 1"
_symmetry_int_tables_number       1

loop_
  _symmetry_equiv_pos_as_xyz
  'x, y, z'

loop_
  _atom_site_label
  _atom_site_occupancy
  _atom_site_fract_x
  _atom_site_fract_y
  _atom_site_fract_z
  _atom_site_thermal_displace_type
  _atom_site_B_iso_or_equiv
  _atom_site_type_symbol
  Cu1      1.0000 0.35385  0.20393  0.37990  Biso   1.000  Cu
  Cu2      1.0000 0.14615  0.79607  0.87990  Biso   1.000  Cu
  Cu3      1.0000 0.85385  0.29607  0.62010  Biso   1.000  Cu
  Cu4      1.0000 0.64615  0.70393  0.12010  Biso   1.000  Cu
  O1       1.0000 0.25510  0.28124  0.29489  Biso   1.000  O
  O2       1.0000 0.24490  0.71876  0.79489  Biso   1.000  O
  O3       1.0000 0.75510  0.21876  0.70511  Biso   1.000  O
  O4       1.0000 0.74490  0.78124  0.20511  Biso   1.000  O
  O5       1.0000 0.27270  0.43996  0.23852  Biso   1.000  O
  O6       1.0000 0.22730  0.56004  0.73852  Biso   1.000  O
  O7       1.0000 0.77270  0.06004  0.76148  Biso   1.000  O
  O8       1.0000 0.72730  0.93996  0.26148  Biso   1.000  O
  O9       1.0000 0.48830  0.14503  0.46241  Biso   1.000  O
  O10      1.0000 0.01170  0.85497  0.96241  Biso   1.000  O
  O11      1.0000 0.98830  0.35497  0.53759  Biso   1.000  O
  O12      1.0000 0.51170  0.64503  0.03759  Biso   1.000  O
  O13      1.0000 0.68960  0.19213  0.54210  Biso   1.000  O
  O14      1.0000 0.81040  0.80787  0.04210  Biso   1.000  O
  O15      1.0000 0.18960  0.30787  0.45790  Biso   1.000  O
  O16      1.0000 0.31040  0.69213  0.95790  Biso   1.000  O
  N1       1.0000 0.53910  0.31155  0.37323  Biso   1.000  N
  N2       1.0000 0.96090  0.68845  0.87323  Biso   1.000  N
  N3       1.0000 0.03910  0.18845  0.62677  Biso   1.000  N
  N4       1.0000 0.46090  0.81155  0.12677  Biso   1.000  N
  N5       1.0000 0.21350  0.07731  0.37095  Biso   1.000  N
  N6       1.0000 0.28650  0.92269  0.87095  Biso   1.000  N
  N7       1.0000 0.71350  0.42269  0.62905  Biso   1.000  N
  N8       1.0000 0.78650  0.57731  0.12905  Biso   1.000  N
  N9       1.0000 0.00640  0.97030  0.34213  Biso   1.000  N
  N10      1.0000 0.49360  0.02970  0.84213  Biso   1.000  N
  N11      1.0000 0.50640  0.52970  0.65787  Biso   1.000  N
  N12      1.0000 0.99360  0.47030  0.15787  Biso   1.000  N
  H1       1.0000 0.91540  0.94570  0.31670  Biso   1.000  H
  H2       1.0000 0.58460  0.05430  0.81670  Biso   1.000  H
  H3       1.0000 0.41540  0.55430  0.68330  Biso   1.000  H
  H4       1.0000 0.08460  0.44570  0.18330  Biso   1.000  H
  C1       1.0000 0.07100  0.06760  0.33396  Biso   1.000  C
  C2       1.0000 0.42900  0.93240  0.83396  Biso   1.000  C
  C3       1.0000 0.57100  0.43240  0.66604  Biso   1.000  C
  C4       1.0000 0.92900  0.56760  0.16604  Biso   1.000  C
  H5       1.0000 0.02090  0.12060  0.30690  Biso   1.000  H
  H6       1.0000 0.47910  0.87940  0.80690  Biso   1.000  H
  H7       1.0000 0.52090  0.37940  0.69310  Biso   1.000  H
  H8       1.0000 0.97910  0.62060  0.19310  Biso   1.000  H
  C5       1.0000 0.11330  0.91210  0.38689  Biso   1.000  C
  C6       1.0000 0.38670  0.08790  0.88689  Biso   1.000  C
  C7       1.0000 0.61330  0.58790  0.61311  Biso   1.000  C
  C8       1.0000 0.88670  0.41210  0.11311  Biso   1.000  C
  C9       1.0000 0.24080  0.97900  0.40400  Biso   1.000  C
  C10      1.0000 0.25920  0.02100  0.90400  Biso   1.000  C
  C11      1.0000 0.74080  0.52100  0.59600  Biso   1.000  C
  C12      1.0000 0.75920  0.47900  0.09600  Biso   1.000  C
  H9       1.0000 0.32060  0.97100  0.43200  Biso   1.000  H
  H10      1.0000 0.17940  0.02900  0.93200  Biso   1.000  H
  H11      1.0000 0.82060  0.52900  0.56800  Biso   1.000  H
  H12      1.0000 0.67940  0.47100  0.06800  Biso   1.000  H
  C13      1.0000 0.08710  0.79810  0.40445  Biso   1.000  C
  C14      1.0000 0.41290  0.20190  0.90445  Biso   1.000  C
  C15      1.0000 0.58710  0.70190  0.59555  Biso   1.000  C
  C16      1.0000 0.91290  0.29810  0.09555  Biso   1.000  C
  C17      1.0000 0.96500  0.73920  0.36960  Biso   1.000  C
  C18      1.0000 0.53500  0.26080  0.86960  Biso   1.000  C
  C19      1.0000 0.46500  0.76080  0.63040  Biso   1.000  C
  C20      1.0000 0.03500  0.23920  0.13040  Biso   1.000  C
  H13      1.0000 0.89050  0.77590  0.33740  Biso   1.000  H
  H14      1.0000 0.60950  0.22410  0.83740  Biso   1.000  H
  H15      1.0000 0.39050  0.72410  0.66260  Biso   1.000  H
  H16      1.0000 0.10950  0.27590  0.16260  Biso   1.000  H
  C21      1.0000 0.95390  0.63000  0.38300  Biso   1.000  C
  C22      1.0000 0.54610  0.37000  0.88300  Biso   1.000  C
  C23      1.0000 0.45390  0.87000  0.61700  Biso   1.000  C
  C24      1.0000 0.04610  0.13000  0.11700  Biso   1.000  C
  H17      1.0000 0.86680  0.59190  0.36170  Biso   1.000  H
  H18      1.0000 0.63320  0.40810  0.86170  Biso   1.000  H
  H19      1.0000 0.36680  0.90810  0.63830  Biso   1.000  H
  H20      1.0000 0.13320  0.09190  0.13830  Biso   1.000  H
  C25      1.0000 0.05940  0.58140  0.43240  Biso   1.000  C
  C26      1.0000 0.44060  0.41860  0.93240  Biso   1.000  C
  C27      1.0000 0.55940  0.91860  0.56760  Biso   1.000  C
  C28      1.0000 0.94060  0.08140  0.06760  Biso   1.000  C
  H21      1.0000 0.03640  0.51110  0.43760  Biso   1.000  H
  H22      1.0000 0.46360  0.48890  0.93760  Biso   1.000  H
  H23      1.0000 0.53640  0.98890  0.56240  Biso   1.000  H
  H24      1.0000 0.96360  0.01110  0.06240  Biso   1.000  H
  C29      1.0000 0.17640  0.63860  0.46810  Biso   1.000  C
  C30      1.0000 0.32360  0.36140  0.96810  Biso   1.000  C
  C31      1.0000 0.67640  0.86140  0.53190  Biso   1.000  C
  C32      1.0000 0.82360  0.13860  0.03190  Biso   1.000  C
  H25      1.0000 0.24140  0.59850  0.49940  Biso   1.000  H
  H26      1.0000 0.25860  0.40150  0.99940  Biso   1.000  H
  H27      1.0000 0.74140  0.90150  0.50060  Biso   1.000  H
  H28      1.0000 0.75860  0.09850  0.00060  Biso   1.000  H
  C33      1.0000 0.19470  0.74700  0.45420  Biso   1.000  C
  C34      1.0000 0.30530  0.25300  0.95420  Biso   1.000  C
  C35      1.0000 0.69470  0.75300  0.54580  Biso   1.000  C
  C36      1.0000 0.80530  0.24700  0.04580  Biso   1.000  C
  H29      1.0000 0.27260  0.79580  0.48360  Biso   1.000  H
  H30      1.0000 0.22740  0.20420  0.98360  Biso   1.000  H
  H31      1.0000 0.77260  0.70420  0.51640  Biso   1.000  H
  H32      1.0000 0.72740  0.29580  0.01640  Biso   1.000  H
  C37      1.0000 0.46000  0.40700  0.33956  Biso   1.000  C
  C38      1.0000 0.04000  0.59300  0.83956  Biso   1.000  C
  C39      1.0000 0.96000  0.09300  0.66044  Biso   1.000  C
  C40      1.0000 0.54000  0.90700  0.16044  Biso   1.000  C
  H33      1.0000 0.40730  0.44360  0.38840  Biso   1.000  H
  H34      1.0000 0.09270  0.55640  0.88840  Biso   1.000  H
  H35      1.0000 0.90730  0.05640  0.61160  Biso   1.000  H
  H36      1.0000 0.59270  0.94360  0.11160  Biso   1.000  H
  H37      1.0000 0.54180  0.44550  0.30890  Biso   1.000  H
  H38      1.0000 0.95820  0.55450  0.80890  Biso   1.000  H
  H39      1.0000 0.04180  0.05450  0.69110  Biso   1.000  H
  H40      1.0000 0.45820  0.94550  0.19110  Biso   1.000  H
  C41      1.0000 0.31810  0.37400  0.28623  Biso   1.000  C
  C42      1.0000 0.18190  0.62600  0.78623  Biso   1.000  C
  C43      1.0000 0.81810  0.12600  0.71377  Biso   1.000  C
  C44      1.0000 0.68190  0.87400  0.21377  Biso   1.000  C
  C45      1.0000 0.59180  0.32190  0.45370  Biso   1.000  C
  C46      1.0000 0.90820  0.67810  0.95370  Biso   1.000  C
  C47      1.0000 0.09180  0.17810  0.54630  Biso   1.000  C
  C48      1.0000 0.40820  0.82190  0.04630  Biso   1.000  C
  H41      1.0000 0.69850  0.35400  0.45890  Biso   1.000  H
  H42      1.0000 0.80150  0.64600  0.95890  Biso   1.000  H
  H43      1.0000 0.19850  0.14600  0.54110  Biso   1.000  H
  H44      1.0000 0.30150  0.85400  0.04110  Biso   1.000  H
  H45      1.0000 0.50910  0.37110  0.47830  Biso   1.000  H
  H46      1.0000 0.99090  0.62890  0.97830  Biso   1.000  H
  H47      1.0000 0.00910  0.12890  0.52170  Biso   1.000  H
  H48      1.0000 0.49090  0.87110  0.02170  Biso   1.000  H
  C49      1.0000 0.59330  0.21160  0.48956  Biso   1.000  C
  C50      1.0000 0.90670  0.78840  0.98956  Biso   1.000  C
  C51      1.0000 0.09330  0.28840  0.51044  Biso   1.000  C
  C52      1.0000 0.40670  0.71160  0.01044  Biso   1.000  C
  C53      1.0000 0.68330  0.26770  0.32684  Biso   1.000  C
  C54      1.0000 0.81670  0.73230  0.82684  Biso   1.000  C
  C55      1.0000 0.18330  0.23230  0.67316  Biso   1.000  C
  C56      1.0000 0.31670  0.76770  0.17316  Biso   1.000  C
  H49      1.0000 0.72530  0.20220  0.36220  Biso   1.000  H
  H50      1.0000 0.77470  0.79780  0.86220  Biso   1.000  H
  H51      1.0000 0.22530  0.29780  0.63780  Biso   1.000  H
  H52      1.0000 0.27470  0.70220  0.13780  Biso   1.000  H
  C57      1.0000 0.62580  0.22540  0.25020  Biso   1.000  C
  C58      1.0000 0.87420  0.77460  0.75020  Biso   1.000  C
  C59      1.0000 0.12580  0.27460  0.74980  Biso   1.000  C
  C60      1.0000 0.37420  0.72540  0.24980  Biso   1.000  C
  H53      1.0000 0.71860  0.18910  0.23220  Biso   1.000  H
  H54      1.0000 0.78140  0.81090  0.73220  Biso   1.000  H
  H55      1.0000 0.21860  0.31090  0.76780  Biso   1.000  H
  H56      1.0000 0.28140  0.68910  0.26780  Biso   1.000  H
  H57      1.0000 0.55540  0.16770  0.25630  Biso   1.000  H
  H58      1.0000 0.94460  0.83230  0.75630  Biso   1.000  H
  H59      1.0000 0.05540  0.33230  0.74370  Biso   1.000  H
  H60      1.0000 0.44460  0.66770  0.24370  Biso   1.000  H
  H61      1.0000 0.58060  0.27860  0.21640  Biso   1.000  H
  H62      1.0000 0.91940  0.72140  0.71640  Biso   1.000  H
  H63      1.0000 0.08060  0.22140  0.78360  Biso   1.000  H
  H64      1.0000 0.41940  0.77860  0.28360  Biso   1.000  H
  C61      1.0000 0.82540  0.34720  0.31810  Biso   1.000  C
  C62      1.0000 0.67460  0.65280  0.81810  Biso   1.000  C
  C63      1.0000 0.32540  0.15280  0.68190  Biso   1.000  C
  C64      1.0000 0.17460  0.84720  0.18190  Biso   1.000  C
  H65      1.0000 0.89470  0.30880  0.30000  Biso   1.000  H
  H66      1.0000 0.60530  0.69120  0.80000  Biso   1.000  H
  H67      1.0000 0.39470  0.19120  0.70000  Biso   1.000  H
  H68      1.0000 0.10530  0.80880  0.20000  Biso   1.000  H
  H69      1.0000 0.82900  0.38130  0.37420  Biso   1.000  H
  H70      1.0000 0.67100  0.61870  0.87420  Biso   1.000  H
  H71      1.0000 0.32900  0.11870  0.62580  Biso   1.000  H
  H72      1.0000 0.17100  0.88130  0.12580  Biso   1.000  H
  H73      1.0000 0.80950  0.39500  0.27720  Biso   1.000  H
  H74      1.0000 0.69050  0.60500  0.77720  Biso   1.000  H
  H75      1.0000 0.30950  0.10500  0.72280  Biso   1.000  H
  H76      1.0000 0.19050  0.89500  0.22280  Biso   1.000  H
