data_image0
_cell_length_a       23.424
_cell_length_b       7.9696
_cell_length_c       15.727
_cell_angle_alpha    90
_cell_angle_beta     129.617
_cell_angle_gamma    90

_symmetry_space_group_name_H-M    "P 1"
_symmetry_int_tables_number       1

loop_
  _symmetry_equiv_pos_as_xyz
  'x, y, z'

loop_
  _atom_site_label
  _atom_site_occupancy
  _atom_site_fract_x
  _atom_site_fract_y
  _atom_site_fract_z
  _atom_site_thermal_displace_type
  _atom_site_B_iso_or_equiv
  _atom_site_type_symbol
  Cu1      1.0000 0.04781  0.18868  0.06304  Biso   1.000  Cu
  Cu2      1.0000 0.54781  0.68868  0.06304  Biso   1.000  Cu
  Cu3      1.0000 0.95219  0.18868  0.43696  Biso   1.000  Cu
  Cu4      1.0000 0.45219  0.68868  0.43696  Biso   1.000  Cu
  Cu5      1.0000 0.95219  0.81132  0.93696  Biso   1.000  Cu
  Cu6      1.0000 0.45219  0.31132  0.93696  Biso   1.000  Cu
  Cu7      1.0000 0.04781  0.81132  0.56304  Biso   1.000  Cu
  Cu8      1.0000 0.54781  0.31132  0.56304  Biso   1.000  Cu
  O1       1.0000 0.02039  0.99220  0.10390  Biso   1.000  O
  O2       1.0000 0.52039  0.49220  0.10390  Biso   1.000  O
  O3       1.0000 0.97961  0.99220  0.39610  Biso   1.000  O
  O4       1.0000 0.47961  0.49220  0.39610  Biso   1.000  O
  O5       1.0000 0.97961  0.00780  0.89610  Biso   1.000  O
  O6       1.0000 0.47961  0.50780  0.89610  Biso   1.000  O
  O7       1.0000 0.02039  0.00780  0.60390  Biso   1.000  O
  O8       1.0000 0.52039  0.50780  0.60390  Biso   1.000  O
  O9       1.0000 0.07190  0.11110  0.26450  Biso   1.000  O
  O10      1.0000 0.57190  0.61110  0.26450  Biso   1.000  O
  O11      1.0000 0.92810  0.11110  0.23550  Biso   1.000  O
  O12      1.0000 0.42810  0.61110  0.23550  Biso   1.000  O
  O13      1.0000 0.92810  0.88890  0.73550  Biso   1.000  O
  O14      1.0000 0.42810  0.38890  0.73550  Biso   1.000  O
  O15      1.0000 0.07190  0.88890  0.76450  Biso   1.000  O
  O16      1.0000 0.57190  0.38890  0.76450  Biso   1.000  O
  O17      1.0000 0.95596  0.32300  0.00340  Biso   1.000  O
  O18      1.0000 0.45596  0.82300  0.00340  Biso   1.000  O
  O19      1.0000 0.04404  0.32300  0.49660  Biso   1.000  O
  O20      1.0000 0.54404  0.82300  0.49660  Biso   1.000  O
  O21      1.0000 0.04404  0.67700  0.99660  Biso   1.000  O
  O22      1.0000 0.54404  0.17700  0.99660  Biso   1.000  O
  O23      1.0000 0.95596  0.67700  0.50340  Biso   1.000  O
  O24      1.0000 0.45596  0.17700  0.50340  Biso   1.000  O
  N1       1.0000 0.91981  0.60100  0.95260  Biso   1.000  N
  N2       1.0000 0.41981  0.10100  0.95260  Biso   1.000  N
  N3       1.0000 0.08019  0.60100  0.54740  Biso   1.000  N
  N4       1.0000 0.58019  0.10100  0.54740  Biso   1.000  N
  N5       1.0000 0.08019  0.39900  0.04740  Biso   1.000  N
  N6       1.0000 0.58019  0.89900  0.04740  Biso   1.000  N
  N7       1.0000 0.91981  0.39900  0.45260  Biso   1.000  N
  N8       1.0000 0.41981  0.89900  0.45260  Biso   1.000  N
  N9       1.0000 0.85221  0.88680  0.88200  Biso   1.000  N
  N10      1.0000 0.35221  0.38680  0.88200  Biso   1.000  N
  N11      1.0000 0.14779  0.88680  0.61800  Biso   1.000  N
  N12      1.0000 0.64779  0.38680  0.61800  Biso   1.000  N
  N13      1.0000 0.14779  0.11320  0.11800  Biso   1.000  N
  N14      1.0000 0.64779  0.61320  0.11800  Biso   1.000  N
  N15      1.0000 0.85221  0.11320  0.38200  Biso   1.000  N
  N16      1.0000 0.35221  0.61320  0.38200  Biso   1.000  N
  H1       1.0000 0.82020  0.88730  0.80770  Biso   1.000  H
  H2       1.0000 0.32020  0.38730  0.80770  Biso   1.000  H
  H3       1.0000 0.17980  0.88730  0.69230  Biso   1.000  H
  H4       1.0000 0.67980  0.38730  0.69230  Biso   1.000  H
  H5       1.0000 0.17980  0.11270  0.19230  Biso   1.000  H
  H6       1.0000 0.67980  0.61270  0.19230  Biso   1.000  H
  H7       1.0000 0.82020  0.11270  0.30770  Biso   1.000  H
  H8       1.0000 0.32020  0.61270  0.30770  Biso   1.000  H
  H9       1.0000 0.85520  0.99180  0.90570  Biso   1.000  H
  H10      1.0000 0.35520  0.49180  0.90570  Biso   1.000  H
  H11      1.0000 0.14480  0.99180  0.59430  Biso   1.000  H
  H12      1.0000 0.64480  0.49180  0.59430  Biso   1.000  H
  H13      1.0000 0.14480  0.00820  0.09430  Biso   1.000  H
  H14      1.0000 0.64480  0.50820  0.09430  Biso   1.000  H
  H15      1.0000 0.85520  0.00820  0.40570  Biso   1.000  H
  H16      1.0000 0.35520  0.50820  0.40570  Biso   1.000  H
  C1       1.0000 0.03920  0.99390  0.20010  Biso   1.000  C
  C2       1.0000 0.53920  0.49390  0.20010  Biso   1.000  C
  C3       1.0000 0.96080  0.99390  0.29990  Biso   1.000  C
  C4       1.0000 0.46080  0.49390  0.29990  Biso   1.000  C
  C5       1.0000 0.96080  0.00610  0.79990  Biso   1.000  C
  C6       1.0000 0.46080  0.50610  0.79990  Biso   1.000  C
  C7       1.0000 0.03920  0.00610  0.70010  Biso   1.000  C
  C8       1.0000 0.53920  0.50610  0.70010  Biso   1.000  C
  C9       1.0000 0.01920  0.83720  0.22950  Biso   1.000  C
  C10      1.0000 0.51920  0.33720  0.22950  Biso   1.000  C
  C11      1.0000 0.98080  0.83720  0.27050  Biso   1.000  C
  C12      1.0000 0.48080  0.33720  0.27050  Biso   1.000  C
  C13      1.0000 0.98080  0.16280  0.77050  Biso   1.000  C
  C14      1.0000 0.48080  0.66280  0.77050  Biso   1.000  C
  C15      1.0000 0.01920  0.16280  0.72950  Biso   1.000  C
  C16      1.0000 0.51920  0.66280  0.72950  Biso   1.000  C
  C17      1.0000 0.04100  0.68490  0.21610  Biso   1.000  C
  C18      1.0000 0.54100  0.18490  0.21610  Biso   1.000  C
  C19      1.0000 0.95900  0.68490  0.28390  Biso   1.000  C
  C20      1.0000 0.45900  0.18490  0.28390  Biso   1.000  C
  C21      1.0000 0.95900  0.31510  0.78390  Biso   1.000  C
  C22      1.0000 0.45900  0.81510  0.78390  Biso   1.000  C
  C23      1.0000 0.04100  0.31510  0.71610  Biso   1.000  C
  C24      1.0000 0.54100  0.81510  0.71610  Biso   1.000  C
  H17      1.0000 0.06890  0.68420  0.19290  Biso   1.000  H
  H18      1.0000 0.56890  0.18420  0.19290  Biso   1.000  H
  H19      1.0000 0.93110  0.68420  0.30710  Biso   1.000  H
  H20      1.0000 0.43110  0.18420  0.30710  Biso   1.000  H
  H21      1.0000 0.93110  0.31580  0.80710  Biso   1.000  H
  H22      1.0000 0.43110  0.81580  0.80710  Biso   1.000  H
  H23      1.0000 0.06890  0.31580  0.69290  Biso   1.000  H
  H24      1.0000 0.56890  0.81580  0.69290  Biso   1.000  H
  C25      1.0000 0.02270  0.53520  0.23580  Biso   1.000  C
  C26      1.0000 0.52270  0.03520  0.23580  Biso   1.000  C
  C27      1.0000 0.97730  0.53520  0.26420  Biso   1.000  C
  C28      1.0000 0.47730  0.03520  0.26420  Biso   1.000  C
  C29      1.0000 0.97730  0.46480  0.76420  Biso   1.000  C
  C30      1.0000 0.47730  0.96480  0.76420  Biso   1.000  C
  C31      1.0000 0.02270  0.46480  0.73580  Biso   1.000  C
  C32      1.0000 0.52270  0.96480  0.73580  Biso   1.000  C
  H25      1.0000 0.04050  0.43480  0.23040  Biso   1.000  H
  H26      1.0000 0.54050  0.93480  0.23040  Biso   1.000  H
  H27      1.0000 0.95950  0.43480  0.26960  Biso   1.000  H
  H28      1.0000 0.45950  0.93480  0.26960  Biso   1.000  H
  H29      1.0000 0.95950  0.56520  0.76960  Biso   1.000  H
  H30      1.0000 0.45950  0.06520  0.76960  Biso   1.000  H
  H31      1.0000 0.04050  0.56520  0.73040  Biso   1.000  H
  H32      1.0000 0.54050  0.06520  0.73040  Biso   1.000  H
  C33      1.0000 0.96414  0.47680  0.98760  Biso   1.000  C
  C34      1.0000 0.46414  0.97680  0.98760  Biso   1.000  C
  C35      1.0000 0.03586  0.47680  0.51240  Biso   1.000  C
  C36      1.0000 0.53586  0.97680  0.51240  Biso   1.000  C
  C37      1.0000 0.03586  0.52320  0.01240  Biso   1.000  C
  C38      1.0000 0.53586  0.02320  0.01240  Biso   1.000  C
  C39      1.0000 0.96414  0.52320  0.48760  Biso   1.000  C
  C40      1.0000 0.46414  0.02320  0.48760  Biso   1.000  C
  C41      1.0000 0.84710  0.59590  0.92310  Biso   1.000  C
  C42      1.0000 0.34710  0.09590  0.92310  Biso   1.000  C
  C43      1.0000 0.15290  0.59590  0.57690  Biso   1.000  C
  C44      1.0000 0.65290  0.09590  0.57690  Biso   1.000  C
  C45      1.0000 0.15290  0.40410  0.07690  Biso   1.000  C
  C46      1.0000 0.65290  0.90410  0.07690  Biso   1.000  C
  C47      1.0000 0.84710  0.40410  0.42310  Biso   1.000  C
  C48      1.0000 0.34710  0.90410  0.42310  Biso   1.000  C
  H33      1.0000 0.81130  0.54700  0.85040  Biso   1.000  H
  H34      1.0000 0.31130  0.04700  0.85040  Biso   1.000  H
  H35      1.0000 0.18870  0.54700  0.64960  Biso   1.000  H
  H36      1.0000 0.68870  0.04700  0.64960  Biso   1.000  H
  H37      1.0000 0.18870  0.45300  0.14960  Biso   1.000  H
  H38      1.0000 0.68870  0.95300  0.14960  Biso   1.000  H
  H39      1.0000 0.81130  0.45300  0.35040  Biso   1.000  H
  H40      1.0000 0.31130  0.95300  0.35040  Biso   1.000  H
  H41      1.0000 0.84870  0.52760  0.97570  Biso   1.000  H
  H42      1.0000 0.34870  0.02760  0.97570  Biso   1.000  H
  H43      1.0000 0.15130  0.52760  0.52430  Biso   1.000  H
  H44      1.0000 0.65130  0.02760  0.52430  Biso   1.000  H
  H45      1.0000 0.15130  0.47240  0.02430  Biso   1.000  H
  H46      1.0000 0.65130  0.97240  0.02430  Biso   1.000  H
  H47      1.0000 0.84870  0.47240  0.47570  Biso   1.000  H
  H48      1.0000 0.34870  0.97240  0.47570  Biso   1.000  H
  C49      1.0000 0.82510  0.77020  0.92390  Biso   1.000  C
  C50      1.0000 0.32510  0.27020  0.92390  Biso   1.000  C
  C51      1.0000 0.17490  0.77020  0.57610  Biso   1.000  C
  C52      1.0000 0.67490  0.27020  0.57610  Biso   1.000  C
  C53      1.0000 0.17490  0.22980  0.07610  Biso   1.000  C
  C54      1.0000 0.67490  0.72980  0.07610  Biso   1.000  C
  C55      1.0000 0.82510  0.22980  0.42390  Biso   1.000  C
  C56      1.0000 0.32510  0.72980  0.42390  Biso   1.000  C
  H49      1.0000 0.85080  0.80020  0.00110  Biso   1.000  H
  H50      1.0000 0.35080  0.30020  0.00110  Biso   1.000  H
  H51      1.0000 0.14920  0.80020  0.49890  Biso   1.000  H
  H52      1.0000 0.64920  0.30020  0.49890  Biso   1.000  H
  H53      1.0000 0.14920  0.19980  0.99890  Biso   1.000  H
  H54      1.0000 0.64920  0.69980  0.99890  Biso   1.000  H
  H55      1.0000 0.85080  0.19980  0.50110  Biso   1.000  H
  H56      1.0000 0.35080  0.69980  0.50110  Biso   1.000  H
  C57      1.0000 0.74270  0.78760  0.86240  Biso   1.000  C
  C58      1.0000 0.24270  0.28760  0.86240  Biso   1.000  C
  C59      1.0000 0.25730  0.78760  0.63760  Biso   1.000  C
  C60      1.0000 0.75730  0.28760  0.63760  Biso   1.000  C
  C61      1.0000 0.25730  0.21240  0.13760  Biso   1.000  C
  C62      1.0000 0.75730  0.71240  0.13760  Biso   1.000  C
  C63      1.0000 0.74270  0.21240  0.36240  Biso   1.000  C
  C64      1.0000 0.24270  0.71240  0.36240  Biso   1.000  C
  H57      1.0000 0.72760  0.70540  0.88920  Biso   1.000  H
  H58      1.0000 0.22760  0.20540  0.88920  Biso   1.000  H
  H59      1.0000 0.27240  0.70540  0.61080  Biso   1.000  H
  H60      1.0000 0.77240  0.20540  0.61080  Biso   1.000  H
  H61      1.0000 0.27240  0.29460  0.11080  Biso   1.000  H
  H62      1.0000 0.77240  0.79460  0.11080  Biso   1.000  H
  H63      1.0000 0.72760  0.29460  0.38920  Biso   1.000  H
  H64      1.0000 0.22760  0.79460  0.38920  Biso   1.000  H
  H65      1.0000 0.73250  0.89790  0.87420  Biso   1.000  H
  H66      1.0000 0.23250  0.39790  0.87420  Biso   1.000  H
  H67      1.0000 0.26750  0.89790  0.62580  Biso   1.000  H
  H68      1.0000 0.76750  0.39790  0.62580  Biso   1.000  H
  H69      1.0000 0.26750  0.10210  0.12580  Biso   1.000  H
  H70      1.0000 0.76750  0.60210  0.12580  Biso   1.000  H
  H71      1.0000 0.73250  0.10210  0.37420  Biso   1.000  H
  H72      1.0000 0.23250  0.60210  0.37420  Biso   1.000  H
  H73      1.0000 0.71590  0.77040  0.78500  Biso   1.000  H
  H74      1.0000 0.21590  0.27040  0.78500  Biso   1.000  H
  H75      1.0000 0.28410  0.77040  0.71500  Biso   1.000  H
  H76      1.0000 0.78410  0.27040  0.71500  Biso   1.000  H
  H77      1.0000 0.28410  0.22960  0.21500  Biso   1.000  H
  H78      1.0000 0.78410  0.72960  0.21500  Biso   1.000  H
  H79      1.0000 0.71590  0.22960  0.28500  Biso   1.000  H
  H80      1.0000 0.21590  0.72960  0.28500  Biso   1.000  H
  O25      1.0000 0.14369  0.17080  0.48350  Biso   1.000  O
  O26      1.0000 0.64369  0.67080  0.48350  Biso   1.000  O
  O27      1.0000 0.85631  0.17080  0.01650  Biso   1.000  O
  O28      1.0000 0.35631  0.67080  0.01650  Biso   1.000  O
  O29      1.0000 0.85631  0.82920  0.51650  Biso   1.000  O
  O30      1.0000 0.35631  0.32920  0.51650  Biso   1.000  O
  O31      1.0000 0.14369  0.82920  0.98350  Biso   1.000  O
  O32      1.0000 0.64369  0.32920  0.98350  Biso   1.000  O
  H81      1.0000 0.11440  0.23070  0.48490  Biso   1.000  H
  H82      1.0000 0.61440  0.73070  0.48490  Biso   1.000  H
  H83      1.0000 0.88560  0.23070  0.01510  Biso   1.000  H
  H84      1.0000 0.38560  0.73070  0.01510  Biso   1.000  H
  H85      1.0000 0.88560  0.76930  0.51510  Biso   1.000  H
  H86      1.0000 0.38560  0.26930  0.51510  Biso   1.000  H
  H87      1.0000 0.11440  0.76930  0.98490  Biso   1.000  H
  H88      1.0000 0.61440  0.26930  0.98490  Biso   1.000  H
  H89      1.0000 0.12780  0.13790  0.42020  Biso   1.000  H
  H90      1.0000 0.62780  0.63790  0.42020  Biso   1.000  H
  H91      1.0000 0.87220  0.13790  0.07980  Biso   1.000  H
  H92      1.0000 0.37220  0.63790  0.07980  Biso   1.000  H
  H93      1.0000 0.87220  0.86210  0.57980  Biso   1.000  H
  H94      1.0000 0.37220  0.36210  0.57980  Biso   1.000  H
  H95      1.0000 0.12780  0.86210  0.92020  Biso   1.000  H
  H96      1.0000 0.62780  0.36210  0.92020  Biso   1.000  H
  O33      1.0000 0.28500  0.26690  0.66180  Biso   1.000  O
  O34      1.0000 0.78500  0.76690  0.66180  Biso   1.000  O
  O35      1.0000 0.71500  0.26690  0.83820  Biso   1.000  O
  O36      1.0000 0.21500  0.76690  0.83820  Biso   1.000  O
  O37      1.0000 0.71500  0.73310  0.33820  Biso   1.000  O
  O38      1.0000 0.21500  0.23310  0.33820  Biso   1.000  O
  O39      1.0000 0.28500  0.73310  0.16180  Biso   1.000  O
  O40      1.0000 0.78500  0.23310  0.16180  Biso   1.000  O
  H97      1.0000 0.28560  0.35330  0.62920  Biso   1.000  H
  H98      1.0000 0.78560  0.85330  0.62920  Biso   1.000  H
  H99      1.0000 0.71440  0.35330  0.87080  Biso   1.000  H
  H100     1.0000 0.21440  0.85330  0.87080  Biso   1.000  H
  H101     1.0000 0.71440  0.64670  0.37080  Biso   1.000  H
  H102     1.0000 0.21440  0.14670  0.37080  Biso   1.000  H
  H103     1.0000 0.28560  0.64670  0.12920  Biso   1.000  H
  H104     1.0000 0.78560  0.14670  0.12920  Biso   1.000  H
  H105     1.0000 0.25890  0.18510  0.61870  Biso   1.000  H
  H106     1.0000 0.75890  0.68510  0.61870  Biso   1.000  H
  H107     1.0000 0.74110  0.18510  0.88130  Biso   1.000  H
  H108     1.0000 0.24110  0.68510  0.88130  Biso   1.000  H
  H109     1.0000 0.74110  0.81490  0.38130  Biso   1.000  H
  H110     1.0000 0.24110  0.31490  0.38130  Biso   1.000  H
  H111     1.0000 0.25890  0.81490  0.11870  Biso   1.000  H
  H112     1.0000 0.75890  0.31490  0.11870  Biso   1.000  H
