data_image0
_cell_length_a       29.847
_cell_length_b       29.847
_cell_length_c       8.3903
_cell_angle_alpha    90
_cell_angle_beta     90
_cell_angle_gamma    120

_symmetry_space_group_name_H-M    "P 1"
_symmetry_int_tables_number       1

loop_
  _symmetry_equiv_pos_as_xyz
  'x, y, z'

loop_
  _atom_site_label
  _atom_site_occupancy
  _atom_site_fract_x
  _atom_site_fract_y
  _atom_site_fract_z
  _atom_site_thermal_displace_type
  _atom_site_B_iso_or_equiv
  _atom_site_type_symbol
  Cu1      1.0000 0.13033  0.85561  0.23771  Biso   1.000  Cu
  Cu2      1.0000 0.14439  0.27472  0.23771  Biso   1.000  Cu
  Cu3      1.0000 0.72528  0.86967  0.23771  Biso   1.000  Cu
  Cu4      1.0000 0.14439  0.86967  0.73771  Biso   1.000  Cu
  Cu5      1.0000 0.72528  0.85561  0.73771  Biso   1.000  Cu
  Cu6      1.0000 0.13033  0.27472  0.73771  Biso   1.000  Cu
  Cu7      1.0000 0.79700  0.18894  0.57104  Biso   1.000  Cu
  Cu8      1.0000 0.81106  0.60805  0.57104  Biso   1.000  Cu
  Cu9      1.0000 0.39195  0.20300  0.57104  Biso   1.000  Cu
  Cu10     1.0000 0.81106  0.20300  0.07104  Biso   1.000  Cu
  Cu11     1.0000 0.39195  0.18894  0.07104  Biso   1.000  Cu
  Cu12     1.0000 0.79700  0.60805  0.07104  Biso   1.000  Cu
  Cu13     1.0000 0.46366  0.52228  0.90438  Biso   1.000  Cu
  Cu14     1.0000 0.47772  0.94139  0.90438  Biso   1.000  Cu
  Cu15     1.0000 0.05861  0.53634  0.90438  Biso   1.000  Cu
  Cu16     1.0000 0.47772  0.53634  0.40438  Biso   1.000  Cu
  Cu17     1.0000 0.05861  0.52228  0.40438  Biso   1.000  Cu
  Cu18     1.0000 0.46366  0.94139  0.40438  Biso   1.000  Cu
  N1       1.0000 0.05920  0.79610  0.20330  Biso   1.000  N
  N2       1.0000 0.20390  0.26310  0.20330  Biso   1.000  N
  N3       1.0000 0.73690  0.94080  0.20330  Biso   1.000  N
  N4       1.0000 0.20390  0.94080  0.70330  Biso   1.000  N
  N5       1.0000 0.73690  0.79610  0.70330  Biso   1.000  N
  N6       1.0000 0.05920  0.26310  0.70330  Biso   1.000  N
  N7       1.0000 0.72587  0.12943  0.53663  Biso   1.000  N
  N8       1.0000 0.87057  0.59643  0.53663  Biso   1.000  N
  N9       1.0000 0.40357  0.27413  0.53663  Biso   1.000  N
  N10      1.0000 0.87057  0.27413  0.03663  Biso   1.000  N
  N11      1.0000 0.40357  0.12943  0.03663  Biso   1.000  N
  N12      1.0000 0.72587  0.59643  0.03663  Biso   1.000  N
  N13      1.0000 0.39253  0.46277  0.86997  Biso   1.000  N
  N14      1.0000 0.53723  0.92977  0.86997  Biso   1.000  N
  N15      1.0000 0.07023  0.60747  0.86997  Biso   1.000  N
  N16      1.0000 0.53723  0.60747  0.36997  Biso   1.000  N
  N17      1.0000 0.07023  0.46277  0.36997  Biso   1.000  N
  N18      1.0000 0.39253  0.92977  0.36997  Biso   1.000  N
  N19      1.0000 0.09950  0.88760  0.10610  Biso   1.000  N
  N20      1.0000 0.11240  0.21190  0.10610  Biso   1.000  N
  N21      1.0000 0.78810  0.90050  0.10610  Biso   1.000  N
  N22      1.0000 0.11240  0.90050  0.60610  Biso   1.000  N
  N23      1.0000 0.78810  0.88760  0.60610  Biso   1.000  N
  N24      1.0000 0.09950  0.21190  0.60610  Biso   1.000  N
  N25      1.0000 0.76617  0.22093  0.43943  Biso   1.000  N
  N26      1.0000 0.77907  0.54523  0.43943  Biso   1.000  N
  N27      1.0000 0.45477  0.23383  0.43943  Biso   1.000  N
  N28      1.0000 0.77907  0.23383  0.93943  Biso   1.000  N
  N29      1.0000 0.45477  0.22093  0.93943  Biso   1.000  N
  N30      1.0000 0.76617  0.54523  0.93943  Biso   1.000  N
  N31      1.0000 0.43283  0.55427  0.77277  Biso   1.000  N
  N32      1.0000 0.44573  0.87857  0.77277  Biso   1.000  N
  N33      1.0000 0.12143  0.56717  0.77277  Biso   1.000  N
  N34      1.0000 0.44573  0.56717  0.27277  Biso   1.000  N
  N35      1.0000 0.12143  0.55427  0.27277  Biso   1.000  N
  N36      1.0000 0.43283  0.87857  0.27277  Biso   1.000  N
  N37      1.0000 0.05310  0.85960  0.04850  Biso   1.000  N
  N38      1.0000 0.14040  0.19350  0.04850  Biso   1.000  N
  N39      1.0000 0.80650  0.94690  0.04850  Biso   1.000  N
  N40      1.0000 0.14040  0.94690  0.54850  Biso   1.000  N
  N41      1.0000 0.80650  0.85960  0.54850  Biso   1.000  N
  N42      1.0000 0.05310  0.19350  0.54850  Biso   1.000  N
  N43      1.0000 0.71977  0.19293  0.38183  Biso   1.000  N
  N44      1.0000 0.80707  0.52683  0.38183  Biso   1.000  N
  N45      1.0000 0.47317  0.28023  0.38183  Biso   1.000  N
  N46      1.0000 0.80707  0.28023  0.88183  Biso   1.000  N
  N47      1.0000 0.47317  0.19293  0.88183  Biso   1.000  N
  N48      1.0000 0.71977  0.52683  0.88183  Biso   1.000  N
  N49      1.0000 0.38643  0.52627  0.71517  Biso   1.000  N
  N50      1.0000 0.47373  0.86017  0.71517  Biso   1.000  N
  N51      1.0000 0.13983  0.61357  0.71517  Biso   1.000  N
  N52      1.0000 0.47373  0.61357  0.21517  Biso   1.000  N
  N53      1.0000 0.13983  0.52627  0.21517  Biso   1.000  N
  N54      1.0000 0.38643  0.86017  0.21517  Biso   1.000  N
  O1       1.0000 0.18840  0.92660  0.24340  Biso   1.000  O
  O2       1.0000 0.07340  0.26180  0.24340  Biso   1.000  O
  O3       1.0000 0.73820  0.81160  0.24340  Biso   1.000  O
  O4       1.0000 0.07340  0.81160  0.74340  Biso   1.000  O
  O5       1.0000 0.73820  0.92660  0.74340  Biso   1.000  O
  O6       1.0000 0.18840  0.26180  0.74340  Biso   1.000  O
  O7       1.0000 0.85507  0.25993  0.57673  Biso   1.000  O
  O8       1.0000 0.74007  0.59513  0.57673  Biso   1.000  O
  O9       1.0000 0.40487  0.14493  0.57673  Biso   1.000  O
  O10      1.0000 0.74007  0.14493  0.07673  Biso   1.000  O
  O11      1.0000 0.40487  0.25993  0.07673  Biso   1.000  O
  O12      1.0000 0.85507  0.59513  0.07673  Biso   1.000  O
  O13      1.0000 0.52173  0.59327  0.91007  Biso   1.000  O
  O14      1.0000 0.40673  0.92847  0.91007  Biso   1.000  O
  O15      1.0000 0.07153  0.47827  0.91007  Biso   1.000  O
  O16      1.0000 0.40673  0.47827  0.41007  Biso   1.000  O
  O17      1.0000 0.07153  0.59327  0.41007  Biso   1.000  O
  O18      1.0000 0.52173  0.92847  0.41007  Biso   1.000  O
  I1       1.0000 0.17962  0.83553  0.95851  Biso   1.000  I
  I2       1.0000 0.16447  0.34409  0.95851  Biso   1.000  I
  I3       1.0000 0.65591  0.82038  0.95851  Biso   1.000  I
  I4       1.0000 0.16447  0.82038  0.45851  Biso   1.000  I
  I5       1.0000 0.65591  0.83553  0.45851  Biso   1.000  I
  I6       1.0000 0.17962  0.34409  0.45851  Biso   1.000  I
  I7       1.0000 0.84629  0.16886  0.29184  Biso   1.000  I
  I8       1.0000 0.83114  0.67742  0.29184  Biso   1.000  I
  I9       1.0000 0.32258  0.15371  0.29184  Biso   1.000  I
  I10      1.0000 0.83114  0.15371  0.79184  Biso   1.000  I
  I11      1.0000 0.32258  0.16886  0.79184  Biso   1.000  I
  I12      1.0000 0.84629  0.67742  0.79184  Biso   1.000  I
  I13      1.0000 0.51295  0.50220  0.62518  Biso   1.000  I
  I14      1.0000 0.49780  0.01076  0.62518  Biso   1.000  I
  I15      1.0000 0.98924  0.48705  0.62518  Biso   1.000  I
  I16      1.0000 0.49780  0.48705  0.12518  Biso   1.000  I
  I17      1.0000 0.98924  0.50220  0.12518  Biso   1.000  I
  I18      1.0000 0.51295  0.01076  0.12518  Biso   1.000  I
  C1       1.0000 0.17980  0.95670  0.15320  Biso   1.000  C
  C2       1.0000 0.04330  0.22310  0.15320  Biso   1.000  C
  C3       1.0000 0.77690  0.82020  0.15320  Biso   1.000  C
  C4       1.0000 0.04330  0.82020  0.65320  Biso   1.000  C
  C5       1.0000 0.77690  0.95670  0.65320  Biso   1.000  C
  C6       1.0000 0.17980  0.22310  0.65320  Biso   1.000  C
  C7       1.0000 0.84647  0.29003  0.48653  Biso   1.000  C
  C8       1.0000 0.70997  0.55643  0.48653  Biso   1.000  C
  C9       1.0000 0.44357  0.15353  0.48653  Biso   1.000  C
  C10      1.0000 0.70997  0.15353  0.98653  Biso   1.000  C
  C11      1.0000 0.44357  0.29003  0.98653  Biso   1.000  C
  C12      1.0000 0.84647  0.55643  0.98653  Biso   1.000  C
  C13      1.0000 0.51313  0.62337  0.81987  Biso   1.000  C
  C14      1.0000 0.37663  0.88977  0.81987  Biso   1.000  C
  C15      1.0000 0.11023  0.48687  0.81987  Biso   1.000  C
  C16      1.0000 0.37663  0.48687  0.31987  Biso   1.000  C
  C17      1.0000 0.11023  0.62337  0.31987  Biso   1.000  C
  C18      1.0000 0.51313  0.88977  0.31987  Biso   1.000  C
  C19      1.0000 0.22010  0.00890  0.12620  Biso   1.000  C
  C20      1.0000 0.99110  0.21120  0.12620  Biso   1.000  C
  C21      1.0000 0.78880  0.77990  0.12620  Biso   1.000  C
  C22      1.0000 0.99110  0.77990  0.62620  Biso   1.000  C
  C23      1.0000 0.78880  0.00890  0.62620  Biso   1.000  C
  C24      1.0000 0.22010  0.21120  0.62620  Biso   1.000  C
  C25      1.0000 0.88677  0.34223  0.45953  Biso   1.000  C
  C26      1.0000 0.65777  0.54453  0.45953  Biso   1.000  C
  C27      1.0000 0.45547  0.11323  0.45953  Biso   1.000  C
  C28      1.0000 0.65777  0.11323  0.95953  Biso   1.000  C
  C29      1.0000 0.45547  0.34223  0.95953  Biso   1.000  C
  C30      1.0000 0.88677  0.54453  0.95953  Biso   1.000  C
  C31      1.0000 0.55343  0.67557  0.79287  Biso   1.000  C
  C32      1.0000 0.32443  0.87787  0.79287  Biso   1.000  C
  C33      1.0000 0.12213  0.44657  0.79287  Biso   1.000  C
  C34      1.0000 0.32443  0.44657  0.29287  Biso   1.000  C
  C35      1.0000 0.12213  0.67557  0.29287  Biso   1.000  C
  C36      1.0000 0.55343  0.87787  0.29287  Biso   1.000  C
  H1       1.0000 0.25170  0.02200  0.17810  Biso   1.000  H
  H2       1.0000 0.97800  0.22970  0.17810  Biso   1.000  H
  H3       1.0000 0.77030  0.74830  0.17810  Biso   1.000  H
  H4       1.0000 0.97800  0.74830  0.67810  Biso   1.000  H
  H5       1.0000 0.77030  0.02200  0.67810  Biso   1.000  H
  H6       1.0000 0.25170  0.22970  0.67810  Biso   1.000  H
  H7       1.0000 0.91837  0.35533  0.51143  Biso   1.000  H
  H8       1.0000 0.64467  0.56303  0.51143  Biso   1.000  H
  H9       1.0000 0.43697  0.08163  0.51143  Biso   1.000  H
  H10      1.0000 0.64467  0.08163  0.01143  Biso   1.000  H
  H11      1.0000 0.43697  0.35533  0.01143  Biso   1.000  H
  H12      1.0000 0.91837  0.56303  0.01143  Biso   1.000  H
  H13      1.0000 0.58503  0.68867  0.84477  Biso   1.000  H
  H14      1.0000 0.31133  0.89637  0.84477  Biso   1.000  H
  H15      1.0000 0.10363  0.41497  0.84477  Biso   1.000  H
  H16      1.0000 0.31133  0.41497  0.34477  Biso   1.000  H
  H17      1.0000 0.10363  0.68867  0.34477  Biso   1.000  H
  H18      1.0000 0.58503  0.89637  0.34477  Biso   1.000  H
  C37      1.0000 0.21160  0.03890  0.02490  Biso   1.000  C
  C38      1.0000 0.96110  0.17270  0.02490  Biso   1.000  C
  C39      1.0000 0.82730  0.78840  0.02490  Biso   1.000  C
  C40      1.0000 0.96110  0.78840  0.52490  Biso   1.000  C
  C41      1.0000 0.82730  0.03890  0.52490  Biso   1.000  C
  C42      1.0000 0.21160  0.17270  0.52490  Biso   1.000  C
  C43      1.0000 0.87827  0.37223  0.35823  Biso   1.000  C
  C44      1.0000 0.62777  0.50603  0.35823  Biso   1.000  C
  C45      1.0000 0.49397  0.12173  0.35823  Biso   1.000  C
  C46      1.0000 0.62777  0.12173  0.85823  Biso   1.000  C
  C47      1.0000 0.49397  0.37223  0.85823  Biso   1.000  C
  C48      1.0000 0.87827  0.50603  0.85823  Biso   1.000  C
  C49      1.0000 0.54493  0.70557  0.69157  Biso   1.000  C
  C50      1.0000 0.29443  0.83937  0.69157  Biso   1.000  C
  C51      1.0000 0.16063  0.45507  0.69157  Biso   1.000  C
  C52      1.0000 0.29443  0.45507  0.19157  Biso   1.000  C
  C53      1.0000 0.16063  0.70557  0.19157  Biso   1.000  C
  C54      1.0000 0.54493  0.83937  0.19157  Biso   1.000  C
  H19      1.0000 0.23830  0.07260  0.00790  Biso   1.000  H
  H20      1.0000 0.92740  0.16570  0.00790  Biso   1.000  H
  H21      1.0000 0.83430  0.76170  0.00790  Biso   1.000  H
  H22      1.0000 0.92740  0.76170  0.50790  Biso   1.000  H
  H23      1.0000 0.83430  0.07260  0.50790  Biso   1.000  H
  H24      1.0000 0.23830  0.16570  0.50790  Biso   1.000  H
  H25      1.0000 0.90497  0.40593  0.34123  Biso   1.000  H
  H26      1.0000 0.59407  0.49903  0.34123  Biso   1.000  H
  H27      1.0000 0.50097  0.09503  0.34123  Biso   1.000  H
  H28      1.0000 0.59407  0.09503  0.84123  Biso   1.000  H
  H29      1.0000 0.50097  0.40593  0.84123  Biso   1.000  H
  H30      1.0000 0.90497  0.49903  0.84123  Biso   1.000  H
  H31      1.0000 0.57163  0.73927  0.67457  Biso   1.000  H
  H32      1.0000 0.26073  0.83237  0.67457  Biso   1.000  H
  H33      1.0000 0.16763  0.42837  0.67457  Biso   1.000  H
  H34      1.0000 0.26073  0.42837  0.17457  Biso   1.000  H
  H35      1.0000 0.16763  0.73927  0.17457  Biso   1.000  H
  H36      1.0000 0.57163  0.83237  0.17457  Biso   1.000  H
  C55      1.0000 0.16420  0.02190  0.94250  Biso   1.000  C
  C56      1.0000 0.97810  0.14230  0.94250  Biso   1.000  C
  C57      1.0000 0.85770  0.83580  0.94250  Biso   1.000  C
  C58      1.0000 0.97810  0.83580  0.44250  Biso   1.000  C
  C59      1.0000 0.85770  0.02190  0.44250  Biso   1.000  C
  C60      1.0000 0.16420  0.14230  0.44250  Biso   1.000  C
  C61      1.0000 0.83087  0.35523  0.27583  Biso   1.000  C
  C62      1.0000 0.64477  0.47563  0.27583  Biso   1.000  C
  C63      1.0000 0.52437  0.16913  0.27583  Biso   1.000  C
  C64      1.0000 0.64477  0.16913  0.77583  Biso   1.000  C
  C65      1.0000 0.52437  0.35523  0.77583  Biso   1.000  C
  C66      1.0000 0.83087  0.47563  0.77583  Biso   1.000  C
  C67      1.0000 0.49753  0.68857  0.60917  Biso   1.000  C
  C68      1.0000 0.31143  0.80897  0.60917  Biso   1.000  C
  C69      1.0000 0.19103  0.50247  0.60917  Biso   1.000  C
  C70      1.0000 0.31143  0.50247  0.10917  Biso   1.000  C
  C71      1.0000 0.19103  0.68857  0.10917  Biso   1.000  C
  C72      1.0000 0.49753  0.80897  0.10917  Biso   1.000  C
  C73      1.0000 0.13100  0.93860  0.07360  Biso   1.000  C
  C74      1.0000 0.06140  0.19240  0.07360  Biso   1.000  C
  C75      1.0000 0.80760  0.86900  0.07360  Biso   1.000  C
  C76      1.0000 0.06140  0.86900  0.57360  Biso   1.000  C
  C77      1.0000 0.80760  0.93860  0.57360  Biso   1.000  C
  C78      1.0000 0.13100  0.19240  0.57360  Biso   1.000  C
  C79      1.0000 0.79767  0.27193  0.40693  Biso   1.000  C
  C80      1.0000 0.72807  0.52573  0.40693  Biso   1.000  C
  C81      1.0000 0.47427  0.20233  0.40693  Biso   1.000  C
  C82      1.0000 0.72807  0.20233  0.90693  Biso   1.000  C
  C83      1.0000 0.47427  0.27193  0.90693  Biso   1.000  C
  C84      1.0000 0.79767  0.52573  0.90693  Biso   1.000  C
  C85      1.0000 0.46433  0.60527  0.74027  Biso   1.000  C
  C86      1.0000 0.39473  0.85907  0.74027  Biso   1.000  C
  C87      1.0000 0.14093  0.53567  0.74027  Biso   1.000  C
  C88      1.0000 0.39473  0.53567  0.24027  Biso   1.000  C
  C89      1.0000 0.14093  0.60527  0.24027  Biso   1.000  C
  C90      1.0000 0.46433  0.85907  0.24027  Biso   1.000  C
  C91      1.0000 0.15770  0.05450  0.83470  Biso   1.000  C
  C92      1.0000 0.94550  0.10320  0.83470  Biso   1.000  C
  C93      1.0000 0.89680  0.84230  0.83470  Biso   1.000  C
  C94      1.0000 0.94550  0.84230  0.33470  Biso   1.000  C
  C95      1.0000 0.89680  0.05450  0.33470  Biso   1.000  C
  C96      1.0000 0.15770  0.10320  0.33470  Biso   1.000  C
  C97      1.0000 0.82437  0.38783  0.16803  Biso   1.000  C
  C98      1.0000 0.61217  0.43653  0.16803  Biso   1.000  C
  C99      1.0000 0.56347  0.17563  0.16803  Biso   1.000  C
  C100     1.0000 0.61217  0.17563  0.66803  Biso   1.000  C
  C101     1.0000 0.56347  0.38783  0.66803  Biso   1.000  C
  C102     1.0000 0.82437  0.43653  0.66803  Biso   1.000  C
  C103     1.0000 0.49103  0.72117  0.50137  Biso   1.000  C
  C104     1.0000 0.27883  0.76987  0.50137  Biso   1.000  C
  C105     1.0000 0.23013  0.50897  0.50137  Biso   1.000  C
  C106     1.0000 0.27883  0.50897  0.00137  Biso   1.000  C
  C107     1.0000 0.23013  0.72117  0.00137  Biso   1.000  C
  C108     1.0000 0.49103  0.76987  0.00137  Biso   1.000  C
  H37      1.0000 0.18550  0.08740  0.81400  Biso   1.000  H
  H38      1.0000 0.91260  0.09810  0.81400  Biso   1.000  H
  H39      1.0000 0.90190  0.81450  0.81400  Biso   1.000  H
  H40      1.0000 0.91260  0.81450  0.31400  Biso   1.000  H
  H41      1.0000 0.90190  0.08740  0.31400  Biso   1.000  H
  H42      1.0000 0.18550  0.09810  0.31400  Biso   1.000  H
  H43      1.0000 0.85217  0.42073  0.14733  Biso   1.000  H
  H44      1.0000 0.57927  0.43143  0.14733  Biso   1.000  H
  H45      1.0000 0.56857  0.14783  0.14733  Biso   1.000  H
  H46      1.0000 0.57927  0.14783  0.64733  Biso   1.000  H
  H47      1.0000 0.56857  0.42073  0.64733  Biso   1.000  H
  H48      1.0000 0.85217  0.43143  0.64733  Biso   1.000  H
  H49      1.0000 0.51883  0.75407  0.48067  Biso   1.000  H
  H50      1.0000 0.24593  0.76477  0.48067  Biso   1.000  H
  H51      1.0000 0.23523  0.48117  0.48067  Biso   1.000  H
  H52      1.0000 0.24593  0.48117  0.98067  Biso   1.000  H
  H53      1.0000 0.23523  0.75407  0.98067  Biso   1.000  H
  H54      1.0000 0.51883  0.76477  0.98067  Biso   1.000  H
  C109     1.0000 0.11220  0.03920  0.76110  Biso   1.000  C
  C110     1.0000 0.96080  0.07300  0.76110  Biso   1.000  C
  C111     1.0000 0.92700  0.88780  0.76110  Biso   1.000  C
  C112     1.0000 0.96080  0.88780  0.26110  Biso   1.000  C
  C113     1.0000 0.92700  0.03920  0.26110  Biso   1.000  C
  C114     1.0000 0.11220  0.07300  0.26110  Biso   1.000  C
  C115     1.0000 0.77887  0.37253  0.09443  Biso   1.000  C
  C116     1.0000 0.62747  0.40633  0.09443  Biso   1.000  C
  C117     1.0000 0.59367  0.22113  0.09443  Biso   1.000  C
  C118     1.0000 0.62747  0.22113  0.59443  Biso   1.000  C
  C119     1.0000 0.59367  0.37253  0.59443  Biso   1.000  C
  C120     1.0000 0.77887  0.40633  0.59443  Biso   1.000  C
  C121     1.0000 0.44553  0.70587  0.42777  Biso   1.000  C
  C122     1.0000 0.29413  0.73967  0.42777  Biso   1.000  C
  C123     1.0000 0.26033  0.55447  0.42777  Biso   1.000  C
  C124     1.0000 0.29413  0.55447  0.92777  Biso   1.000  C
  C125     1.0000 0.26033  0.70587  0.92777  Biso   1.000  C
  C126     1.0000 0.44553  0.73967  0.92777  Biso   1.000  C
  H55      1.0000 0.10860  0.06160  0.69210  Biso   1.000  H
  H56      1.0000 0.93840  0.04700  0.69210  Biso   1.000  H
  H57      1.0000 0.95300  0.89140  0.69210  Biso   1.000  H
  H58      1.0000 0.93840  0.89140  0.19210  Biso   1.000  H
  H59      1.0000 0.95300  0.06160  0.19210  Biso   1.000  H
  H60      1.0000 0.10860  0.04700  0.19210  Biso   1.000  H
  H61      1.0000 0.77527  0.39493  0.02543  Biso   1.000  H
  H62      1.0000 0.60507  0.38033  0.02543  Biso   1.000  H
  H63      1.0000 0.61967  0.22473  0.02543  Biso   1.000  H
  H64      1.0000 0.60507  0.22473  0.52543  Biso   1.000  H
  H65      1.0000 0.61967  0.39493  0.52543  Biso   1.000  H
  H66      1.0000 0.77527  0.38033  0.52543  Biso   1.000  H
  H67      1.0000 0.44193  0.72827  0.35877  Biso   1.000  H
  H68      1.0000 0.27173  0.71367  0.35877  Biso   1.000  H
  H69      1.0000 0.28633  0.55807  0.35877  Biso   1.000  H
  H70      1.0000 0.27173  0.55807  0.85877  Biso   1.000  H
  H71      1.0000 0.28633  0.72827  0.85877  Biso   1.000  H
  H72      1.0000 0.44193  0.71367  0.85877  Biso   1.000  H
  C127     1.0000 0.07130  0.99060  0.78790  Biso   1.000  C
  C128     1.0000 0.00940  0.08070  0.78790  Biso   1.000  C
  C129     1.0000 0.91930  0.92870  0.78790  Biso   1.000  C
  C130     1.0000 0.00940  0.92870  0.28790  Biso   1.000  C
  C131     1.0000 0.91930  0.99060  0.28790  Biso   1.000  C
  C132     1.0000 0.07130  0.08070  0.28790  Biso   1.000  C
  C133     1.0000 0.73797  0.32393  0.12123  Biso   1.000  C
  C134     1.0000 0.67607  0.41403  0.12123  Biso   1.000  C
  C135     1.0000 0.58597  0.26203  0.12123  Biso   1.000  C
  C136     1.0000 0.67607  0.26203  0.62123  Biso   1.000  C
  C137     1.0000 0.58597  0.32393  0.62123  Biso   1.000  C
  C138     1.0000 0.73797  0.41403  0.62123  Biso   1.000  C
  C139     1.0000 0.40463  0.65727  0.45457  Biso   1.000  C
  C140     1.0000 0.34273  0.74737  0.45457  Biso   1.000  C
  C141     1.0000 0.25263  0.59537  0.45457  Biso   1.000  C
  C142     1.0000 0.34273  0.59537  0.95457  Biso   1.000  C
  C143     1.0000 0.25263  0.65727  0.95457  Biso   1.000  C
  C144     1.0000 0.40463  0.74737  0.95457  Biso   1.000  C
  H73      1.0000 0.04020  0.98030  0.73560  Biso   1.000  H
  H74      1.0000 0.01970  0.05990  0.73560  Biso   1.000  H
  H75      1.0000 0.94010  0.95980  0.73560  Biso   1.000  H
  H76      1.0000 0.01970  0.95980  0.23560  Biso   1.000  H
  H77      1.0000 0.94010  0.98030  0.23560  Biso   1.000  H
  H78      1.0000 0.04020  0.05990  0.23560  Biso   1.000  H
  H79      1.0000 0.70687  0.31363  0.06893  Biso   1.000  H
  H80      1.0000 0.68637  0.39323  0.06893  Biso   1.000  H
  H81      1.0000 0.60677  0.29313  0.06893  Biso   1.000  H
  H82      1.0000 0.68637  0.29313  0.56893  Biso   1.000  H
  H83      1.0000 0.60677  0.31363  0.56893  Biso   1.000  H
  H84      1.0000 0.70687  0.39323  0.56893  Biso   1.000  H
  H85      1.0000 0.37353  0.64697  0.40227  Biso   1.000  H
  H86      1.0000 0.35303  0.72657  0.40227  Biso   1.000  H
  H87      1.0000 0.27343  0.62647  0.40227  Biso   1.000  H
  H88      1.0000 0.35303  0.62647  0.90227  Biso   1.000  H
  H89      1.0000 0.27343  0.64697  0.90227  Biso   1.000  H
  H90      1.0000 0.37353  0.72657  0.90227  Biso   1.000  H
  C145     1.0000 0.07500  0.95720  0.88840  Biso   1.000  C
  C146     1.0000 0.04280  0.11780  0.88840  Biso   1.000  C
  C147     1.0000 0.88220  0.92500  0.88840  Biso   1.000  C
  C148     1.0000 0.04280  0.92500  0.38840  Biso   1.000  C
  C149     1.0000 0.88220  0.95720  0.38840  Biso   1.000  C
  C150     1.0000 0.07500  0.11780  0.38840  Biso   1.000  C
  C151     1.0000 0.74167  0.29053  0.22173  Biso   1.000  C
  C152     1.0000 0.70947  0.45113  0.22173  Biso   1.000  C
  C153     1.0000 0.54887  0.25833  0.22173  Biso   1.000  C
  C154     1.0000 0.70947  0.25833  0.72173  Biso   1.000  C
  C155     1.0000 0.54887  0.29053  0.72173  Biso   1.000  C
  C156     1.0000 0.74167  0.45113  0.72173  Biso   1.000  C
  C157     1.0000 0.40833  0.62387  0.55507  Biso   1.000  C
  C158     1.0000 0.37613  0.78447  0.55507  Biso   1.000  C
  C159     1.0000 0.21553  0.59167  0.55507  Biso   1.000  C
  C160     1.0000 0.37613  0.59167  0.05507  Biso   1.000  C
  C161     1.0000 0.21553  0.62387  0.05507  Biso   1.000  C
  C162     1.0000 0.40833  0.78447  0.05507  Biso   1.000  C
  H91      1.0000 0.04640  0.92480  0.90660  Biso   1.000  H
  H92      1.0000 0.07520  0.12160  0.90660  Biso   1.000  H
  H93      1.0000 0.87840  0.95360  0.90660  Biso   1.000  H
  H94      1.0000 0.07520  0.95360  0.40660  Biso   1.000  H
  H95      1.0000 0.87840  0.92480  0.40660  Biso   1.000  H
  H96      1.0000 0.04640  0.12160  0.40660  Biso   1.000  H
  H97      1.0000 0.71307  0.25813  0.23993  Biso   1.000  H
  H98      1.0000 0.74187  0.45493  0.23993  Biso   1.000  H
  H99      1.0000 0.54507  0.28693  0.23993  Biso   1.000  H
  H100     1.0000 0.74187  0.28693  0.73993  Biso   1.000  H
  H101     1.0000 0.54507  0.25813  0.73993  Biso   1.000  H
  H102     1.0000 0.71307  0.45493  0.73993  Biso   1.000  H
  H103     1.0000 0.37973  0.59147  0.57327  Biso   1.000  H
  H104     1.0000 0.40853  0.78827  0.57327  Biso   1.000  H
  H105     1.0000 0.21173  0.62027  0.57327  Biso   1.000  H
  H106     1.0000 0.40853  0.62027  0.07327  Biso   1.000  H
  H107     1.0000 0.21173  0.59147  0.07327  Biso   1.000  H
  H108     1.0000 0.37973  0.78827  0.07327  Biso   1.000  H
  C163     1.0000 0.12240  0.97150  0.96580  Biso   1.000  C
  C164     1.0000 0.02850  0.15090  0.96580  Biso   1.000  C
  C165     1.0000 0.84910  0.87760  0.96580  Biso   1.000  C
  C166     1.0000 0.02850  0.87760  0.46580  Biso   1.000  C
  C167     1.0000 0.84910  0.97150  0.46580  Biso   1.000  C
  C168     1.0000 0.12240  0.15090  0.46580  Biso   1.000  C
  C169     1.0000 0.78907  0.30483  0.29913  Biso   1.000  C
  C170     1.0000 0.69517  0.48423  0.29913  Biso   1.000  C
  C171     1.0000 0.51577  0.21093  0.29913  Biso   1.000  C
  C172     1.0000 0.69517  0.21093  0.79913  Biso   1.000  C
  C173     1.0000 0.51577  0.30483  0.79913  Biso   1.000  C
  C174     1.0000 0.78907  0.48423  0.79913  Biso   1.000  C
  C175     1.0000 0.45573  0.63817  0.63247  Biso   1.000  C
  C176     1.0000 0.36183  0.81757  0.63247  Biso   1.000  C
  C177     1.0000 0.18243  0.54427  0.63247  Biso   1.000  C
  C178     1.0000 0.36183  0.54427  0.13247  Biso   1.000  C
  C179     1.0000 0.18243  0.63817  0.13247  Biso   1.000  C
  C180     1.0000 0.45573  0.81757  0.13247  Biso   1.000  C
  C181     1.0000 0.03130  0.80850  0.10310  Biso   1.000  C
  C182     1.0000 0.19150  0.22280  0.10310  Biso   1.000  C
  C183     1.0000 0.77720  0.96870  0.10310  Biso   1.000  C
  C184     1.0000 0.19150  0.96870  0.60310  Biso   1.000  C
  C185     1.0000 0.77720  0.80850  0.60310  Biso   1.000  C
  C186     1.0000 0.03130  0.22280  0.60310  Biso   1.000  C
  C187     1.0000 0.69797  0.14183  0.43643  Biso   1.000  C
  C188     1.0000 0.85817  0.55613  0.43643  Biso   1.000  C
  C189     1.0000 0.44387  0.30203  0.43643  Biso   1.000  C
  C190     1.0000 0.85817  0.30203  0.93643  Biso   1.000  C
  C191     1.0000 0.44387  0.14183  0.93643  Biso   1.000  C
  C192     1.0000 0.69797  0.55613  0.93643  Biso   1.000  C
  C193     1.0000 0.36463  0.47517  0.76977  Biso   1.000  C
  C194     1.0000 0.52483  0.88947  0.76977  Biso   1.000  C
  C195     1.0000 0.11053  0.63537  0.76977  Biso   1.000  C
  C196     1.0000 0.52483  0.63537  0.26977  Biso   1.000  C
  C197     1.0000 0.11053  0.47517  0.26977  Biso   1.000  C
  C198     1.0000 0.36463  0.88947  0.26977  Biso   1.000  C
  C199     1.0000 0.98210  0.77210  0.05450  Biso   1.000  C
  C200     1.0000 0.22790  0.21000  0.05450  Biso   1.000  C
  C201     1.0000 0.79000  0.01790  0.05450  Biso   1.000  C
  C202     1.0000 0.22790  0.01790  0.55450  Biso   1.000  C
  C203     1.0000 0.79000  0.77210  0.55450  Biso   1.000  C
  C204     1.0000 0.98210  0.21000  0.55450  Biso   1.000  C
  C205     1.0000 0.64877  0.10543  0.38783  Biso   1.000  C
  C206     1.0000 0.89457  0.54333  0.38783  Biso   1.000  C
  C207     1.0000 0.45667  0.35123  0.38783  Biso   1.000  C
  C208     1.0000 0.89457  0.35123  0.88783  Biso   1.000  C
  C209     1.0000 0.45667  0.10543  0.88783  Biso   1.000  C
  C210     1.0000 0.64877  0.54333  0.88783  Biso   1.000  C
  C211     1.0000 0.31543  0.43877  0.72117  Biso   1.000  C
  C212     1.0000 0.56123  0.87667  0.72117  Biso   1.000  C
  C213     1.0000 0.12333  0.68457  0.72117  Biso   1.000  C
  C214     1.0000 0.56123  0.68457  0.22117  Biso   1.000  C
  C215     1.0000 0.12333  0.43877  0.22117  Biso   1.000  C
  C216     1.0000 0.31543  0.87667  0.22117  Biso   1.000  C
  H109     1.0000 0.96350  0.78190  0.98780  Biso   1.000  H
  H110     1.0000 0.21810  0.18160  0.98780  Biso   1.000  H
  H111     1.0000 0.81840  0.03650  0.98780  Biso   1.000  H
  H112     1.0000 0.21810  0.03650  0.48780  Biso   1.000  H
  H113     1.0000 0.81840  0.78190  0.48780  Biso   1.000  H
  H114     1.0000 0.96350  0.18160  0.48780  Biso   1.000  H
  H115     1.0000 0.63017  0.11523  0.32113  Biso   1.000  H
  H116     1.0000 0.88477  0.51493  0.32113  Biso   1.000  H
  H117     1.0000 0.48507  0.36983  0.32113  Biso   1.000  H
  H118     1.0000 0.88477  0.36983  0.82113  Biso   1.000  H
  H119     1.0000 0.48507  0.11523  0.82113  Biso   1.000  H
  H120     1.0000 0.63017  0.51493  0.82113  Biso   1.000  H
  H121     1.0000 0.29683  0.44857  0.65447  Biso   1.000  H
  H122     1.0000 0.55143  0.84827  0.65447  Biso   1.000  H
  H123     1.0000 0.15173  0.70317  0.65447  Biso   1.000  H
  H124     1.0000 0.55143  0.70317  0.15447  Biso   1.000  H
  H125     1.0000 0.15173  0.44857  0.15447  Biso   1.000  H
  H126     1.0000 0.29683  0.84827  0.15447  Biso   1.000  H
  C217     1.0000 0.96020  0.72130  0.10420  Biso   1.000  C
  C218     1.0000 0.27870  0.23890  0.10420  Biso   1.000  C
  C219     1.0000 0.76110  0.03980  0.10420  Biso   1.000  C
  C220     1.0000 0.27870  0.03980  0.60420  Biso   1.000  C
  C221     1.0000 0.76110  0.72130  0.60420  Biso   1.000  C
  C222     1.0000 0.96020  0.23890  0.60420  Biso   1.000  C
  C223     1.0000 0.62687  0.05463  0.43753  Biso   1.000  C
  C224     1.0000 0.94537  0.57223  0.43753  Biso   1.000  C
  C225     1.0000 0.42777  0.37313  0.43753  Biso   1.000  C
  C226     1.0000 0.94537  0.37313  0.93753  Biso   1.000  C
  C227     1.0000 0.42777  0.05463  0.93753  Biso   1.000  C
  C228     1.0000 0.62687  0.57223  0.93753  Biso   1.000  C
  C229     1.0000 0.29353  0.38797  0.77087  Biso   1.000  C
  C230     1.0000 0.61203  0.90557  0.77087  Biso   1.000  C
  C231     1.0000 0.09443  0.70647  0.77087  Biso   1.000  C
  C232     1.0000 0.61203  0.70647  0.27087  Biso   1.000  C
  C233     1.0000 0.09443  0.38797  0.27087  Biso   1.000  C
  C234     1.0000 0.29353  0.90557  0.27087  Biso   1.000  C
  H127     1.0000 0.92750  0.69620  0.06980  Biso   1.000  H
  H128     1.0000 0.30380  0.23130  0.06980  Biso   1.000  H
  H129     1.0000 0.76870  0.07250  0.06980  Biso   1.000  H
  H130     1.0000 0.30380  0.07250  0.56980  Biso   1.000  H
  H131     1.0000 0.76870  0.69620  0.56980  Biso   1.000  H
  H132     1.0000 0.92750  0.23130  0.56980  Biso   1.000  H
  H133     1.0000 0.59417  0.02953  0.40313  Biso   1.000  H
  H134     1.0000 0.97047  0.56463  0.40313  Biso   1.000  H
  H135     1.0000 0.43537  0.40583  0.40313  Biso   1.000  H
  H136     1.0000 0.97047  0.40583  0.90313  Biso   1.000  H
  H137     1.0000 0.43537  0.02953  0.90313  Biso   1.000  H
  H138     1.0000 0.59417  0.56463  0.90313  Biso   1.000  H
  H139     1.0000 0.26083  0.36287  0.73647  Biso   1.000  H
  H140     1.0000 0.63713  0.89797  0.73647  Biso   1.000  H
  H141     1.0000 0.10203  0.73917  0.73647  Biso   1.000  H
  H142     1.0000 0.63713  0.73917  0.23647  Biso   1.000  H
  H143     1.0000 0.10203  0.36287  0.23647  Biso   1.000  H
  H144     1.0000 0.26083  0.89797  0.23647  Biso   1.000  H
  C235     1.0000 0.98910  0.70900  0.20800  Biso   1.000  C
  C236     1.0000 0.29100  0.28010  0.20800  Biso   1.000  C
  C237     1.0000 0.71990  0.01090  0.20800  Biso   1.000  C
  C238     1.0000 0.29100  0.01090  0.70800  Biso   1.000  C
  C239     1.0000 0.71990  0.70900  0.70800  Biso   1.000  C
  C240     1.0000 0.98910  0.28010  0.70800  Biso   1.000  C
  C241     1.0000 0.65577  0.04233  0.54133  Biso   1.000  C
  C242     1.0000 0.95767  0.61343  0.54133  Biso   1.000  C
  C243     1.0000 0.38657  0.34423  0.54133  Biso   1.000  C
  C244     1.0000 0.95767  0.34423  0.04133  Biso   1.000  C
  C245     1.0000 0.38657  0.04233  0.04133  Biso   1.000  C
  C246     1.0000 0.65577  0.61343  0.04133  Biso   1.000  C
  C247     1.0000 0.32243  0.37567  0.87467  Biso   1.000  C
  C248     1.0000 0.62433  0.94677  0.87467  Biso   1.000  C
  C249     1.0000 0.05323  0.67757  0.87467  Biso   1.000  C
  C250     1.0000 0.62433  0.67757  0.37467  Biso   1.000  C
  C251     1.0000 0.05323  0.37567  0.37467  Biso   1.000  C
  C252     1.0000 0.32243  0.94677  0.37467  Biso   1.000  C
  H145     1.0000 0.97560  0.67520  0.24480  Biso   1.000  H
  H146     1.0000 0.32480  0.30040  0.24480  Biso   1.000  H
  H147     1.0000 0.69960  0.02440  0.24480  Biso   1.000  H
  H148     1.0000 0.32480  0.02440  0.74480  Biso   1.000  H
  H149     1.0000 0.69960  0.67520  0.74480  Biso   1.000  H
  H150     1.0000 0.97560  0.30040  0.74480  Biso   1.000  H
  H151     1.0000 0.64227  0.00853  0.57813  Biso   1.000  H
  H152     1.0000 0.99147  0.63373  0.57813  Biso   1.000  H
  H153     1.0000 0.36627  0.35773  0.57813  Biso   1.000  H
  H154     1.0000 0.99147  0.35773  0.07813  Biso   1.000  H
  H155     1.0000 0.36627  0.00853  0.07813  Biso   1.000  H
  H156     1.0000 0.64227  0.63373  0.07813  Biso   1.000  H
  H157     1.0000 0.30893  0.34187  0.91147  Biso   1.000  H
  H158     1.0000 0.65813  0.96707  0.91147  Biso   1.000  H
  H159     1.0000 0.03293  0.69107  0.91147  Biso   1.000  H
  H160     1.0000 0.65813  0.69107  0.41147  Biso   1.000  H
  H161     1.0000 0.03293  0.34187  0.41147  Biso   1.000  H
  H162     1.0000 0.30893  0.96707  0.41147  Biso   1.000  H
  C253     1.0000 0.03720  0.74670  0.25530  Biso   1.000  C
  C254     1.0000 0.25330  0.29050  0.25530  Biso   1.000  C
  C255     1.0000 0.70950  0.96280  0.25530  Biso   1.000  C
  C256     1.0000 0.25330  0.96280  0.75530  Biso   1.000  C
  C257     1.0000 0.70950  0.74670  0.75530  Biso   1.000  C
  C258     1.0000 0.03720  0.29050  0.75530  Biso   1.000  C
  C259     1.0000 0.70387  0.08003  0.58863  Biso   1.000  C
  C260     1.0000 0.91997  0.62383  0.58863  Biso   1.000  C
  C261     1.0000 0.37617  0.29613  0.58863  Biso   1.000  C
  C262     1.0000 0.91997  0.29613  0.08863  Biso   1.000  C
  C263     1.0000 0.37617  0.08003  0.08863  Biso   1.000  C
  C264     1.0000 0.70387  0.62383  0.08863  Biso   1.000  C
  C265     1.0000 0.37053  0.41337  0.92197  Biso   1.000  C
  C266     1.0000 0.58663  0.95717  0.92197  Biso   1.000  C
  C267     1.0000 0.04283  0.62947  0.92197  Biso   1.000  C
  C268     1.0000 0.58663  0.62947  0.42197  Biso   1.000  C
  C269     1.0000 0.04283  0.41337  0.42197  Biso   1.000  C
  C270     1.0000 0.37053  0.95717  0.42197  Biso   1.000  C
  H163     1.0000 0.05550  0.73800  0.32630  Biso   1.000  H
  H164     1.0000 0.26200  0.31750  0.32630  Biso   1.000  H
  H165     1.0000 0.68250  0.94450  0.32630  Biso   1.000  H
  H166     1.0000 0.26200  0.94450  0.82630  Biso   1.000  H
  H167     1.0000 0.68250  0.73800  0.82630  Biso   1.000  H
  H168     1.0000 0.05550  0.31750  0.82630  Biso   1.000  H
  H169     1.0000 0.72217  0.07133  0.65963  Biso   1.000  H
  H170     1.0000 0.92867  0.65083  0.65963  Biso   1.000  H
  H171     1.0000 0.34917  0.27783  0.65963  Biso   1.000  H
  H172     1.0000 0.92867  0.27783  0.15963  Biso   1.000  H
  H173     1.0000 0.34917  0.07133  0.15963  Biso   1.000  H
  H174     1.0000 0.72217  0.65083  0.15963  Biso   1.000  H
  H175     1.0000 0.38883  0.40467  0.99297  Biso   1.000  H
  H176     1.0000 0.59533  0.98417  0.99297  Biso   1.000  H
  H177     1.0000 0.01583  0.61117  0.99297  Biso   1.000  H
  H178     1.0000 0.59533  0.61117  0.49297  Biso   1.000  H
  H179     1.0000 0.01583  0.40467  0.49297  Biso   1.000  H
  H180     1.0000 0.38883  0.98417  0.49297  Biso   1.000  H
