data_image0
_cell_length_a       7.3335
_cell_length_b       17.042
_cell_length_c       7.3336
_cell_angle_alpha    90
_cell_angle_beta     93.44
_cell_angle_gamma    90

_symmetry_space_group_name_H-M    "P 1"
_symmetry_int_tables_number       1

loop_
  _symmetry_equiv_pos_as_xyz
  'x, y, z'

loop_
  _atom_site_label
  _atom_site_occupancy
  _atom_site_fract_x
  _atom_site_fract_y
  _atom_site_fract_z
  _atom_site_thermal_displace_type
  _atom_site_B_iso_or_equiv
  _atom_site_type_symbol
  Cu1      1.0000 0.42144  0.77552  0.19116  Biso   1.000  Cu
  Cu2      1.0000 0.57856  0.27552  0.30884  Biso   1.000  Cu
  Cu3      1.0000 0.57856  0.22448  0.80884  Biso   1.000  Cu
  Cu4      1.0000 0.42144  0.72448  0.69116  Biso   1.000  Cu
  Cl1      1.0000 0.61004  0.76669  0.46079  Biso   1.000  Cl
  Cl2      1.0000 0.38996  0.26669  0.03921  Biso   1.000  Cl
  Cl3      1.0000 0.38996  0.23331  0.53921  Biso   1.000  Cl
  Cl4      1.0000 0.61004  0.73331  0.96079  Biso   1.000  Cl
  Cl5      1.0000 0.27599  0.89436  0.15203  Biso   1.000  Cl
  Cl6      1.0000 0.72401  0.39436  0.34797  Biso   1.000  Cl
  Cl7      1.0000 0.72401  0.10564  0.84797  Biso   1.000  Cl
  Cl8      1.0000 0.27599  0.60564  0.65203  Biso   1.000  Cl
  Cl9      1.0000 0.27138  0.45428  0.12808  Biso   1.000  Cl
  Cl10     1.0000 0.72862  0.95428  0.37192  Biso   1.000  Cl
  Cl11     1.0000 0.72862  0.54572  0.87192  Biso   1.000  Cl
  Cl12     1.0000 0.27138  0.04572  0.62808  Biso   1.000  Cl
  N1       1.0000 0.22860  0.68398  0.18420  Biso   1.000  N
  N2       1.0000 0.77140  0.18398  0.31580  Biso   1.000  N
  N3       1.0000 0.77140  0.31602  0.81580  Biso   1.000  N
  N4       1.0000 0.22860  0.81602  0.68420  Biso   1.000  N
  N5       1.0000 0.99760  0.76075  0.28360  Biso   1.000  N
  N6       1.0000 0.00240  0.26075  0.21640  Biso   1.000  N
  N7       1.0000 0.00240  0.23925  0.71640  Biso   1.000  N
  N8       1.0000 0.99760  0.73925  0.78360  Biso   1.000  N
  H1       1.0000 0.06380  0.80220  0.26680  Biso   1.000  H
  H2       1.0000 0.93620  0.30220  0.23320  Biso   1.000  H
  H3       1.0000 0.93620  0.19780  0.73320  Biso   1.000  H
  H4       1.0000 0.06380  0.69780  0.76680  Biso   1.000  H
  H5       1.0000 0.88920  0.76570  0.32440  Biso   1.000  H
  H6       1.0000 0.11080  0.26570  0.17560  Biso   1.000  H
  H7       1.0000 0.11080  0.23430  0.67560  Biso   1.000  H
  H8       1.0000 0.88920  0.73430  0.82440  Biso   1.000  H
  N9       1.0000 0.95940  0.62640  0.27350  Biso   1.000  N
  N10      1.0000 0.04060  0.12640  0.22650  Biso   1.000  N
  N11      1.0000 0.04060  0.37360  0.72650  Biso   1.000  N
  N12      1.0000 0.95940  0.87360  0.77350  Biso   1.000  N
  H9       1.0000 0.85080  0.63190  0.31340  Biso   1.000  H
  H10      1.0000 0.14920  0.13190  0.18660  Biso   1.000  H
  H11      1.0000 0.14920  0.36810  0.68660  Biso   1.000  H
  H12      1.0000 0.85080  0.86810  0.81340  Biso   1.000  H
  C1       1.0000 0.06090  0.69104  0.24730  Biso   1.000  C
  C2       1.0000 0.93910  0.19104  0.25270  Biso   1.000  C
  C3       1.0000 0.93910  0.30896  0.75270  Biso   1.000  C
  C4       1.0000 0.06090  0.80896  0.74730  Biso   1.000  C
  C5       1.0000 0.28630  0.61338  0.14570  Biso   1.000  C
  C6       1.0000 0.71370  0.11338  0.35430  Biso   1.000  C
  C7       1.0000 0.71370  0.38662  0.85430  Biso   1.000  C
  C8       1.0000 0.28630  0.88662  0.64570  Biso   1.000  C
  H13      1.0000 0.40160  0.60810  0.09760  Biso   1.000  H
  H14      1.0000 0.59840  0.10810  0.40240  Biso   1.000  H
  H15      1.0000 0.59840  0.39190  0.90240  Biso   1.000  H
  H16      1.0000 0.40160  0.89190  0.59760  Biso   1.000  H
  C9       1.0000 0.18410  0.54559  0.17310  Biso   1.000  C
  C10      1.0000 0.81590  0.04559  0.32690  Biso   1.000  C
  C11      1.0000 0.81590  0.45441  0.82690  Biso   1.000  C
  C12      1.0000 0.18410  0.95441  0.67310  Biso   1.000  C
  C13      1.0000 0.02010  0.55414  0.24000  Biso   1.000  C
  C14      1.0000 0.97990  0.05414  0.26000  Biso   1.000  C
  C15      1.0000 0.97990  0.44586  0.76000  Biso   1.000  C
  C16      1.0000 0.02010  0.94586  0.74000  Biso   1.000  C
  H17      1.0000 0.94830  0.51000  0.26330  Biso   1.000  H
  H18      1.0000 0.05170  0.01000  0.23670  Biso   1.000  H
  H19      1.0000 0.05170  0.49000  0.73670  Biso   1.000  H
  H20      1.0000 0.94830  0.99000  0.76330  Biso   1.000  H
  O1       1.0000 0.63590  0.57682  0.38650  Biso   1.000  O
  O2       1.0000 0.36410  0.07682  0.11350  Biso   1.000  O
  O3       1.0000 0.36410  0.42318  0.61350  Biso   1.000  O
  O4       1.0000 0.63590  0.92318  0.88650  Biso   1.000  O
  H21      1.0000 0.59200  0.59770  0.46400  Biso   1.000  H
  H22      1.0000 0.40800  0.09770  0.03600  Biso   1.000  H
  H23      1.0000 0.40800  0.40230  0.53600  Biso   1.000  H
  H24      1.0000 0.59200  0.90230  0.96400  Biso   1.000  H
  H25      1.0000 0.61300  0.53630  0.38600  Biso   1.000  H
  H26      1.0000 0.38700  0.03630  0.11400  Biso   1.000  H
  H27      1.0000 0.38700  0.46370  0.61400  Biso   1.000  H
  H28      1.0000 0.61300  0.96370  0.88600  Biso   1.000  H
