data_image0
_cell_length_a       6.1428
_cell_length_b       14.367
_cell_length_c       15.215
_cell_angle_alpha    90
_cell_angle_beta     90.084
_cell_angle_gamma    90

_symmetry_space_group_name_H-M    "P 1"
_symmetry_int_tables_number       1

loop_
  _symmetry_equiv_pos_as_xyz
  'x, y, z'

loop_
  _atom_site_label
  _atom_site_occupancy
  _atom_site_fract_x
  _atom_site_fract_y
  _atom_site_fract_z
  _atom_site_thermal_displace_type
  _atom_site_B_iso_or_equiv
  _atom_site_type_symbol
  Cu1      1.0000 0.54462  0.36943  0.58585  Biso   1.000  Cu
  Cu2      1.0000 0.54462  0.63057  0.08585  Biso   1.000  Cu
  Cu3      1.0000 0.04462  0.86943  0.58585  Biso   1.000  Cu
  Cu4      1.0000 0.04462  0.13057  0.08585  Biso   1.000  Cu
  Cl1      1.0000 0.04940  0.47045  0.41290  Biso   1.000  Cl
  Cl2      1.0000 0.04940  0.52955  0.91290  Biso   1.000  Cl
  Cl3      1.0000 0.54940  0.97045  0.41290  Biso   1.000  Cl
  Cl4      1.0000 0.54940  0.02955  0.91290  Biso   1.000  Cl
  Cl5      1.0000 0.14510  0.16579  0.64581  Biso   1.000  Cl
  Cl6      1.0000 0.14510  0.83421  0.14581  Biso   1.000  Cl
  Cl7      1.0000 0.64510  0.66579  0.64581  Biso   1.000  Cl
  Cl8      1.0000 0.64510  0.33421  0.14581  Biso   1.000  Cl
  N1       1.0000 0.46230  0.34110  0.71120  Biso   1.000  N
  N2       1.0000 0.46230  0.65890  0.21120  Biso   1.000  N
  N3       1.0000 0.96230  0.84110  0.71120  Biso   1.000  N
  N4       1.0000 0.96230  0.15890  0.21120  Biso   1.000  N
  H1       1.0000 0.35760  0.29570  0.70350  Biso   1.000  H
  H2       1.0000 0.35760  0.70430  0.20350  Biso   1.000  H
  H3       1.0000 0.85760  0.79570  0.70350  Biso   1.000  H
  H4       1.0000 0.85760  0.20430  0.20350  Biso   1.000  H
  H5       1.0000 0.55900  0.31550  0.74010  Biso   1.000  H
  H6       1.0000 0.55900  0.68450  0.24010  Biso   1.000  H
  H7       1.0000 0.05900  0.81550  0.74010  Biso   1.000  H
  H8       1.0000 0.05900  0.18450  0.24010  Biso   1.000  H
  C1       1.0000 0.37560  0.42740  0.75070  Biso   1.000  C
  C2       1.0000 0.37560  0.57260  0.25070  Biso   1.000  C
  C3       1.0000 0.87560  0.92740  0.75070  Biso   1.000  C
  C4       1.0000 0.87560  0.07260  0.25070  Biso   1.000  C
  H9       1.0000 0.49410  0.46960  0.76430  Biso   1.000  H
  H10      1.0000 0.49410  0.53040  0.26430  Biso   1.000  H
  H11      1.0000 0.99410  0.96960  0.76430  Biso   1.000  H
  H12      1.0000 0.99410  0.03040  0.26430  Biso   1.000  H
  H13      1.0000 0.29940  0.41300  0.80480  Biso   1.000  H
  H14      1.0000 0.29940  0.58700  0.30480  Biso   1.000  H
  H15      1.0000 0.79940  0.91300  0.80480  Biso   1.000  H
  H16      1.0000 0.79940  0.08700  0.30480  Biso   1.000  H
  N5       1.0000 0.34010  0.48060  0.60080  Biso   1.000  N
  N6       1.0000 0.34010  0.51940  0.10080  Biso   1.000  N
  N7       1.0000 0.84010  0.98060  0.60080  Biso   1.000  N
  N8       1.0000 0.84010  0.01940  0.10080  Biso   1.000  N
  H17      1.0000 0.42500  0.53160  0.60270  Biso   1.000  H
  H18      1.0000 0.42500  0.46840  0.10270  Biso   1.000  H
  H19      1.0000 0.92500  0.03160  0.60270  Biso   1.000  H
  H20      1.0000 0.92500  0.96840  0.10270  Biso   1.000  H
  H21      1.0000 0.24300  0.48920  0.55600  Biso   1.000  H
  H22      1.0000 0.24300  0.51080  0.05600  Biso   1.000  H
  H23      1.0000 0.74300  0.98920  0.55600  Biso   1.000  H
  H24      1.0000 0.74300  0.01080  0.05600  Biso   1.000  H
  C5       1.0000 0.21970  0.47270  0.68520  Biso   1.000  C
  C6       1.0000 0.21970  0.52730  0.18520  Biso   1.000  C
  C7       1.0000 0.71970  0.97270  0.68520  Biso   1.000  C
  C8       1.0000 0.71970  0.02730  0.18520  Biso   1.000  C
  H25      1.0000 0.18050  0.53500  0.70600  Biso   1.000  H
  H26      1.0000 0.18050  0.46500  0.20600  Biso   1.000  H
  H27      1.0000 0.68050  0.03500  0.70600  Biso   1.000  H
  H28      1.0000 0.68050  0.96500  0.20600  Biso   1.000  H
  N9       1.0000 0.84900  0.45350  0.61460  Biso   1.000  N
  N10      1.0000 0.84900  0.54650  0.11460  Biso   1.000  N
  N11      1.0000 0.34900  0.95350  0.61460  Biso   1.000  N
  N12      1.0000 0.34900  0.04650  0.11460  Biso   1.000  N
  H29      1.0000 0.82400  0.50700  0.62830  Biso   1.000  H
  H30      1.0000 0.82400  0.49300  0.12830  Biso   1.000  H
  H31      1.0000 0.32400  0.00700  0.62830  Biso   1.000  H
  H32      1.0000 0.32400  0.99300  0.12830  Biso   1.000  H
  H33      1.0000 0.89300  0.46540  0.56680  Biso   1.000  H
  H34      1.0000 0.89300  0.53460  0.06680  Biso   1.000  H
  H35      1.0000 0.39300  0.96540  0.56680  Biso   1.000  H
  H36      1.0000 0.39300  0.03460  0.06680  Biso   1.000  H
  C9       1.0000 0.01390  0.41470  0.67380  Biso   1.000  C
  C10      1.0000 0.01390  0.58530  0.17380  Biso   1.000  C
  C11      1.0000 0.51390  0.91470  0.67380  Biso   1.000  C
  C12      1.0000 0.51390  0.08530  0.17380  Biso   1.000  C
  H37      1.0000 0.05530  0.35380  0.65200  Biso   1.000  H
  H38      1.0000 0.05530  0.64620  0.15200  Biso   1.000  H
  H39      1.0000 0.55530  0.85380  0.65200  Biso   1.000  H
  H40      1.0000 0.55530  0.14620  0.15200  Biso   1.000  H
  H41      1.0000 0.94830  0.40590  0.73120  Biso   1.000  H
  H42      1.0000 0.94830  0.59410  0.23120  Biso   1.000  H
  H43      1.0000 0.44830  0.90590  0.73120  Biso   1.000  H
  H44      1.0000 0.44830  0.09410  0.23120  Biso   1.000  H
  N13      1.0000 0.66110  0.23930  0.56490  Biso   1.000  N
  N14      1.0000 0.66110  0.76070  0.06490  Biso   1.000  N
  N15      1.0000 0.16110  0.73930  0.56490  Biso   1.000  N
  N16      1.0000 0.16110  0.26070  0.06490  Biso   1.000  N
  H45      1.0000 0.55600  0.20770  0.57040  Biso   1.000  H
  H46      1.0000 0.55600  0.79230  0.07040  Biso   1.000  H
  H47      1.0000 0.05600  0.70770  0.57040  Biso   1.000  H
  H48      1.0000 0.05600  0.29230  0.07040  Biso   1.000  H
  H49      1.0000 0.76100  0.23130  0.59510  Biso   1.000  H
  H50      1.0000 0.76100  0.76870  0.09510  Biso   1.000  H
  H51      1.0000 0.26100  0.73130  0.59510  Biso   1.000  H
  H52      1.0000 0.26100  0.26870  0.09510  Biso   1.000  H
  C13      1.0000 0.75580  0.23540  0.47570  Biso   1.000  C
  C14      1.0000 0.75580  0.76460  0.97570  Biso   1.000  C
  C15      1.0000 0.25580  0.73540  0.47570  Biso   1.000  C
  C16      1.0000 0.25580  0.26460  0.97570  Biso   1.000  C
  H53      1.0000 0.76910  0.17110  0.45710  Biso   1.000  H
  H54      1.0000 0.76910  0.82890  0.95710  Biso   1.000  H
  H55      1.0000 0.26910  0.67110  0.45710  Biso   1.000  H
  H56      1.0000 0.26910  0.32890  0.95710  Biso   1.000  H
  H57      1.0000 0.90000  0.26290  0.47620  Biso   1.000  H
  H58      1.0000 0.90000  0.73710  0.97620  Biso   1.000  H
  H59      1.0000 0.40000  0.76290  0.47620  Biso   1.000  H
  H60      1.0000 0.40000  0.23710  0.97620  Biso   1.000  H
  N17      1.0000 0.56290  0.38050  0.45200  Biso   1.000  N
  N18      1.0000 0.56290  0.61950  0.95200  Biso   1.000  N
  N19      1.0000 0.06290  0.88050  0.45200  Biso   1.000  N
  N20      1.0000 0.06290  0.11950  0.95200  Biso   1.000  N
  H61      1.0000 0.67100  0.41260  0.44110  Biso   1.000  H
  H62      1.0000 0.67100  0.58740  0.94110  Biso   1.000  H
  H63      1.0000 0.17100  0.91260  0.44110  Biso   1.000  H
  H64      1.0000 0.17100  0.08740  0.94110  Biso   1.000  H
  H65      1.0000 0.44700  0.41130  0.42700  Biso   1.000  H
  H66      1.0000 0.44700  0.58870  0.92700  Biso   1.000  H
  H67      1.0000 0.94700  0.91130  0.42700  Biso   1.000  H
  H68      1.0000 0.94700  0.08870  0.92700  Biso   1.000  H
  C17      1.0000 0.61000  0.28820  0.41190  Biso   1.000  C
  C18      1.0000 0.61000  0.71180  0.91190  Biso   1.000  C
  C19      1.0000 0.11000  0.78820  0.41190  Biso   1.000  C
  C20      1.0000 0.11000  0.21180  0.91190  Biso   1.000  C
  H69      1.0000 0.69020  0.29800  0.35710  Biso   1.000  H
  H70      1.0000 0.69020  0.70200  0.85710  Biso   1.000  H
  H71      1.0000 0.19020  0.79800  0.35710  Biso   1.000  H
  H72      1.0000 0.19020  0.20200  0.85710  Biso   1.000  H
  N21      1.0000 0.27400  0.27560  0.31810  Biso   1.000  N
  N22      1.0000 0.27400  0.72440  0.81810  Biso   1.000  N
  N23      1.0000 0.77400  0.77560  0.31810  Biso   1.000  N
  N24      1.0000 0.77400  0.22440  0.81810  Biso   1.000  N
  H73      1.0000 0.20450  0.33000  0.33610  Biso   1.000  H
  H74      1.0000 0.20450  0.67000  0.83610  Biso   1.000  H
  H75      1.0000 0.70450  0.83000  0.33610  Biso   1.000  H
  H76      1.0000 0.70450  0.17000  0.83610  Biso   1.000  H
  H77      1.0000 0.35870  0.30130  0.27390  Biso   1.000  H
  H78      1.0000 0.35870  0.69870  0.77390  Biso   1.000  H
  H79      1.0000 0.85870  0.80130  0.27390  Biso   1.000  H
  H80      1.0000 0.85870  0.19870  0.77390  Biso   1.000  H
  C21      1.0000 0.39980  0.23610  0.39100  Biso   1.000  C
  C22      1.0000 0.39980  0.76390  0.89100  Biso   1.000  C
  C23      1.0000 0.89980  0.73610  0.39100  Biso   1.000  C
  C24      1.0000 0.89980  0.26390  0.89100  Biso   1.000  C
  H81      1.0000 0.43540  0.17200  0.37700  Biso   1.000  H
  H82      1.0000 0.43540  0.82800  0.87700  Biso   1.000  H
  H83      1.0000 0.93540  0.67200  0.37700  Biso   1.000  H
  H84      1.0000 0.93540  0.32800  0.87700  Biso   1.000  H
  H85      1.0000 0.30910  0.23560  0.44320  Biso   1.000  H
  H86      1.0000 0.30910  0.76440  0.94320  Biso   1.000  H
  H87      1.0000 0.80910  0.73560  0.44320  Biso   1.000  H
  H88      1.0000 0.80910  0.26440  0.94320  Biso   1.000  H
