data_image0
_cell_length_a       11.8918
_cell_length_b       10.4838
_cell_length_c       15.8722
_cell_angle_alpha    90
_cell_angle_beta     107.407
_cell_angle_gamma    90

_symmetry_space_group_name_H-M    "P 1"
_symmetry_int_tables_number       1

loop_
  _symmetry_equiv_pos_as_xyz
  'x, y, z'

loop_
  _atom_site_label
  _atom_site_occupancy
  _atom_site_fract_x
  _atom_site_fract_y
  _atom_site_fract_z
  _atom_site_thermal_displace_type
  _atom_site_B_iso_or_equiv
  _atom_site_type_symbol
  Cu1      1.0000 0.00943  0.65374  0.02217  Biso   1.000  Cu
  Cu2      1.0000 0.99057  0.15374  0.47783  Biso   1.000  Cu
  Cu3      1.0000 0.99057  0.34626  0.97783  Biso   1.000  Cu
  Cu4      1.0000 0.00943  0.84626  0.52217  Biso   1.000  Cu
  S1       1.0000 0.27910  0.74860  0.87940  Biso   1.000  S
  S2       1.0000 0.72090  0.24860  0.62060  Biso   1.000  S
  S3       1.0000 0.72090  0.25140  0.12060  Biso   1.000  S
  S4       1.0000 0.27910  0.75140  0.37940  Biso   1.000  S
  O1       1.0000 0.46720  0.04850  0.34180  Biso   1.000  O
  O2       1.0000 0.53280  0.54850  0.15820  Biso   1.000  O
  O3       1.0000 0.53280  0.95150  0.65820  Biso   1.000  O
  O4       1.0000 0.46720  0.45150  0.84180  Biso   1.000  O
  O5       1.0000 0.53570  0.18890  0.26240  Biso   1.000  O
  O6       1.0000 0.46430  0.68890  0.23760  Biso   1.000  O
  O7       1.0000 0.46430  0.81110  0.73760  Biso   1.000  O
  O8       1.0000 0.53570  0.31110  0.76240  Biso   1.000  O
  H1       1.0000 0.59500  0.15000  0.29100  Biso   1.000  H
  H2       1.0000 0.40500  0.65000  0.20900  Biso   1.000  H
  H3       1.0000 0.40500  0.85000  0.70900  Biso   1.000  H
  H4       1.0000 0.59500  0.35000  0.79100  Biso   1.000  H
  O9       1.0000 0.25890  0.59760  0.15200  Biso   1.000  O
  O10      1.0000 0.74110  0.09760  0.34800  Biso   1.000  O
  O11      1.0000 0.74110  0.40240  0.84800  Biso   1.000  O
  O12      1.0000 0.25890  0.90240  0.65200  Biso   1.000  O
  O13      1.0000 0.09440  0.50120  0.07573  Biso   1.000  O
  O14      1.0000 0.90560  0.00120  0.42427  Biso   1.000  O
  O15      1.0000 0.90560  0.49880  0.92427  Biso   1.000  O
  O16      1.0000 0.09440  0.99880  0.57573  Biso   1.000  O
  O17      1.0000 0.97460  0.28850  0.32623  Biso   1.000  O
  O18      1.0000 0.02540  0.78850  0.17377  Biso   1.000  O
  O19      1.0000 0.02540  0.71150  0.67377  Biso   1.000  O
  O20      1.0000 0.97460  0.21150  0.82623  Biso   1.000  O
  O21      1.0000 0.09260  0.13640  0.40082  Biso   1.000  O
  O22      1.0000 0.90740  0.63640  0.09918  Biso   1.000  O
  O23      1.0000 0.90740  0.86360  0.59918  Biso   1.000  O
  O24      1.0000 0.09260  0.36360  0.90082  Biso   1.000  O
  N1       1.0000 0.92830  0.98150  0.88360  Biso   1.000  N
  N2       1.0000 0.07170  0.48150  0.61640  Biso   1.000  N
  N3       1.0000 0.07170  0.01850  0.11640  Biso   1.000  N
  N4       1.0000 0.92830  0.51850  0.38360  Biso   1.000  N
  H5       1.0000 0.95900  0.03800  0.86300  Biso   1.000  H
  H6       1.0000 0.04100  0.53800  0.63700  Biso   1.000  H
  H7       1.0000 0.04100  0.96200  0.13700  Biso   1.000  H
  H8       1.0000 0.95900  0.46200  0.36300  Biso   1.000  H
  N5       1.0000 0.92490  0.80600  0.96110  Biso   1.000  N
  N6       1.0000 0.07510  0.30600  0.53890  Biso   1.000  N
  N7       1.0000 0.07510  0.19400  0.03890  Biso   1.000  N
  N8       1.0000 0.92490  0.69400  0.46110  Biso   1.000  N
  N9       1.0000 0.12390  0.70840  0.95630  Biso   1.000  N
  N10      1.0000 0.87610  0.20840  0.54370  Biso   1.000  N
  N11      1.0000 0.87610  0.29160  0.04370  Biso   1.000  N
  N12      1.0000 0.12390  0.79160  0.45630  Biso   1.000  N
  C1       1.0000 0.62920  0.92710  0.95380  Biso   1.000  C
  C2       1.0000 0.37080  0.42710  0.54620  Biso   1.000  C
  C3       1.0000 0.37080  0.07290  0.04620  Biso   1.000  C
  C4       1.0000 0.62920  0.57290  0.45380  Biso   1.000  C
  H9       1.0000 0.56170  0.90940  0.96980  Biso   1.000  H
  H10      1.0000 0.43830  0.40940  0.53020  Biso   1.000  H
  H11      1.0000 0.43830  0.09060  0.03020  Biso   1.000  H
  H12      1.0000 0.56170  0.59060  0.46980  Biso   1.000  H
  C5       1.0000 0.63390  0.03870  0.90670  Biso   1.000  C
  C6       1.0000 0.36610  0.53870  0.59330  Biso   1.000  C
  C7       1.0000 0.36610  0.96130  0.09330  Biso   1.000  C
  C8       1.0000 0.63390  0.46130  0.40670  Biso   1.000  C
  H13      1.0000 0.56950  0.09350  0.89240  Biso   1.000  H
  H14      1.0000 0.43050  0.59350  0.60760  Biso   1.000  H
  H15      1.0000 0.43050  0.90650  0.10760  Biso   1.000  H
  H16      1.0000 0.56950  0.40650  0.39240  Biso   1.000  H
  C9       1.0000 0.72930  0.06900  0.88110  Biso   1.000  C
  C10      1.0000 0.27070  0.56900  0.61890  Biso   1.000  C
  C11      1.0000 0.27070  0.93100  0.11890  Biso   1.000  C
  C12      1.0000 0.72930  0.43100  0.38110  Biso   1.000  C
  H17      1.0000 0.73250  0.14390  0.85050  Biso   1.000  H
  H18      1.0000 0.26750  0.64390  0.64950  Biso   1.000  H
  H19      1.0000 0.26750  0.85610  0.14950  Biso   1.000  H
  H20      1.0000 0.73250  0.35610  0.35050  Biso   1.000  H
  C13      1.0000 0.82230  0.98310  0.90280  Biso   1.000  C
  C14      1.0000 0.17770  0.48310  0.59720  Biso   1.000  C
  C15      1.0000 0.17770  0.01690  0.09720  Biso   1.000  C
  C16      1.0000 0.82230  0.51690  0.40280  Biso   1.000  C
  C17      1.0000 0.82040  0.87240  0.95140  Biso   1.000  C
  C18      1.0000 0.17960  0.37240  0.54860  Biso   1.000  C
  C19      1.0000 0.17960  0.12760  0.04860  Biso   1.000  C
  C20      1.0000 0.82040  0.62760  0.45140  Biso   1.000  C
  C21      1.0000 0.72250  0.84300  0.97720  Biso   1.000  C
  C22      1.0000 0.27750  0.34300  0.52280  Biso   1.000  C
  C23      1.0000 0.27750  0.15700  0.02280  Biso   1.000  C
  C24      1.0000 0.72250  0.65700  0.47720  Biso   1.000  C
  H21      1.0000 0.71950  0.76930  0.00910  Biso   1.000  H
  H22      1.0000 0.28050  0.26930  0.49090  Biso   1.000  H
  H23      1.0000 0.28050  0.23070  0.99090  Biso   1.000  H
  H24      1.0000 0.71950  0.73070  0.50910  Biso   1.000  H
  C25      1.0000 0.98540  0.87470  0.91910  Biso   1.000  C
  C26      1.0000 0.01460  0.37470  0.58090  Biso   1.000  C
  C27      1.0000 0.01460  0.12530  0.08090  Biso   1.000  C
  C28      1.0000 0.98540  0.62530  0.41910  Biso   1.000  C
  C29      1.0000 0.09510  0.82300  0.91260  Biso   1.000  C
  C30      1.0000 0.90490  0.32300  0.58740  Biso   1.000  C
  C31      1.0000 0.90490  0.17700  0.08740  Biso   1.000  C
  C32      1.0000 0.09510  0.67700  0.41260  Biso   1.000  C
  C33      1.0000 0.17200  0.86220  0.86940  Biso   1.000  C
  C34      1.0000 0.82800  0.36220  0.63060  Biso   1.000  C
  C35      1.0000 0.82800  0.13780  0.13060  Biso   1.000  C
  C36      1.0000 0.17200  0.63780  0.36940  Biso   1.000  C
  H25      1.0000 0.16730  0.93890  0.83910  Biso   1.000  H
  H26      1.0000 0.83270  0.43890  0.66090  Biso   1.000  H
  H27      1.0000 0.83270  0.06110  0.16090  Biso   1.000  H
  H28      1.0000 0.16730  0.56110  0.33910  Biso   1.000  H
  C37      1.0000 0.22050  0.66080  0.94610  Biso   1.000  C
  C38      1.0000 0.77950  0.16080  0.55390  Biso   1.000  C
  C39      1.0000 0.77950  0.33920  0.05390  Biso   1.000  C
  C40      1.0000 0.22050  0.83920  0.44610  Biso   1.000  C
  H29      1.0000 0.25440  0.58540  0.97290  Biso   1.000  H
  H30      1.0000 0.74560  0.08540  0.52710  Biso   1.000  H
  H31      1.0000 0.74560  0.41460  0.02710  Biso   1.000  H
  H32      1.0000 0.25440  0.91460  0.47290  Biso   1.000  H
  C41      1.0000 0.25890  0.18470  0.31100  Biso   1.000  C
  C42      1.0000 0.74110  0.68470  0.18900  Biso   1.000  C
  C43      1.0000 0.74110  0.81530  0.68900  Biso   1.000  C
  C44      1.0000 0.25890  0.31530  0.81100  Biso   1.000  C
  H33      1.0000 0.27180  0.11430  0.34830  Biso   1.000  H
  H34      1.0000 0.72820  0.61430  0.15170  Biso   1.000  H
  H35      1.0000 0.72820  0.88570  0.65170  Biso   1.000  H
  H36      1.0000 0.27180  0.38570  0.84830  Biso   1.000  H
  C45      1.0000 0.15330  0.24950  0.29290  Biso   1.000  C
  C46      1.0000 0.84670  0.74950  0.20710  Biso   1.000  C
  C47      1.0000 0.84670  0.75050  0.70710  Biso   1.000  C
  C48      1.0000 0.15330  0.25050  0.79290  Biso   1.000  C
  C49      1.0000 0.13310  0.34850  0.23210  Biso   1.000  C
  C50      1.0000 0.86690  0.84850  0.26790  Biso   1.000  C
  C51      1.0000 0.86690  0.65150  0.76790  Biso   1.000  C
  C52      1.0000 0.13310  0.15150  0.73210  Biso   1.000  C
  H37      1.0000 0.05970  0.38800  0.21510  Biso   1.000  H
  H38      1.0000 0.94030  0.88800  0.28490  Biso   1.000  H
  H39      1.0000 0.94030  0.61200  0.78490  Biso   1.000  H
  H40      1.0000 0.05970  0.11200  0.71510  Biso   1.000  H
  C53      1.0000 0.21900  0.38990  0.19620  Biso   1.000  C
  C54      1.0000 0.78100  0.88990  0.30380  Biso   1.000  C
  C55      1.0000 0.78100  0.61010  0.80380  Biso   1.000  C
  C56      1.0000 0.21900  0.11010  0.69620  Biso   1.000  C
  C57      1.0000 0.32730  0.32760  0.21880  Biso   1.000  C
  C58      1.0000 0.67270  0.82760  0.28120  Biso   1.000  C
  C59      1.0000 0.67270  0.67240  0.78120  Biso   1.000  C
  C60      1.0000 0.32730  0.17240  0.71880  Biso   1.000  C
  H41      1.0000 0.38700  0.35610  0.19680  Biso   1.000  H
  H42      1.0000 0.61300  0.85610  0.30320  Biso   1.000  H
  H43      1.0000 0.61300  0.64390  0.80320  Biso   1.000  H
  H44      1.0000 0.38700  0.14390  0.69680  Biso   1.000  H
  C61      1.0000 0.34550  0.22230  0.27490  Biso   1.000  C
  C62      1.0000 0.65450  0.72230  0.22510  Biso   1.000  C
  C63      1.0000 0.65450  0.77770  0.72510  Biso   1.000  C
  C64      1.0000 0.34550  0.27770  0.77490  Biso   1.000  C
  C65      1.0000 0.45770  0.14750  0.29820  Biso   1.000  C
  C66      1.0000 0.54230  0.64750  0.20180  Biso   1.000  C
  C67      1.0000 0.54230  0.85250  0.70180  Biso   1.000  C
  C68      1.0000 0.45770  0.35250  0.79820  Biso   1.000  C
  C69      1.0000 0.19240  0.50360  0.13670  Biso   1.000  C
  C70      1.0000 0.80760  0.00360  0.36330  Biso   1.000  C
  C71      1.0000 0.80760  0.49640  0.86330  Biso   1.000  C
  C72      1.0000 0.19240  0.99640  0.63670  Biso   1.000  C
  C73      1.0000 0.06520  0.22290  0.34150  Biso   1.000  C
  C74      1.0000 0.93480  0.72290  0.15850  Biso   1.000  C
  C75      1.0000 0.93480  0.77710  0.65850  Biso   1.000  C
  C76      1.0000 0.06520  0.27710  0.84150  Biso   1.000  C
  O25      1.0000 0.59150  0.93600  0.49420  Biso   1.000  O
  O26      1.0000 0.40850  0.43600  0.00580  Biso   1.000  O
  O27      1.0000 0.40850  0.06400  0.50580  Biso   1.000  O
  O28      1.0000 0.59150  0.56400  0.99420  Biso   1.000  O
  H45      1.0000 0.55590  0.97690  0.44410  Biso   1.000  H
  H46      1.0000 0.44410  0.47690  0.05590  Biso   1.000  H
  H47      1.0000 0.44410  0.02310  0.55590  Biso   1.000  H
  H48      1.0000 0.55590  0.52310  0.94410  Biso   1.000  H
  H49      1.0000 0.57390  0.93010  0.53990  Biso   1.000  H
  H50      1.0000 0.42610  0.43010  0.96010  Biso   1.000  H
  H51      1.0000 0.42610  0.06990  0.46010  Biso   1.000  H
  H52      1.0000 0.57390  0.56990  0.03990  Biso   1.000  H
  S5       1.0000 0.29500  0.76500  0.89900  Biso   1.000  S
  S6       1.0000 0.70500  0.26500  0.60100  Biso   1.000  S
  S7       1.0000 0.70500  0.23500  0.10100  Biso   1.000  S
  S8       1.0000 0.29500  0.73500  0.39900  Biso   1.000  S
  O29      1.0000 0.50300  0.10200  0.37200  Biso   1.000  O
  O30      1.0000 0.49700  0.60200  0.12800  Biso   1.000  O
  O31      1.0000 0.49700  0.89800  0.62800  Biso   1.000  O
  O32      1.0000 0.50300  0.39800  0.87200  Biso   1.000  O
  H53      1.0000 0.16030  0.93040  0.83030  Biso   1.000  H
  H54      1.0000 0.83970  0.43040  0.66970  Biso   1.000  H
  H55      1.0000 0.83970  0.06960  0.16970  Biso   1.000  H
  H56      1.0000 0.16030  0.56960  0.33030  Biso   1.000  H
  H57      1.0000 0.24660  0.57830  0.96280  Biso   1.000  H
  H58      1.0000 0.75340  0.07830  0.53720  Biso   1.000  H
  H59      1.0000 0.75340  0.42170  0.03720  Biso   1.000  H
  H60      1.0000 0.24660  0.92170  0.46280  Biso   1.000  H
  O33      1.0000 0.49800  0.89600  0.48200  Biso   1.000  O
  O34      1.0000 0.50200  0.39600  0.01800  Biso   1.000  O
  O35      1.0000 0.50200  0.10400  0.51800  Biso   1.000  O
  O36      1.0000 0.49800  0.60400  0.98200  Biso   1.000  O
  H61      1.0000 0.54120  0.90810  0.54150  Biso   1.000  H
  H62      1.0000 0.45880  0.40810  0.95850  Biso   1.000  H
  H63      1.0000 0.45880  0.09190  0.45850  Biso   1.000  H
  H64      1.0000 0.54120  0.59190  0.04150  Biso   1.000  H
  H65      1.0000 0.51260  0.94310  0.44530  Biso   1.000  H
  H66      1.0000 0.48740  0.44310  0.05470  Biso   1.000  H
  H67      1.0000 0.48740  0.05690  0.55470  Biso   1.000  H
  H68      1.0000 0.51260  0.55690  0.94530  Biso   1.000  H
