data_image0
_cell_length_a       8.308
_cell_length_b       13.634
_cell_length_c       15.144
_cell_angle_alpha    90
_cell_angle_beta     100.751
_cell_angle_gamma    90

_symmetry_space_group_name_H-M    "P 1"
_symmetry_int_tables_number       1

loop_
  _symmetry_equiv_pos_as_xyz
  'x, y, z'

loop_
  _atom_site_label
  _atom_site_occupancy
  _atom_site_fract_x
  _atom_site_fract_y
  _atom_site_fract_z
  _atom_site_thermal_displace_type
  _atom_site_B_iso_or_equiv
  _atom_site_type_symbol
  Cd1      1.0000 0.31024  0.67619  0.17148  Biso   1.000  Cd
  Cd2      1.0000 0.18976  0.17619  0.32852  Biso   1.000  Cd
  Cd3      1.0000 0.68976  0.32381  0.82852  Biso   1.000  Cd
  Cd4      1.0000 0.81024  0.82381  0.67148  Biso   1.000  Cd
  Cu1      1.0000 0.39733  0.35161  0.13847  Biso   1.000  Cu
  Cu2      1.0000 0.10267  0.85161  0.36153  Biso   1.000  Cu
  Cu3      1.0000 0.60267  0.64839  0.86153  Biso   1.000  Cu
  Cu4      1.0000 0.89733  0.14839  0.63847  Biso   1.000  Cu
  Cl1      1.0000 0.55602  0.67669  0.29192  Biso   1.000  Cl
  Cl2      1.0000 0.94398  0.17669  0.20808  Biso   1.000  Cl
  Cl3      1.0000 0.44398  0.32331  0.70808  Biso   1.000  Cl
  Cl4      1.0000 0.05602  0.82331  0.79192  Biso   1.000  Cl
  Cl5      1.0000 0.36709  0.55400  0.06112  Biso   1.000  Cl
  Cl6      1.0000 0.13291  0.05400  0.43888  Biso   1.000  Cl
  Cl7      1.0000 0.63291  0.44600  0.93888  Biso   1.000  Cl
  Cl8      1.0000 0.86709  0.94600  0.56112  Biso   1.000  Cl
  N1       1.0000 0.46910  0.41217  0.26122  Biso   1.000  N
  N2       1.0000 0.03090  0.91217  0.23878  Biso   1.000  N
  N3       1.0000 0.53090  0.58783  0.73878  Biso   1.000  N
  N4       1.0000 0.96910  0.08783  0.76122  Biso   1.000  N
  C1       1.0000 0.64720  0.39530  0.28900  Biso   1.000  C
  C2       1.0000 0.85280  0.89530  0.21100  Biso   1.000  C
  C3       1.0000 0.35280  0.60470  0.71100  Biso   1.000  C
  C4       1.0000 0.14720  0.10470  0.78900  Biso   1.000  C
  C5       1.0000 0.72520  0.41060  0.20710  Biso   1.000  C
  C6       1.0000 0.77480  0.91060  0.29290  Biso   1.000  C
  C7       1.0000 0.27480  0.58940  0.79290  Biso   1.000  C
  C8       1.0000 0.22520  0.08940  0.70710  Biso   1.000  C
  N5       1.0000 0.63820  0.34570  0.13585  Biso   1.000  N
  N6       1.0000 0.86180  0.84570  0.36415  Biso   1.000  N
  N7       1.0000 0.36180  0.65430  0.86415  Biso   1.000  N
  N8       1.0000 0.13820  0.15430  0.63585  Biso   1.000  N
  N9       1.0000 0.15470  0.36791  0.13375  Biso   1.000  N
  N10      1.0000 0.34530  0.86791  0.36625  Biso   1.000  N
  N11      1.0000 0.84530  0.63209  0.86625  Biso   1.000  N
  N12      1.0000 0.65470  0.13209  0.63375  Biso   1.000  N
  C9       1.0000 0.06850  0.35870  0.03950  Biso   1.000  C
  C10      1.0000 0.43150  0.85870  0.46050  Biso   1.000  C
  C11      1.0000 0.93150  0.64130  0.96050  Biso   1.000  C
  C12      1.0000 0.56850  0.14130  0.53950  Biso   1.000  C
  C13      1.0000 0.15560  0.28230  0.99350  Biso   1.000  C
  C14      1.0000 0.34440  0.78230  0.50650  Biso   1.000  C
  C15      1.0000 0.84440  0.71770  0.00650  Biso   1.000  C
  C16      1.0000 0.65560  0.21770  0.49350  Biso   1.000  C
  N13      1.0000 0.33160  0.30670  0.00982  Biso   1.000  N
  N14      1.0000 0.16840  0.80670  0.49018  Biso   1.000  N
  N15      1.0000 0.66840  0.69330  0.99018  Biso   1.000  N
  N16      1.0000 0.83160  0.19330  0.50982  Biso   1.000  N
  O1       1.0000 0.13120  0.70607  0.28109  Biso   1.000  O
  O2       1.0000 0.36880  0.20607  0.21891  Biso   1.000  O
  O3       1.0000 0.86880  0.29393  0.71891  Biso   1.000  O
  O4       1.0000 0.63120  0.79393  0.78109  Biso   1.000  O
  O5       1.0000 0.14520  0.55904  0.22648  Biso   1.000  O
  O6       1.0000 0.35480  0.05904  0.27352  Biso   1.000  O
  O7       1.0000 0.85480  0.44096  0.77352  Biso   1.000  O
  O8       1.0000 0.64520  0.94096  0.72648  Biso   1.000  O
  C17      1.0000 0.09340  0.61750  0.27830  Biso   1.000  C
  C18      1.0000 0.40660  0.11750  0.22170  Biso   1.000  C
  C19      1.0000 0.90660  0.38250  0.72170  Biso   1.000  C
  C20      1.0000 0.59340  0.88250  0.77830  Biso   1.000  C
  C21      1.0000 0.98080  0.58030  0.33870  Biso   1.000  C
  C22      1.0000 0.51920  0.08030  0.16130  Biso   1.000  C
  C23      1.0000 0.01920  0.41970  0.66130  Biso   1.000  C
  C24      1.0000 0.48080  0.91970  0.83870  Biso   1.000  C
  O9       1.0000 0.20190  0.81182  0.11127  Biso   1.000  O
  O10      1.0000 0.29810  0.31182  0.38873  Biso   1.000  O
  O11      1.0000 0.79810  0.18818  0.88873  Biso   1.000  O
  O12      1.0000 0.70190  0.68818  0.61127  Biso   1.000  O
  O13      1.0000 0.42850  0.81940  0.05640  Biso   1.000  O
  O14      1.0000 0.07150  0.31940  0.44360  Biso   1.000  O
  O15      1.0000 0.57150  0.18060  0.94360  Biso   1.000  O
  O16      1.0000 0.92850  0.68060  0.55640  Biso   1.000  O
  C25      1.0000 0.29430  0.85230  0.06430  Biso   1.000  C
  C26      1.0000 0.20570  0.35230  0.43570  Biso   1.000  C
  C27      1.0000 0.70570  0.14770  0.93570  Biso   1.000  C
  C28      1.0000 0.79430  0.64770  0.56430  Biso   1.000  C
  C29      1.0000 0.22740  0.94510  0.01520  Biso   1.000  C
  C30      1.0000 0.27260  0.44510  0.48480  Biso   1.000  C
  C31      1.0000 0.77260  0.05490  0.98480  Biso   1.000  C
  C32      1.0000 0.72740  0.55490  0.51520  Biso   1.000  C
  H1       1.0000 0.41900  0.38600  0.30200  Biso   1.000  H
  H2       1.0000 0.08100  0.88600  0.19800  Biso   1.000  H
  H3       1.0000 0.58100  0.61400  0.69800  Biso   1.000  H
  H4       1.0000 0.91900  0.11400  0.80200  Biso   1.000  H
  H5       1.0000 0.44900  0.47900  0.26000  Biso   1.000  H
  H6       1.0000 0.05100  0.97900  0.24000  Biso   1.000  H
  H7       1.0000 0.55100  0.52100  0.74000  Biso   1.000  H
  H8       1.0000 0.94900  0.02100  0.76000  Biso   1.000  H
  H9       1.0000 0.66800  0.32200  0.30900  Biso   1.000  H
  H10      1.0000 0.83200  0.82200  0.19100  Biso   1.000  H
  H11      1.0000 0.33200  0.67800  0.69100  Biso   1.000  H
  H12      1.0000 0.16800  0.17800  0.80900  Biso   1.000  H
  H13      1.0000 0.69900  0.44000  0.33700  Biso   1.000  H
  H14      1.0000 0.80100  0.94000  0.16300  Biso   1.000  H
  H15      1.0000 0.30100  0.56000  0.66300  Biso   1.000  H
  H16      1.0000 0.19900  0.06000  0.83700  Biso   1.000  H
  H17      1.0000 0.83000  0.39700  0.21700  Biso   1.000  H
  H18      1.0000 0.67000  0.89700  0.28300  Biso   1.000  H
  H19      1.0000 0.17000  0.60300  0.78300  Biso   1.000  H
  H20      1.0000 0.33000  0.10300  0.71700  Biso   1.000  H
  H21      1.0000 0.71300  0.47800  0.18700  Biso   1.000  H
  H22      1.0000 0.78700  0.97800  0.31300  Biso   1.000  H
  H23      1.0000 0.28700  0.52200  0.81300  Biso   1.000  H
  H24      1.0000 0.21300  0.02200  0.68700  Biso   1.000  H
  H25      1.0000 0.66500  0.36600  0.08700  Biso   1.000  H
  H26      1.0000 0.83500  0.86600  0.41300  Biso   1.000  H
  H27      1.0000 0.33500  0.63400  0.91300  Biso   1.000  H
  H28      1.0000 0.16500  0.13400  0.58700  Biso   1.000  H
  H29      1.0000 0.68400  0.28400  0.14700  Biso   1.000  H
  H30      1.0000 0.81600  0.78400  0.35300  Biso   1.000  H
  H31      1.0000 0.31600  0.71600  0.85300  Biso   1.000  H
  H32      1.0000 0.18400  0.21600  0.64700  Biso   1.000  H
  H33      1.0000 0.13100  0.42800  0.15700  Biso   1.000  H
  H34      1.0000 0.36900  0.92800  0.34300  Biso   1.000  H
  H35      1.0000 0.86900  0.57200  0.84300  Biso   1.000  H
  H36      1.0000 0.63100  0.07200  0.65700  Biso   1.000  H
  H37      1.0000 0.12800  0.32100  0.16400  Biso   1.000  H
  H38      1.0000 0.37200  0.82100  0.33600  Biso   1.000  H
  H39      1.0000 0.87200  0.67900  0.83600  Biso   1.000  H
  H40      1.0000 0.62800  0.17900  0.66400  Biso   1.000  H
  H41      1.0000 0.07900  0.41900  0.01300  Biso   1.000  H
  H42      1.0000 0.42100  0.91900  0.48700  Biso   1.000  H
  H43      1.0000 0.92100  0.58100  0.98700  Biso   1.000  H
  H44      1.0000 0.57900  0.08100  0.51300  Biso   1.000  H
  H45      1.0000 0.95600  0.34500  0.03000  Biso   1.000  H
  H46      1.0000 0.54400  0.84500  0.47000  Biso   1.000  H
  H47      1.0000 0.04400  0.65500  0.97000  Biso   1.000  H
  H48      1.0000 0.45600  0.15500  0.53000  Biso   1.000  H
  H49      1.0000 0.11100  0.28300  0.92300  Biso   1.000  H
  H50      1.0000 0.38900  0.78300  0.57700  Biso   1.000  H
  H51      1.0000 0.88900  0.71700  0.07700  Biso   1.000  H
  H52      1.0000 0.61100  0.21700  0.42300  Biso   1.000  H
  H53      1.0000 0.14000  0.21800  0.02100  Biso   1.000  H
  H54      1.0000 0.36000  0.71800  0.47900  Biso   1.000  H
  H55      1.0000 0.86000  0.78200  0.97900  Biso   1.000  H
  H56      1.0000 0.64000  0.28200  0.52100  Biso   1.000  H
  H57      1.0000 0.40000  0.25400  0.99600  Biso   1.000  H
  H58      1.0000 0.10000  0.75400  0.50400  Biso   1.000  H
  H59      1.0000 0.60000  0.74600  0.00400  Biso   1.000  H
  H60      1.0000 0.90000  0.24600  0.49600  Biso   1.000  H
  H61      1.0000 0.34100  0.35200  0.98000  Biso   1.000  H
  H62      1.0000 0.15900  0.85200  0.52000  Biso   1.000  H
  H63      1.0000 0.65900  0.64800  0.02000  Biso   1.000  H
  H64      1.0000 0.84100  0.14800  0.48000  Biso   1.000  H
  H65      1.0000 0.99000  0.50900  0.34900  Biso   1.000  H
  H66      1.0000 0.51000  0.00900  0.15100  Biso   1.000  H
  H67      1.0000 0.01000  0.49100  0.65100  Biso   1.000  H
  H68      1.0000 0.49000  0.99100  0.84900  Biso   1.000  H
  H69      1.0000 0.85500  0.60100  0.31100  Biso   1.000  H
  H70      1.0000 0.64500  0.10100  0.18900  Biso   1.000  H
  H71      1.0000 0.14500  0.39900  0.68900  Biso   1.000  H
  H72      1.0000 0.35500  0.89900  0.81100  Biso   1.000  H
  H73      1.0000 0.01500  0.60800  0.40100  Biso   1.000  H
  H74      1.0000 0.48500  0.10800  0.09900  Biso   1.000  H
  H75      1.0000 0.98500  0.39200  0.59900  Biso   1.000  H
  H76      1.0000 0.51500  0.89200  0.90100  Biso   1.000  H
  H77      1.0000 0.13000  0.93000  0.96800  Biso   1.000  H
  H78      1.0000 0.37000  0.43000  0.53200  Biso   1.000  H
  H79      1.0000 0.87000  0.07000  0.03200  Biso   1.000  H
  H80      1.0000 0.63000  0.57000  0.46800  Biso   1.000  H
  H81      1.0000 0.32000  0.98700  0.99100  Biso   1.000  H
  H82      1.0000 0.18000  0.48700  0.50900  Biso   1.000  H
  H83      1.0000 0.68000  0.01300  0.00900  Biso   1.000  H
  H84      1.0000 0.82000  0.51300  0.49100  Biso   1.000  H
  H85      1.0000 0.17900  0.98600  0.05800  Biso   1.000  H
  H86      1.0000 0.32100  0.48600  0.44200  Biso   1.000  H
  H87      1.0000 0.82100  0.01400  0.94200  Biso   1.000  H
  H88      1.0000 0.67900  0.51400  0.55800  Biso   1.000  H
