data_image0
_cell_length_a       9.784
_cell_length_b       11.978
_cell_length_c       16.428
_cell_angle_alpha    90
_cell_angle_beta     105.278
_cell_angle_gamma    90

_symmetry_space_group_name_H-M    "P 1"
_symmetry_int_tables_number       1

loop_
  _symmetry_equiv_pos_as_xyz
  'x, y, z'

loop_
  _atom_site_label
  _atom_site_occupancy
  _atom_site_fract_x
  _atom_site_fract_y
  _atom_site_fract_z
  _atom_site_thermal_displace_type
  _atom_site_B_iso_or_equiv
  _atom_site_type_symbol
  Cd1      1.0000 0.56445  0.71400  0.32157  Biso   1.000  Cd
  Cd2      1.0000 0.93555  0.21400  0.17843  Biso   1.000  Cd
  Cd3      1.0000 0.43555  0.28600  0.67843  Biso   1.000  Cd
  Cd4      1.0000 0.06445  0.78600  0.82157  Biso   1.000  Cd
  Cu1      1.0000 0.99093  0.83985  0.24220  Biso   1.000  Cu
  Cu2      1.0000 0.50907  0.33985  0.25780  Biso   1.000  Cu
  Cu3      1.0000 0.00907  0.16015  0.75780  Biso   1.000  Cu
  Cu4      1.0000 0.49093  0.66015  0.74220  Biso   1.000  Cu
  I1       1.0000 0.59577  0.93043  0.38359  Biso   1.000  I
  I2       1.0000 0.90423  0.43043  0.11641  Biso   1.000  I
  I3       1.0000 0.40423  0.06957  0.61641  Biso   1.000  I
  I4       1.0000 0.09577  0.56957  0.88359  Biso   1.000  I
  I5       1.0000 0.85230  0.63270  0.34680  Biso   1.000  I
  I6       1.0000 0.64770  0.13270  0.15320  Biso   1.000  I
  I7       1.0000 0.14770  0.36730  0.65320  Biso   1.000  I
  I8       1.0000 0.35230  0.86730  0.84680  Biso   1.000  I
  I9       1.0000 0.37870  0.56533  0.36120  Biso   1.000  I
  I10      1.0000 0.12130  0.06533  0.13880  Biso   1.000  I
  I11      1.0000 0.62130  0.43467  0.63880  Biso   1.000  I
  I12      1.0000 0.87870  0.93467  0.86120  Biso   1.000  I
  O1       1.0000 0.55370  0.71470  0.18230  Biso   1.000  O
  O2       1.0000 0.94630  0.21470  0.31770  Biso   1.000  O
  O3       1.0000 0.44630  0.28530  0.81770  Biso   1.000  O
  O4       1.0000 0.05370  0.78530  0.68230  Biso   1.000  O
  O5       1.0000 0.34610  0.76270  0.19580  Biso   1.000  O
  O6       1.0000 0.15390  0.26270  0.30420  Biso   1.000  O
  O7       1.0000 0.65390  0.23730  0.80420  Biso   1.000  O
  O8       1.0000 0.84610  0.73730  0.69580  Biso   1.000  O
  C1       1.0000 0.42980  0.74700  0.15010  Biso   1.000  C
  C2       1.0000 0.07020  0.24700  0.34990  Biso   1.000  C
  C3       1.0000 0.57020  0.25300  0.84990  Biso   1.000  C
  C4       1.0000 0.92980  0.75300  0.65010  Biso   1.000  C
  C5       1.0000 0.37910  0.76250  0.05620  Biso   1.000  C
  C6       1.0000 0.12090  0.26250  0.44380  Biso   1.000  C
  C7       1.0000 0.62090  0.23750  0.94380  Biso   1.000  C
  C8       1.0000 0.87910  0.73750  0.55620  Biso   1.000  C
  O9       1.0000 0.74120  0.59400  0.36340  Biso   1.000  O
  O10      1.0000 0.75880  0.09400  0.13660  Biso   1.000  O
  O11      1.0000 0.25880  0.40600  0.63660  Biso   1.000  O
  O12      1.0000 0.24120  0.90600  0.86340  Biso   1.000  O
  O13      1.0000 0.86390  0.72350  0.31800  Biso   1.000  O
  O14      1.0000 0.63610  0.22350  0.18200  Biso   1.000  O
  O15      1.0000 0.13610  0.27650  0.68200  Biso   1.000  O
  O16      1.0000 0.36390  0.77650  0.81800  Biso   1.000  O
  C9       1.0000 0.85800  0.64200  0.33700  Biso   1.000  C
  C10      1.0000 0.64200  0.14200  0.16300  Biso   1.000  C
  C11      1.0000 0.14200  0.35800  0.66300  Biso   1.000  C
  C12      1.0000 0.35800  0.85800  0.83700  Biso   1.000  C
  C13      1.0000 0.98210  0.55500  0.36850  Biso   1.000  C
  C14      1.0000 0.51790  0.05500  0.13150  Biso   1.000  C
  C15      1.0000 0.01790  0.44500  0.63150  Biso   1.000  C
  C16      1.0000 0.48210  0.94500  0.86850  Biso   1.000  C
  O17      1.0000 0.44740  0.52250  0.32330  Biso   1.000  O
  O18      1.0000 0.05260  0.02250  0.17670  Biso   1.000  O
  O19      1.0000 0.55260  0.47750  0.67670  Biso   1.000  O
  O20      1.0000 0.94740  0.97750  0.82330  Biso   1.000  O
  O21      1.0000 0.40550  0.66350  0.39510  Biso   1.000  O
  O22      1.0000 0.09450  0.16350  0.10490  Biso   1.000  O
  O23      1.0000 0.59450  0.33650  0.60490  Biso   1.000  O
  O24      1.0000 0.90550  0.83650  0.89510  Biso   1.000  O
  C17      1.0000 0.40000  0.56160  0.38090  Biso   1.000  C
  C18      1.0000 0.10000  0.06160  0.11910  Biso   1.000  C
  C19      1.0000 0.60000  0.43840  0.61910  Biso   1.000  C
  C20      1.0000 0.90000  0.93840  0.88090  Biso   1.000  C
  C21      1.0000 0.31500  0.48940  0.42270  Biso   1.000  C
  C22      1.0000 0.18500  0.98940  0.07730  Biso   1.000  C
  C23      1.0000 0.68500  0.51060  0.57730  Biso   1.000  C
  C24      1.0000 0.81500  0.01060  0.92270  Biso   1.000  C
  N1       1.0000 0.80550  0.84730  0.15220  Biso   1.000  N
  N2       1.0000 0.69450  0.34730  0.34780  Biso   1.000  N
  N3       1.0000 0.19450  0.15270  0.84780  Biso   1.000  N
  N4       1.0000 0.30550  0.65270  0.65220  Biso   1.000  N
  C25      1.0000 0.80730  0.76440  0.08420  Biso   1.000  C
  C26      1.0000 0.69270  0.26440  0.41580  Biso   1.000  C
  C27      1.0000 0.19270  0.23560  0.91580  Biso   1.000  C
  C28      1.0000 0.30730  0.73560  0.58420  Biso   1.000  C
  C29      1.0000 0.95630  0.74590  0.07970  Biso   1.000  C
  C30      1.0000 0.54370  0.24590  0.42030  Biso   1.000  C
  C31      1.0000 0.04370  0.25410  0.92030  Biso   1.000  C
  C32      1.0000 0.45630  0.75410  0.57970  Biso   1.000  C
  N5       1.0000 0.04600  0.72700  0.16580  Biso   1.000  N
  N6       1.0000 0.45400  0.22700  0.33420  Biso   1.000  N
  N7       1.0000 0.95400  0.27300  0.83420  Biso   1.000  N
  N8       1.0000 0.54600  0.77300  0.66580  Biso   1.000  N
  N9       1.0000 0.94040  0.94860  0.32150  Biso   1.000  N
  N10      1.0000 0.55960  0.44860  0.17850  Biso   1.000  N
  N11      1.0000 0.05960  0.05140  0.67850  Biso   1.000  N
  N12      1.0000 0.44040  0.55140  0.82150  Biso   1.000  N
  C33      1.0000 0.05260  0.94860  0.39980  Biso   1.000  C
  C34      1.0000 0.44740  0.44860  0.10020  Biso   1.000  C
  C35      1.0000 0.94740  0.05140  0.60020  Biso   1.000  C
  C36      1.0000 0.55260  0.55140  0.89980  Biso   1.000  C
  C37      1.0000 0.19170  0.94400  0.38150  Biso   1.000  C
  C38      1.0000 0.30830  0.44400  0.11850  Biso   1.000  C
  C39      1.0000 0.80830  0.05600  0.61850  Biso   1.000  C
  C40      1.0000 0.69170  0.55600  0.88150  Biso   1.000  C
  N13      1.0000 0.18680  0.84980  0.31900  Biso   1.000  N
  N14      1.0000 0.31320  0.34980  0.18100  Biso   1.000  N
  N15      1.0000 0.81320  0.15020  0.68100  Biso   1.000  N
  N16      1.0000 0.68680  0.65020  0.81900  Biso   1.000  N
  H1       1.0000 0.45759  0.77441  0.03193  Biso   1.000  H
  H2       1.0000 0.04241  0.27441  0.46807  Biso   1.000  H
  H3       1.0000 0.54241  0.22559  0.96807  Biso   1.000  H
  H4       1.0000 0.95759  0.72559  0.53193  Biso   1.000  H
  H5       1.0000 0.31539  0.82294  0.04111  Biso   1.000  H
  H6       1.0000 0.18461  0.32294  0.45889  Biso   1.000  H
  H7       1.0000 0.68461  0.17706  0.95889  Biso   1.000  H
  H8       1.0000 0.81539  0.67706  0.54111  Biso   1.000  H
  H9       1.0000 0.33101  0.69592  0.03048  Biso   1.000  H
  H10      1.0000 0.16899  0.19592  0.46952  Biso   1.000  H
  H11      1.0000 0.66899  0.30408  0.96952  Biso   1.000  H
  H12      1.0000 0.83101  0.80408  0.53048  Biso   1.000  H
  H13      1.0000 0.97174  0.49252  0.32893  Biso   1.000  H
  H14      1.0000 0.52826  0.99252  0.17107  Biso   1.000  H
  H15      1.0000 0.02826  0.50748  0.67107  Biso   1.000  H
  H16      1.0000 0.47174  0.00748  0.82893  Biso   1.000  H
  H17      1.0000 0.98310  0.52505  0.42188  Biso   1.000  H
  H18      1.0000 0.51690  0.02505  0.07812  Biso   1.000  H
  H19      1.0000 0.01690  0.47495  0.57812  Biso   1.000  H
  H20      1.0000 0.48310  0.97495  0.92188  Biso   1.000  H
  H21      1.0000 0.06597  0.59469  0.37068  Biso   1.000  H
  H22      1.0000 0.43403  0.09469  0.12932  Biso   1.000  H
  H23      1.0000 0.93403  0.40531  0.62932  Biso   1.000  H
  H24      1.0000 0.56597  0.90531  0.87068  Biso   1.000  H
  H25      1.0000 0.28034  0.53317  0.46499  Biso   1.000  H
  H26      1.0000 0.21966  0.03317  0.03501  Biso   1.000  H
  H27      1.0000 0.71966  0.46683  0.53501  Biso   1.000  H
  H28      1.0000 0.78034  0.96683  0.96499  Biso   1.000  H
  H29      1.0000 0.36848  0.42915  0.45431  Biso   1.000  H
  H30      1.0000 0.13152  0.92915  0.04569  Biso   1.000  H
  H31      1.0000 0.63152  0.57085  0.54569  Biso   1.000  H
  H32      1.0000 0.86848  0.07085  0.95431  Biso   1.000  H
  H33      1.0000 0.23593  0.46097  0.38404  Biso   1.000  H
  H34      1.0000 0.26407  0.96097  0.11596  Biso   1.000  H
  H35      1.0000 0.76407  0.53903  0.61596  Biso   1.000  H
  H36      1.0000 0.73593  0.03903  0.88404  Biso   1.000  H
  H37      1.0000 0.79191  0.91816  0.12909  Biso   1.000  H
  H38      1.0000 0.70809  0.41816  0.37091  Biso   1.000  H
  H39      1.0000 0.20809  0.08184  0.87091  Biso   1.000  H
  H40      1.0000 0.29191  0.58184  0.62909  Biso   1.000  H
  H41      1.0000 0.73109  0.83080  0.17509  Biso   1.000  H
  H42      1.0000 0.76891  0.33080  0.32491  Biso   1.000  H
  H43      1.0000 0.26891  0.16920  0.82491  Biso   1.000  H
  H44      1.0000 0.23109  0.66920  0.67509  Biso   1.000  H
  H45      1.0000 0.75141  0.79284  0.03146  Biso   1.000  H
  H46      1.0000 0.74859  0.29284  0.46854  Biso   1.000  H
  H47      1.0000 0.24859  0.20716  0.96854  Biso   1.000  H
  H48      1.0000 0.25141  0.70716  0.53146  Biso   1.000  H
  H49      1.0000 0.76802  0.69635  0.09633  Biso   1.000  H
  H50      1.0000 0.73198  0.19635  0.40367  Biso   1.000  H
  H51      1.0000 0.23198  0.30365  0.90367  Biso   1.000  H
  H52      1.0000 0.26802  0.80365  0.59633  Biso   1.000  H
  H53      1.0000 0.98957  0.81068  0.05583  Biso   1.000  H
  H54      1.0000 0.51043  0.31068  0.44417  Biso   1.000  H
  H55      1.0000 0.01043  0.18932  0.94417  Biso   1.000  H
  H56      1.0000 0.48957  0.68932  0.55583  Biso   1.000  H
  H57      1.0000 0.96058  0.68351  0.04478  Biso   1.000  H
  H58      1.0000 0.53942  0.18351  0.45522  Biso   1.000  H
  H59      1.0000 0.03942  0.31649  0.95522  Biso   1.000  H
  H60      1.0000 0.46058  0.81649  0.54478  Biso   1.000  H
  H61      1.0000 0.03209  0.65584  0.18322  Biso   1.000  H
  H62      1.0000 0.46791  0.15584  0.31678  Biso   1.000  H
  H63      1.0000 0.96791  0.34416  0.81678  Biso   1.000  H
  H64      1.0000 0.53209  0.84416  0.68322  Biso   1.000  H
  H65      1.0000 0.14080  0.73562  0.16744  Biso   1.000  H
  H66      1.0000 0.35920  0.23562  0.33256  Biso   1.000  H
  H67      1.0000 0.85920  0.26438  0.83256  Biso   1.000  H
  H68      1.0000 0.64080  0.76438  0.66744  Biso   1.000  H
  H69      1.0000 0.85474  0.93170  0.33172  Biso   1.000  H
  H70      1.0000 0.64526  0.43170  0.16828  Biso   1.000  H
  H71      1.0000 0.14526  0.06830  0.66828  Biso   1.000  H
  H72      1.0000 0.35474  0.56830  0.83172  Biso   1.000  H
  H73      1.0000 0.93268  0.02144  0.29837  Biso   1.000  H
  H74      1.0000 0.56732  0.52144  0.20163  Biso   1.000  H
  H75      1.0000 0.06732  0.97856  0.70163  Biso   1.000  H
  H76      1.0000 0.43268  0.47856  0.79837  Biso   1.000  H
  H77      1.0000 0.04195  0.88365  0.43108  Biso   1.000  H
  H78      1.0000 0.45805  0.38365  0.06892  Biso   1.000  H
  H79      1.0000 0.95805  0.11635  0.56892  Biso   1.000  H
  H80      1.0000 0.54195  0.61635  0.93108  Biso   1.000  H
  H81      1.0000 0.04572  0.01313  0.43224  Biso   1.000  H
  H82      1.0000 0.45428  0.51313  0.06776  Biso   1.000  H
  H83      1.0000 0.95428  0.98687  0.56776  Biso   1.000  H
  H84      1.0000 0.54572  0.48687  0.93224  Biso   1.000  H
  H85      1.0000 0.26465  0.93471  0.43115  Biso   1.000  H
  H86      1.0000 0.23535  0.43471  0.06885  Biso   1.000  H
  H87      1.0000 0.73535  0.06529  0.56885  Biso   1.000  H
  H88      1.0000 0.76465  0.56529  0.93115  Biso   1.000  H
  H89      1.0000 0.20751  0.01486  0.35566  Biso   1.000  H
  H90      1.0000 0.29249  0.51486  0.14434  Biso   1.000  H
  H91      1.0000 0.79249  0.98514  0.64434  Biso   1.000  H
  H92      1.0000 0.70751  0.48514  0.85566  Biso   1.000  H
  H93      1.0000 0.25256  0.86282  0.28809  Biso   1.000  H
  H94      1.0000 0.24744  0.36282  0.21191  Biso   1.000  H
  H95      1.0000 0.74744  0.13718  0.71191  Biso   1.000  H
  H96      1.0000 0.75256  0.63718  0.78809  Biso   1.000  H
  H97      1.0000 0.21142  0.78391  0.34867  Biso   1.000  H
  H98      1.0000 0.28858  0.28391  0.15133  Biso   1.000  H
  H99      1.0000 0.78858  0.21609  0.65133  Biso   1.000  H
  H100     1.0000 0.71142  0.71609  0.84867  Biso   1.000  H
