data_image0
_cell_length_a       12.336
_cell_length_b       8.6381
_cell_length_c       16.824
_cell_angle_alpha    90
_cell_angle_beta     90
_cell_angle_gamma    90

_symmetry_space_group_name_H-M    "P 1"
_symmetry_int_tables_number       1

loop_
  _symmetry_equiv_pos_as_xyz
  'x, y, z'

loop_
  _atom_site_label
  _atom_site_occupancy
  _atom_site_fract_x
  _atom_site_fract_y
  _atom_site_fract_z
  _atom_site_thermal_displace_type
  _atom_site_B_iso_or_equiv
  _atom_site_type_symbol
  Cd1      1.0000 0.50000  0.75762  0.60000  Biso   1.000  Cd
  Cd2      1.0000 0.50000  0.24238  0.10000  Biso   1.000  Cd
  Cd3      1.0000 0.00000  0.71988  0.58326  Biso   1.000  Cd
  Cd4      1.0000 0.00000  0.28012  0.08326  Biso   1.000  Cd
  Cu1      1.0000 0.25012  0.54943  0.85954  Biso   1.000  Cu
  Cu2      1.0000 0.74988  0.45057  0.35954  Biso   1.000  Cu
  Cu3      1.0000 0.74988  0.54943  0.85954  Biso   1.000  Cu
  Cu4      1.0000 0.25012  0.45057  0.35954  Biso   1.000  Cu
  S1       1.0000 0.50000  0.53950  0.88410  Biso   1.000  S
  S2       1.0000 0.50000  0.46050  0.38410  Biso   1.000  S
  C1       1.0000 0.50000  0.61300  0.79500  Biso   1.000  C
  C2       1.0000 0.50000  0.38700  0.29500  Biso   1.000  C
  N1       1.0000 0.50000  0.66550  0.73130  Biso   1.000  N
  N2       1.0000 0.50000  0.33450  0.23130  Biso   1.000  N
  S3       1.0000 0.50000  0.96740  0.32280  Biso   1.000  S
  S4       1.0000 0.50000  0.03260  0.82280  Biso   1.000  S
  C3       1.0000 0.50000  0.89030  0.41140  Biso   1.000  C
  C4       1.0000 0.50000  0.10970  0.91140  Biso   1.000  C
  N3       1.0000 0.50000  0.83480  0.47410  Biso   1.000  N
  N4       1.0000 0.50000  0.16520  0.97410  Biso   1.000  N
  S5       1.0000 0.00000  0.99720  0.84470  Biso   1.000  S
  S6       1.0000 0.00000  0.00280  0.34470  Biso   1.000  S
  C5       1.0000 0.00000  0.90950  0.75790  Biso   1.000  C
  C6       1.0000 0.00000  0.09050  0.25790  Biso   1.000  C
  N5       1.0000 0.00000  0.84520  0.69750  Biso   1.000  N
  N6       1.0000 0.00000  0.15480  0.19750  Biso   1.000  N
  S7       1.0000 0.00000  0.44750  0.32280  Biso   1.000  S
  S8       1.0000 0.00000  0.55250  0.82280  Biso   1.000  S
  C7       1.0000 0.00000  0.55700  0.40000  Biso   1.000  C
  C8       1.0000 0.00000  0.44300  0.90000  Biso   1.000  C
  N7       1.0000 0.00000  0.63800  0.45700  Biso   1.000  N
  N8       1.0000 0.00000  0.36200  0.95700  Biso   1.000  N
  S9       1.0000 0.66400  0.93430  0.64933  Biso   1.000  S
  S10      1.0000 0.33600  0.06570  0.14933  Biso   1.000  S
  S11      1.0000 0.33600  0.93430  0.64933  Biso   1.000  S
  S12      1.0000 0.66400  0.06570  0.14933  Biso   1.000  S
  C9       1.0000 0.76120  0.86920  0.59060  Biso   1.000  C
  C10      1.0000 0.23880  0.13080  0.09060  Biso   1.000  C
  C11      1.0000 0.23880  0.86920  0.59060  Biso   1.000  C
  C12      1.0000 0.76120  0.13080  0.09060  Biso   1.000  C
  N9       1.0000 0.83300  0.83020  0.55120  Biso   1.000  N
  N10      1.0000 0.16700  0.16980  0.05120  Biso   1.000  N
  N11      1.0000 0.16700  0.83020  0.55120  Biso   1.000  N
  N12      1.0000 0.83300  0.16980  0.05120  Biso   1.000  N
  N13      1.0000 0.22980  0.59450  0.97610  Biso   1.000  N
  N14      1.0000 0.77020  0.40550  0.47610  Biso   1.000  N
  N15      1.0000 0.77020  0.59450  0.97610  Biso   1.000  N
  N16      1.0000 0.22980  0.40550  0.47610  Biso   1.000  N
  C13      1.0000 0.20390  0.76040  0.98500  Biso   1.000  C
  C14      1.0000 0.79610  0.23960  0.48500  Biso   1.000  C
  C15      1.0000 0.79610  0.76040  0.98500  Biso   1.000  C
  C16      1.0000 0.20390  0.23960  0.48500  Biso   1.000  C
  C17      1.0000 0.26930  0.85070  0.92560  Biso   1.000  C
  C18      1.0000 0.73070  0.14930  0.42560  Biso   1.000  C
  C19      1.0000 0.73070  0.85070  0.92560  Biso   1.000  C
  C20      1.0000 0.26930  0.14930  0.42560  Biso   1.000  C
  N17      1.0000 0.25230  0.78110  0.84590  Biso   1.000  N
  N18      1.0000 0.74770  0.21890  0.34590  Biso   1.000  N
  N19      1.0000 0.74770  0.78110  0.84590  Biso   1.000  N
  N20      1.0000 0.25230  0.21890  0.34590  Biso   1.000  N
  N21      1.0000 0.25410  0.31870  0.87540  Biso   1.000  N
  N22      1.0000 0.74590  0.68130  0.37540  Biso   1.000  N
  N23      1.0000 0.74590  0.31870  0.87540  Biso   1.000  N
  N24      1.0000 0.25410  0.68130  0.37540  Biso   1.000  N
  C21      1.0000 0.23620  0.24480  0.79700  Biso   1.000  C
  C22      1.0000 0.76380  0.75520  0.29700  Biso   1.000  C
  C23      1.0000 0.76380  0.24480  0.79700  Biso   1.000  C
  C24      1.0000 0.23620  0.75520  0.29700  Biso   1.000  C
  C25      1.0000 0.29610  0.33590  0.73510  Biso   1.000  C
  C26      1.0000 0.70390  0.66410  0.23510  Biso   1.000  C
  C27      1.0000 0.70390  0.33590  0.73510  Biso   1.000  C
  C28      1.0000 0.29610  0.66410  0.23510  Biso   1.000  C
  N25      1.0000 0.26530  0.50000  0.74280  Biso   1.000  N
  N26      1.0000 0.73470  0.50000  0.24280  Biso   1.000  N
  N27      1.0000 0.73470  0.50000  0.74280  Biso   1.000  N
  N28      1.0000 0.26530  0.50000  0.24280  Biso   1.000  N
  O1       1.0000 0.91010  0.48510  0.61990  Biso   1.000  O
  O2       1.0000 0.08990  0.51490  0.11990  Biso   1.000  O
  O3       1.0000 0.08990  0.48510  0.61990  Biso   1.000  O
  O4       1.0000 0.91010  0.51490  0.11990  Biso   1.000  O
  C29      1.0000 0.00000  0.41390  0.62780  Biso   1.000  C
  C30      1.0000 0.00000  0.58610  0.12780  Biso   1.000  C
  C31      1.0000 0.00000  0.24720  0.64800  Biso   1.000  C
  C32      1.0000 0.00000  0.75280  0.14800  Biso   1.000  C
  O5       1.0000 0.58940  0.51890  0.57770  Biso   1.000  O
  O6       1.0000 0.41060  0.48110  0.07770  Biso   1.000  O
  O7       1.0000 0.41060  0.51890  0.57770  Biso   1.000  O
  O8       1.0000 0.58940  0.48110  0.07770  Biso   1.000  O
  C33      1.0000 0.50000  0.44760  0.57640  Biso   1.000  C
  C34      1.0000 0.50000  0.55240  0.07640  Biso   1.000  C
  C35      1.0000 0.50000  0.27420  0.57480  Biso   1.000  C
  C36      1.0000 0.50000  0.72580  0.07480  Biso   1.000  C
  H1       1.0000 0.12812  0.77640  0.97574  Biso   1.000  H
  H2       1.0000 0.87188  0.22360  0.47574  Biso   1.000  H
  H3       1.0000 0.87188  0.77640  0.97574  Biso   1.000  H
  H4       1.0000 0.12812  0.22360  0.47574  Biso   1.000  H
  H5       1.0000 0.22045  0.79403  0.03769  Biso   1.000  H
  H6       1.0000 0.77955  0.20597  0.53769  Biso   1.000  H
  H7       1.0000 0.77955  0.79403  0.03769  Biso   1.000  H
  H8       1.0000 0.22045  0.20597  0.53769  Biso   1.000  H
  H9       1.0000 0.24777  0.95676  0.92436  Biso   1.000  H
  H10      1.0000 0.75223  0.04324  0.42436  Biso   1.000  H
  H11      1.0000 0.75223  0.95676  0.92436  Biso   1.000  H
  H12      1.0000 0.24777  0.04324  0.42436  Biso   1.000  H
  H13      1.0000 0.34492  0.84601  0.93832  Biso   1.000  H
  H14      1.0000 0.65508  0.15399  0.43832  Biso   1.000  H
  H15      1.0000 0.65508  0.84601  0.93832  Biso   1.000  H
  H16      1.0000 0.34492  0.15399  0.43832  Biso   1.000  H
  H17      1.0000 0.26128  0.13991  0.79833  Biso   1.000  H
  H18      1.0000 0.73872  0.86009  0.29833  Biso   1.000  H
  H19      1.0000 0.73872  0.13991  0.79833  Biso   1.000  H
  H20      1.0000 0.26128  0.86009  0.29833  Biso   1.000  H
  H21      1.0000 0.16039  0.24407  0.78527  Biso   1.000  H
  H22      1.0000 0.83961  0.75593  0.28527  Biso   1.000  H
  H23      1.0000 0.83961  0.24407  0.78527  Biso   1.000  H
  H24      1.0000 0.16039  0.75593  0.28527  Biso   1.000  H
  H25      1.0000 0.37295  0.32512  0.74380  Biso   1.000  H
  H26      1.0000 0.62705  0.67488  0.24380  Biso   1.000  H
  H27      1.0000 0.62705  0.32512  0.74380  Biso   1.000  H
  H28      1.0000 0.37295  0.67488  0.24380  Biso   1.000  H
  H29      1.0000 0.27936  0.29904  0.68368  Biso   1.000  H
  H30      1.0000 0.72064  0.70096  0.18368  Biso   1.000  H
  H31      1.0000 0.72064  0.29904  0.68368  Biso   1.000  H
  H32      1.0000 0.27936  0.70096  0.18368  Biso   1.000  H
  H33      1.0000 0.17428  0.53479  0.99636  Biso   1.000  H
  H34      1.0000 0.82572  0.46521  0.49636  Biso   1.000  H
  H35      1.0000 0.82572  0.53479  0.99636  Biso   1.000  H
  H36      1.0000 0.17428  0.46521  0.49636  Biso   1.000  H
  H37      1.0000 0.29282  0.57216  0.00357  Biso   1.000  H
  H38      1.0000 0.70718  0.42784  0.50357  Biso   1.000  H
  H39      1.0000 0.70718  0.57216  0.00357  Biso   1.000  H
  H40      1.0000 0.29282  0.42784  0.50357  Biso   1.000  H
  H41      1.0000 0.30733  0.80943  0.81200  Biso   1.000  H
  H42      1.0000 0.69267  0.19057  0.31200  Biso   1.000  H
  H43      1.0000 0.69267  0.80943  0.81200  Biso   1.000  H
  H44      1.0000 0.30733  0.19057  0.31200  Biso   1.000  H
  H45      1.0000 0.18701  0.81470  0.82554  Biso   1.000  H
  H46      1.0000 0.81299  0.18530  0.32554  Biso   1.000  H
  H47      1.0000 0.81299  0.81470  0.82554  Biso   1.000  H
  H48      1.0000 0.18701  0.18530  0.32554  Biso   1.000  H
  H49      1.0000 0.32083  0.28873  0.89537  Biso   1.000  H
  H50      1.0000 0.67917  0.71127  0.39537  Biso   1.000  H
  H51      1.0000 0.67917  0.28873  0.89537  Biso   1.000  H
  H52      1.0000 0.32083  0.71127  0.39537  Biso   1.000  H
  H53      1.0000 0.20087  0.28838  0.91080  Biso   1.000  H
  H54      1.0000 0.79913  0.71162  0.41080  Biso   1.000  H
  H55      1.0000 0.79913  0.28838  0.91080  Biso   1.000  H
  H56      1.0000 0.20087  0.71162  0.41080  Biso   1.000  H
  H57      1.0000 0.20036  0.51777  0.71757  Biso   1.000  H
  H58      1.0000 0.79964  0.48223  0.21757  Biso   1.000  H
  H59      1.0000 0.79964  0.51777  0.71757  Biso   1.000  H
  H60      1.0000 0.20036  0.48223  0.21757  Biso   1.000  H
  H61      1.0000 0.31781  0.56329  0.72088  Biso   1.000  H
  H62      1.0000 0.68219  0.43671  0.22088  Biso   1.000  H
  H63      1.0000 0.68219  0.56329  0.72088  Biso   1.000  H
  H64      1.0000 0.31781  0.43671  0.22088  Biso   1.000  H
  H65      1.0000 0.00000  0.23090  0.70150  Biso   1.000  H
  H66      1.0000 0.00000  0.76910  0.20150  Biso   1.000  H
  H67      1.0000 0.93712  0.19951  0.62564  Biso   1.000  H
  H68      1.0000 0.06288  0.80049  0.12564  Biso   1.000  H
  H69      1.0000 0.06288  0.19951  0.62564  Biso   1.000  H
  H70      1.0000 0.93712  0.80049  0.12564  Biso   1.000  H
  H71      1.0000 0.50000  0.23676  0.62887  Biso   1.000  H
  H72      1.0000 0.50000  0.76324  0.12887  Biso   1.000  H
  H73      1.0000 0.43712  0.23376  0.55010  Biso   1.000  H
  H74      1.0000 0.56288  0.76624  0.05010  Biso   1.000  H
  H75      1.0000 0.56288  0.23376  0.55010  Biso   1.000  H
  H76      1.0000 0.43712  0.76624  0.05010  Biso   1.000  H
