data_image0
_cell_length_a       10.0515
_cell_length_b       10.0515
_cell_length_c       14.906
_cell_angle_alpha    90
_cell_angle_beta     90
_cell_angle_gamma    90

_symmetry_space_group_name_H-M    "P 1"
_symmetry_int_tables_number       1

loop_
  _symmetry_equiv_pos_as_xyz
  'x, y, z'

loop_
  _atom_site_label
  _atom_site_occupancy
  _atom_site_fract_x
  _atom_site_fract_y
  _atom_site_fract_z
  _atom_site_thermal_displace_type
  _atom_site_B_iso_or_equiv
  _atom_site_type_symbol
  O1       1.0000 0.98590  0.96420  0.07848  Biso   1.000  O
  O2       1.0000 0.01410  0.03580  0.57848  Biso   1.000  O
  O3       1.0000 0.03580  0.98590  0.82848  Biso   1.000  O
  O4       1.0000 0.96420  0.01410  0.32848  Biso   1.000  O
  H1       1.0000 0.92720  0.96800  0.03790  Biso   1.000  H
  H2       1.0000 0.07280  0.03200  0.53790  Biso   1.000  H
  H3       1.0000 0.03200  0.92720  0.78790  Biso   1.000  H
  H4       1.0000 0.96800  0.07280  0.28790  Biso   1.000  H
  H5       1.0000 0.98340  0.03720  0.10640  Biso   1.000  H
  H6       1.0000 0.01660  0.96280  0.60640  Biso   1.000  H
  H7       1.0000 0.96280  0.98340  0.85640  Biso   1.000  H
  H8       1.0000 0.03720  0.01660  0.35640  Biso   1.000  H
  C1       1.0000 0.05260  0.44570  0.42120  Biso   1.000  C
  C2       1.0000 0.94740  0.55430  0.92120  Biso   1.000  C
  C3       1.0000 0.55430  0.05260  0.17120  Biso   1.000  C
  C4       1.0000 0.44570  0.94740  0.67120  Biso   1.000  C
  C5       1.0000 0.06340  0.30840  0.17600  Biso   1.000  C
  C6       1.0000 0.93660  0.69160  0.67600  Biso   1.000  C
  C7       1.0000 0.69160  0.06340  0.92600  Biso   1.000  C
  C8       1.0000 0.30840  0.93660  0.42600  Biso   1.000  C
  C9       1.0000 0.17340  0.32920  0.10921  Biso   1.000  C
  C10      1.0000 0.82660  0.67080  0.60921  Biso   1.000  C
  C11      1.0000 0.67080  0.17340  0.85921  Biso   1.000  C
  C12      1.0000 0.32920  0.82660  0.35921  Biso   1.000  C
  C13      1.0000 0.23660  0.22720  0.06348  Biso   1.000  C
  C14      1.0000 0.76340  0.77280  0.56348  Biso   1.000  C
  C15      1.0000 0.77280  0.23660  0.81348  Biso   1.000  C
  C16      1.0000 0.22720  0.76340  0.31348  Biso   1.000  C
  H9       1.0000 0.20730  0.13820  0.07180  Biso   1.000  H
  H10      1.0000 0.79270  0.86180  0.57180  Biso   1.000  H
  H11      1.0000 0.86180  0.20730  0.82180  Biso   1.000  H
  H12      1.0000 0.13820  0.79270  0.32180  Biso   1.000  H
  C17      1.0000 0.37570  0.37880  0.99730  Biso   1.000  C
  C18      1.0000 0.62430  0.62120  0.49730  Biso   1.000  C
  C19      1.0000 0.62120  0.37570  0.74730  Biso   1.000  C
  C20      1.0000 0.37880  0.62430  0.24730  Biso   1.000  C
  H13      1.0000 0.45000  0.39860  0.96030  Biso   1.000  H
  H14      1.0000 0.55000  0.60140  0.46030  Biso   1.000  H
  H15      1.0000 0.60140  0.45000  0.71030  Biso   1.000  H
  H16      1.0000 0.39860  0.55000  0.21030  Biso   1.000  H
  C21      1.0000 0.30920  0.48190  0.03900  Biso   1.000  C
  C22      1.0000 0.69080  0.51810  0.53900  Biso   1.000  C
  C23      1.0000 0.51810  0.30920  0.78900  Biso   1.000  C
  C24      1.0000 0.48190  0.69080  0.28900  Biso   1.000  C
  H17      1.0000 0.33470  0.57130  0.02720  Biso   1.000  H
  H18      1.0000 0.66530  0.42870  0.52720  Biso   1.000  H
  H19      1.0000 0.42870  0.33470  0.77720  Biso   1.000  H
  H20      1.0000 0.57130  0.66530  0.27720  Biso   1.000  H
  C25      1.0000 0.04140  0.57690  0.45220  Biso   1.000  C
  C26      1.0000 0.95860  0.42310  0.95220  Biso   1.000  C
  C27      1.0000 0.42310  0.04140  0.20220  Biso   1.000  C
  C28      1.0000 0.57690  0.95860  0.70220  Biso   1.000  C
  H21      1.0000 0.96390  0.62670  0.43810  Biso   1.000  H
  H22      1.0000 0.03610  0.37330  0.93810  Biso   1.000  H
  H23      1.0000 0.37330  0.96390  0.18810  Biso   1.000  H
  H24      1.0000 0.62670  0.03610  0.68810  Biso   1.000  H
  C29      1.0000 0.14040  0.63520  0.50280  Biso   1.000  C
  C30      1.0000 0.85960  0.36480  0.00280  Biso   1.000  C
  C31      1.0000 0.36480  0.14040  0.25280  Biso   1.000  C
  C32      1.0000 0.63520  0.85960  0.75280  Biso   1.000  C
  H25      1.0000 0.12930  0.72340  0.52450  Biso   1.000  H
  H26      1.0000 0.87070  0.27660  0.02450  Biso   1.000  H
  H27      1.0000 0.27660  0.12930  0.27450  Biso   1.000  H
  H28      1.0000 0.72340  0.87070  0.77450  Biso   1.000  H
  C33      1.0000 0.25500  0.56610  0.52190  Biso   1.000  C
  C34      1.0000 0.74500  0.43390  0.02190  Biso   1.000  C
  C35      1.0000 0.43390  0.25500  0.27190  Biso   1.000  C
  C36      1.0000 0.56610  0.74500  0.77190  Biso   1.000  C
  H29      1.0000 0.32360  0.60660  0.55630  Biso   1.000  H
  H30      1.0000 0.67640  0.39340  0.05630  Biso   1.000  H
  H31      1.0000 0.39340  0.32360  0.30630  Biso   1.000  H
  H32      1.0000 0.60660  0.67640  0.80630  Biso   1.000  H
  C37      1.0000 0.26980  0.43740  0.49070  Biso   1.000  C
  C38      1.0000 0.73020  0.56260  0.99070  Biso   1.000  C
  C39      1.0000 0.56260  0.26980  0.24070  Biso   1.000  C
  C40      1.0000 0.43740  0.73020  0.74070  Biso   1.000  C
  H33      1.0000 0.34920  0.38970  0.50330  Biso   1.000  H
  H34      1.0000 0.65080  0.61030  0.00330  Biso   1.000  H
  H35      1.0000 0.61030  0.34920  0.25330  Biso   1.000  H
  H36      1.0000 0.38970  0.65080  0.75330  Biso   1.000  H
  C41      1.0000 0.16900  0.37700  0.44080  Biso   1.000  C
  C42      1.0000 0.83100  0.62300  0.94080  Biso   1.000  C
  C43      1.0000 0.62300  0.16900  0.19080  Biso   1.000  C
  C44      1.0000 0.37700  0.83100  0.69080  Biso   1.000  C
  H37      1.0000 0.18000  0.28840  0.42000  Biso   1.000  H
  H38      1.0000 0.82000  0.71160  0.92000  Biso   1.000  H
  H39      1.0000 0.71160  0.18000  0.17000  Biso   1.000  H
  H40      1.0000 0.28840  0.82000  0.67000  Biso   1.000  H
  C45      1.0000 0.94070  0.37920  0.37050  Biso   1.000  C
  C46      1.0000 0.05930  0.62080  0.87050  Biso   1.000  C
  C47      1.0000 0.62080  0.94070  0.12050  Biso   1.000  C
  C48      1.0000 0.37920  0.05930  0.62050  Biso   1.000  C
  H41      1.0000 0.85790  0.39000  0.40570  Biso   1.000  H
  H42      1.0000 0.14210  0.61000  0.90570  Biso   1.000  H
  H43      1.0000 0.61000  0.85790  0.15570  Biso   1.000  H
  H44      1.0000 0.39000  0.14210  0.65570  Biso   1.000  H
  H45      1.0000 0.96000  0.28270  0.36730  Biso   1.000  H
  H46      1.0000 0.04000  0.71730  0.86730  Biso   1.000  H
  H47      1.0000 0.71730  0.96000  0.11730  Biso   1.000  H
  H48      1.0000 0.28270  0.04000  0.61730  Biso   1.000  H
  C49      1.0000 0.91450  0.42980  0.27450  Biso   1.000  C
  C50      1.0000 0.08550  0.57020  0.77450  Biso   1.000  C
  C51      1.0000 0.57020  0.91450  0.02450  Biso   1.000  C
  C52      1.0000 0.42980  0.08550  0.52450  Biso   1.000  C
  H49      1.0000 0.83900  0.37500  0.25300  Biso   1.000  H
  H50      1.0000 0.16100  0.62500  0.75300  Biso   1.000  H
  H51      1.0000 0.62500  0.83900  0.00300  Biso   1.000  H
  H52      1.0000 0.37500  0.16100  0.50300  Biso   1.000  H
  C53      1.0000 0.87180  0.57710  0.27400  Biso   1.000  C
  C54      1.0000 0.12820  0.42290  0.77400  Biso   1.000  C
  C55      1.0000 0.42290  0.87180  0.02400  Biso   1.000  C
  C56      1.0000 0.57710  0.12820  0.52400  Biso   1.000  C
  Cu1      1.0000 0.09006  0.58474  0.16431  Biso   1.000  Cu
  Cu2      1.0000 0.90994  0.41526  0.66431  Biso   1.000  Cu
  Cu3      1.0000 0.41526  0.09006  0.91431  Biso   1.000  Cu
  Cu4      1.0000 0.58474  0.90994  0.41431  Biso   1.000  Cu
  N1       1.0000 0.21020  0.45730  0.09528  Biso   1.000  N
  N2       1.0000 0.78980  0.54270  0.59528  Biso   1.000  N
  N3       1.0000 0.54270  0.21020  0.84528  Biso   1.000  N
  N4       1.0000 0.45730  0.78980  0.34528  Biso   1.000  N
  N5       1.0000 0.33860  0.25190  0.00750  Biso   1.000  N
  N6       1.0000 0.66140  0.74810  0.50750  Biso   1.000  N
  N7       1.0000 0.74810  0.33860  0.75750  Biso   1.000  N
  N8       1.0000 0.25190  0.66140  0.25750  Biso   1.000  N
  N9       1.0000 0.02820  0.42040  0.21492  Biso   1.000  N
  N10      1.0000 0.97180  0.57960  0.71492  Biso   1.000  N
  N11      1.0000 0.57960  0.02820  0.96492  Biso   1.000  N
  N12      1.0000 0.42040  0.97180  0.46492  Biso   1.000  N
  O5       1.0000 0.01540  0.19284  0.18740  Biso   1.000  O
  O6       1.0000 0.98460  0.80716  0.68740  Biso   1.000  O
  O7       1.0000 0.80716  0.01540  0.93740  Biso   1.000  O
  O8       1.0000 0.19284  0.98460  0.43740  Biso   1.000  O
  O9       1.0000 0.77220  0.60890  0.31941  Biso   1.000  O
  O10      1.0000 0.22780  0.39110  0.81941  Biso   1.000  O
  O11      1.0000 0.39110  0.77220  0.06941  Biso   1.000  O
  O12      1.0000 0.60890  0.22780  0.56941  Biso   1.000  O
  O13      1.0000 0.94050  0.66070  0.22880  Biso   1.000  O
  O14      1.0000 0.05950  0.33930  0.72880  Biso   1.000  O
  O15      1.0000 0.33930  0.94050  0.97880  Biso   1.000  O
  O16      1.0000 0.66070  0.05950  0.47880  Biso   1.000  O
  O17      1.0000 0.12230  0.73710  0.08553  Biso   1.000  O
  O18      1.0000 0.87770  0.26290  0.58553  Biso   1.000  O
  O19      1.0000 0.26290  0.12230  0.83553  Biso   1.000  O
  O20      1.0000 0.73710  0.87770  0.33553  Biso   1.000  O
  H53      1.0000 0.20050  0.76450  0.08020  Biso   1.000  H
  H54      1.0000 0.79950  0.23550  0.58020  Biso   1.000  H
  H55      1.0000 0.23550  0.20050  0.83020  Biso   1.000  H
  H56      1.0000 0.76450  0.79950  0.33020  Biso   1.000  H
  H57      1.0000 0.06780  0.79780  0.09520  Biso   1.000  H
  H58      1.0000 0.93220  0.20220  0.59520  Biso   1.000  H
  H59      1.0000 0.20220  0.06780  0.84520  Biso   1.000  H
  H60      1.0000 0.79780  0.93220  0.34520  Biso   1.000  H
