data_image0
_cell_length_a       6.3425
_cell_length_b       8.246
_cell_length_c       8.6769
_cell_angle_alpha    91.886
_cell_angle_beta     104.273
_cell_angle_gamma    98.847

_symmetry_space_group_name_H-M    "P 1"
_symmetry_int_tables_number       1

loop_
  _symmetry_equiv_pos_as_xyz
  'x, y, z'

loop_
  _atom_site_label
  _atom_site_occupancy
  _atom_site_fract_x
  _atom_site_fract_y
  _atom_site_fract_z
  _atom_site_thermal_displace_type
  _atom_site_B_iso_or_equiv
  _atom_site_type_symbol
  Cu1      1.0000 0.14300  0.96840  0.76220  Biso   1.000  Cu
  C1       1.0000 0.77420  0.37460  0.44450  Biso   1.000  C
  H1       1.0000 0.62760  0.32730  0.43210  Biso   1.000  H
  C2       1.0000 0.81960  0.52140  0.37520  Biso   1.000  C
  H2       1.0000 0.70460  0.57110  0.31940  Biso   1.000  H
  C3       1.0000 0.03600  0.59340  0.38950  Biso   1.000  C
  C4       1.0000 0.20070  0.51170  0.47240  Biso   1.000  C
  H3       1.0000 0.34900  0.55280  0.48310  Biso   1.000  H
  C5       1.0000 0.13690  0.36710  0.53860  Biso   1.000  C
  H4       1.0000 0.24780  0.31420  0.59520  Biso   1.000  H
  C6       1.0000 0.09080  0.75220  0.31660  Biso   1.000  C
  H5       1.0000 0.96080  0.77140  0.23790  Biso   1.000  H
  H6       1.0000 0.20460  0.74190  0.26170  Biso   1.000  H
  C7       1.0000 0.17150  0.90250  0.44010  Biso   1.000  C
  H7       1.0000 0.19450  0.00020  0.38110  Biso   1.000  H
  C8       1.0000 0.39190  0.89160  0.55660  Biso   1.000  C
  C9       1.0000 0.82740  0.64200  0.82190  Biso   1.000  C
  H8       1.0000 0.71620  0.69400  0.76440  Biso   1.000  H
  C10      1.0000 0.76640  0.49420  0.88440  Biso   1.000  C
  H9       1.0000 0.61820  0.44890  0.86730  Biso   1.000  H
  C11      1.0000 0.92880  0.41500  0.97270  Biso   1.000  C
  C12      1.0000 0.14520  0.48980  0.99170  Biso   1.000  C
  H10      1.0000 0.25980  0.44150  0.05030  Biso   1.000  H
  C13      1.0000 0.19180  0.63670  0.92350  Biso   1.000  C
  H11      1.0000 0.33860  0.68410  0.93700  Biso   1.000  H
  C14      1.0000 0.86570  0.25700  0.04700  Biso   1.000  C
  H12      1.0000 0.70600  0.22960  0.02110  Biso   1.000  H
  H13      1.0000 0.91830  0.27550  0.16200  Biso   1.000  H
  C15      1.0000 0.95790  0.11050  0.99220  Biso   1.000  C
  H14      1.0000 0.88730  0.01330  0.03380  Biso   1.000  H
  C16      1.0000 0.20830  0.12190  0.06240  Biso   1.000  C
  N1       1.0000 0.93060  0.29920  0.52730  Biso   1.000  N
  N2       1.0000 0.00570  0.92750  0.52850  Biso   1.000  N
  H15      1.0000 0.89990  0.83780  0.51060  Biso   1.000  H
  H16      1.0000 0.94180  0.01390  0.49250  Biso   1.000  H
  N3       1.0000 0.03450  0.71290  0.83940  Biso   1.000  N
  N4       1.0000 0.90390  0.07650  0.81690  Biso   1.000  N
  H17      1.0000 0.89510  0.17110  0.76860  Biso   1.000  H
  H18      1.0000 0.77280  0.00960  0.78290  Biso   1.000  H
  O1       1.0000 0.40980  0.92210  0.70650  Biso   1.000  O
  O2       1.0000 0.54580  0.85810  0.50410  Biso   1.000  O
  O3       1.0000 0.29140  0.17650  0.20050  Biso   1.000  O
  O4       1.0000 0.31540  0.06350  0.97190  Biso   1.000  O
  O5       1.0000 0.61820  0.89670  0.19120  Biso   1.000  O
  H19      1.0000 0.49900  0.91900  0.13500  Biso   1.000  H
  H20      1.0000 0.69300  0.98400  0.24800  Biso   1.000  H
