data_image0
_cell_length_a       19.159
_cell_length_b       19.159
_cell_length_c       19.159
_cell_angle_alpha    90
_cell_angle_beta     90
_cell_angle_gamma    90

_symmetry_space_group_name_H-M    "P 1"
_symmetry_int_tables_number       1

loop_
  _symmetry_equiv_pos_as_xyz
  'x, y, z'

loop_
  _atom_site_label
  _atom_site_occupancy
  _atom_site_fract_x
  _atom_site_fract_y
  _atom_site_fract_z
  _atom_site_thermal_displace_type
  _atom_site_B_iso_or_equiv
  _atom_site_type_symbol
  Cu1      1.0000 0.31506  0.55997  0.17826  Biso   1.000  Cu
  Cu2      1.0000 0.18494  0.44003  0.67826  Biso   1.000  Cu
  Cu3      1.0000 0.68494  0.05997  0.32174  Biso   1.000  Cu
  Cu4      1.0000 0.81506  0.94003  0.82174  Biso   1.000  Cu
  Cu5      1.0000 0.17826  0.31506  0.55997  Biso   1.000  Cu
  Cu6      1.0000 0.67826  0.18494  0.44003  Biso   1.000  Cu
  Cu7      1.0000 0.32174  0.68494  0.05997  Biso   1.000  Cu
  Cu8      1.0000 0.82174  0.81506  0.94003  Biso   1.000  Cu
  Cu9      1.0000 0.55997  0.17826  0.31506  Biso   1.000  Cu
  Cu10     1.0000 0.44003  0.67826  0.18494  Biso   1.000  Cu
  Cu11     1.0000 0.05997  0.32174  0.68494  Biso   1.000  Cu
  Cu12     1.0000 0.94003  0.82174  0.81506  Biso   1.000  Cu
  Cu13     1.0000 0.68494  0.44003  0.82174  Biso   1.000  Cu
  Cu14     1.0000 0.81506  0.55997  0.32174  Biso   1.000  Cu
  Cu15     1.0000 0.31506  0.94003  0.67826  Biso   1.000  Cu
  Cu16     1.0000 0.18494  0.05997  0.17826  Biso   1.000  Cu
  Cu17     1.0000 0.82174  0.68494  0.44003  Biso   1.000  Cu
  Cu18     1.0000 0.32174  0.81506  0.55997  Biso   1.000  Cu
  Cu19     1.0000 0.67826  0.31506  0.94003  Biso   1.000  Cu
  Cu20     1.0000 0.17826  0.18494  0.05997  Biso   1.000  Cu
  Cu21     1.0000 0.44003  0.82174  0.68494  Biso   1.000  Cu
  Cu22     1.0000 0.55997  0.32174  0.81506  Biso   1.000  Cu
  Cu23     1.0000 0.94003  0.67826  0.31506  Biso   1.000  Cu
  Cu24     1.0000 0.05997  0.17826  0.18494  Biso   1.000  Cu
  Cu25     1.0000 0.53219  0.59549  0.08328  Biso   1.000  Cu
  Cu26     1.0000 0.96781  0.40451  0.58328  Biso   1.000  Cu
  Cu27     1.0000 0.46781  0.09549  0.41672  Biso   1.000  Cu
  Cu28     1.0000 0.03219  0.90451  0.91672  Biso   1.000  Cu
  Cu29     1.0000 0.08328  0.53219  0.59549  Biso   1.000  Cu
  Cu30     1.0000 0.58328  0.96781  0.40451  Biso   1.000  Cu
  Cu31     1.0000 0.41672  0.46781  0.09549  Biso   1.000  Cu
  Cu32     1.0000 0.91672  0.03219  0.90451  Biso   1.000  Cu
  Cu33     1.0000 0.59549  0.08328  0.53219  Biso   1.000  Cu
  Cu34     1.0000 0.40451  0.58328  0.96781  Biso   1.000  Cu
  Cu35     1.0000 0.09549  0.41672  0.46781  Biso   1.000  Cu
  Cu36     1.0000 0.90451  0.91672  0.03219  Biso   1.000  Cu
  Cu37     1.0000 0.46781  0.40451  0.91672  Biso   1.000  Cu
  Cu38     1.0000 0.03219  0.59549  0.41672  Biso   1.000  Cu
  Cu39     1.0000 0.53219  0.90451  0.58328  Biso   1.000  Cu
  Cu40     1.0000 0.96781  0.09549  0.08328  Biso   1.000  Cu
  Cu41     1.0000 0.91672  0.46781  0.40451  Biso   1.000  Cu
  Cu42     1.0000 0.41672  0.03219  0.59549  Biso   1.000  Cu
  Cu43     1.0000 0.58328  0.53219  0.90451  Biso   1.000  Cu
  Cu44     1.0000 0.08328  0.96781  0.09549  Biso   1.000  Cu
  Cu45     1.0000 0.40451  0.91672  0.46781  Biso   1.000  Cu
  Cu46     1.0000 0.59549  0.41672  0.03219  Biso   1.000  Cu
  Cu47     1.0000 0.90451  0.58328  0.53219  Biso   1.000  Cu
  Cu48     1.0000 0.09549  0.08328  0.96781  Biso   1.000  Cu
  O1       1.0000 0.29430  0.71590  0.96510  Biso   1.000  O
  O2       1.0000 0.20570  0.28410  0.46510  Biso   1.000  O
  O3       1.0000 0.70570  0.21590  0.53490  Biso   1.000  O
  O4       1.0000 0.79430  0.78410  0.03490  Biso   1.000  O
  O5       1.0000 0.96510  0.29430  0.71590  Biso   1.000  O
  O6       1.0000 0.46510  0.20570  0.28410  Biso   1.000  O
  O7       1.0000 0.53490  0.70570  0.21590  Biso   1.000  O
  O8       1.0000 0.03490  0.79430  0.78410  Biso   1.000  O
  O9       1.0000 0.71590  0.96510  0.29430  Biso   1.000  O
  O10      1.0000 0.28410  0.46510  0.20570  Biso   1.000  O
  O11      1.0000 0.21590  0.53490  0.70570  Biso   1.000  O
  O12      1.0000 0.78410  0.03490  0.79430  Biso   1.000  O
  O13      1.0000 0.70570  0.28410  0.03490  Biso   1.000  O
  O14      1.0000 0.79430  0.71590  0.53490  Biso   1.000  O
  O15      1.0000 0.29430  0.78410  0.46510  Biso   1.000  O
  O16      1.0000 0.20570  0.21590  0.96510  Biso   1.000  O
  O17      1.0000 0.03490  0.70570  0.28410  Biso   1.000  O
  O18      1.0000 0.53490  0.79430  0.71590  Biso   1.000  O
  O19      1.0000 0.46510  0.29430  0.78410  Biso   1.000  O
  O20      1.0000 0.96510  0.20570  0.21590  Biso   1.000  O
  O21      1.0000 0.28410  0.03490  0.70570  Biso   1.000  O
  O22      1.0000 0.71590  0.53490  0.79430  Biso   1.000  O
  O23      1.0000 0.78410  0.46510  0.29430  Biso   1.000  O
  O24      1.0000 0.21590  0.96510  0.20570  Biso   1.000  O
  O25      1.0000 0.34250  0.63030  0.90170  Biso   1.000  O
  O26      1.0000 0.15750  0.36970  0.40170  Biso   1.000  O
  O27      1.0000 0.65750  0.13030  0.59830  Biso   1.000  O
  O28      1.0000 0.84250  0.86970  0.09830  Biso   1.000  O
  O29      1.0000 0.90170  0.34250  0.63030  Biso   1.000  O
  O30      1.0000 0.40170  0.15750  0.36970  Biso   1.000  O
  O31      1.0000 0.59830  0.65750  0.13030  Biso   1.000  O
  O32      1.0000 0.09830  0.84250  0.86970  Biso   1.000  O
  O33      1.0000 0.63030  0.90170  0.34250  Biso   1.000  O
  O34      1.0000 0.36970  0.40170  0.15750  Biso   1.000  O
  O35      1.0000 0.13030  0.59830  0.65750  Biso   1.000  O
  O36      1.0000 0.86970  0.09830  0.84250  Biso   1.000  O
  O37      1.0000 0.65750  0.36970  0.09830  Biso   1.000  O
  O38      1.0000 0.84250  0.63030  0.59830  Biso   1.000  O
  O39      1.0000 0.34250  0.86970  0.40170  Biso   1.000  O
  O40      1.0000 0.15750  0.13030  0.90170  Biso   1.000  O
  O41      1.0000 0.09830  0.65750  0.36970  Biso   1.000  O
  O42      1.0000 0.59830  0.84250  0.63030  Biso   1.000  O
  O43      1.0000 0.40170  0.34250  0.86970  Biso   1.000  O
  O44      1.0000 0.90170  0.15750  0.13030  Biso   1.000  O
  O45      1.0000 0.36970  0.09830  0.65750  Biso   1.000  O
  O46      1.0000 0.63030  0.59830  0.84250  Biso   1.000  O
  O47      1.0000 0.86970  0.40170  0.34250  Biso   1.000  O
  O48      1.0000 0.13030  0.90170  0.15750  Biso   1.000  O
  O49      1.0000 0.45980  0.54020  0.04020  Biso   1.000  O
  O50      1.0000 0.04020  0.45980  0.54020  Biso   1.000  O
  O51      1.0000 0.54020  0.04020  0.45980  Biso   1.000  O
  O52      1.0000 0.95980  0.95980  0.95980  Biso   1.000  O
  O53      1.0000 0.54020  0.45980  0.95980  Biso   1.000  O
  O54      1.0000 0.95980  0.54020  0.45980  Biso   1.000  O
  O55      1.0000 0.45980  0.95980  0.54020  Biso   1.000  O
  O56      1.0000 0.04020  0.04020  0.04020  Biso   1.000  O
  O57      1.0000 0.36030  0.63970  0.13970  Biso   1.000  O
  O58      1.0000 0.13970  0.36030  0.63970  Biso   1.000  O
  O59      1.0000 0.63970  0.13970  0.36030  Biso   1.000  O
  O60      1.0000 0.86030  0.86030  0.86030  Biso   1.000  O
  O61      1.0000 0.63970  0.36030  0.86030  Biso   1.000  O
  O62      1.0000 0.86030  0.63970  0.36030  Biso   1.000  O
  O63      1.0000 0.36030  0.86030  0.63970  Biso   1.000  O
  O64      1.0000 0.13970  0.13970  0.13970  Biso   1.000  O
  N1       1.0000 0.38780  0.75950  0.07040  Biso   1.000  N
  N2       1.0000 0.11220  0.24050  0.57040  Biso   1.000  N
  N3       1.0000 0.61220  0.25950  0.42960  Biso   1.000  N
  N4       1.0000 0.88780  0.74050  0.92960  Biso   1.000  N
  N5       1.0000 0.07040  0.38780  0.75950  Biso   1.000  N
  N6       1.0000 0.57040  0.11220  0.24050  Biso   1.000  N
  N7       1.0000 0.42960  0.61220  0.25950  Biso   1.000  N
  N8       1.0000 0.92960  0.88780  0.74050  Biso   1.000  N
  N9       1.0000 0.75950  0.07040  0.38780  Biso   1.000  N
  N10      1.0000 0.24050  0.57040  0.11220  Biso   1.000  N
  N11      1.0000 0.25950  0.42960  0.61220  Biso   1.000  N
  N12      1.0000 0.74050  0.92960  0.88780  Biso   1.000  N
  N13      1.0000 0.61220  0.24050  0.92960  Biso   1.000  N
  N14      1.0000 0.88780  0.75950  0.42960  Biso   1.000  N
  N15      1.0000 0.38780  0.74050  0.57040  Biso   1.000  N
  N16      1.0000 0.11220  0.25950  0.07040  Biso   1.000  N
  N17      1.0000 0.92960  0.61220  0.24050  Biso   1.000  N
  N18      1.0000 0.42960  0.88780  0.75950  Biso   1.000  N
  N19      1.0000 0.57040  0.38780  0.74050  Biso   1.000  N
  N20      1.0000 0.07040  0.11220  0.25950  Biso   1.000  N
  N21      1.0000 0.24050  0.92960  0.61220  Biso   1.000  N
  N22      1.0000 0.75950  0.42960  0.88780  Biso   1.000  N
  N23      1.0000 0.74050  0.57040  0.38780  Biso   1.000  N
  N24      1.0000 0.25950  0.07040  0.11220  Biso   1.000  N
  N25      1.0000 0.34010  0.50600  0.97360  Biso   1.000  N
  N26      1.0000 0.15990  0.49400  0.47360  Biso   1.000  N
  N27      1.0000 0.65990  0.00600  0.52640  Biso   1.000  N
  N28      1.0000 0.84010  0.99400  0.02640  Biso   1.000  N
  N29      1.0000 0.97360  0.34010  0.50600  Biso   1.000  N
  N30      1.0000 0.47360  0.15990  0.49400  Biso   1.000  N
  N31      1.0000 0.52640  0.65990  0.00600  Biso   1.000  N
  N32      1.0000 0.02640  0.84010  0.99400  Biso   1.000  N
  N33      1.0000 0.50600  0.97360  0.34010  Biso   1.000  N
  N34      1.0000 0.49400  0.47360  0.15990  Biso   1.000  N
  N35      1.0000 0.00600  0.52640  0.65990  Biso   1.000  N
  N36      1.0000 0.99400  0.02640  0.84010  Biso   1.000  N
  N37      1.0000 0.65990  0.49400  0.02640  Biso   1.000  N
  N38      1.0000 0.84010  0.50600  0.52640  Biso   1.000  N
  N39      1.0000 0.34010  0.99400  0.47360  Biso   1.000  N
  N40      1.0000 0.15990  0.00600  0.97360  Biso   1.000  N
  N41      1.0000 0.02640  0.65990  0.49400  Biso   1.000  N
  N42      1.0000 0.52640  0.84010  0.50600  Biso   1.000  N
  N43      1.0000 0.47360  0.34010  0.99400  Biso   1.000  N
  N44      1.0000 0.97360  0.15990  0.00600  Biso   1.000  N
  N45      1.0000 0.49400  0.02640  0.65990  Biso   1.000  N
  N46      1.0000 0.50600  0.52640  0.84010  Biso   1.000  N
  N47      1.0000 0.99400  0.47360  0.34010  Biso   1.000  N
  N48      1.0000 0.00600  0.97360  0.15990  Biso   1.000  N
  N49      1.0000 0.43420  0.75810  0.12340  Biso   1.000  N
  N50      1.0000 0.06580  0.24190  0.62340  Biso   1.000  N
  N51      1.0000 0.56580  0.25810  0.37660  Biso   1.000  N
  N52      1.0000 0.93420  0.74190  0.87660  Biso   1.000  N
  N53      1.0000 0.12340  0.43420  0.75810  Biso   1.000  N
  N54      1.0000 0.62340  0.06580  0.24190  Biso   1.000  N
  N55      1.0000 0.37660  0.56580  0.25810  Biso   1.000  N
  N56      1.0000 0.87660  0.93420  0.74190  Biso   1.000  N
  N57      1.0000 0.75810  0.12340  0.43420  Biso   1.000  N
  N58      1.0000 0.24190  0.62340  0.06580  Biso   1.000  N
  N59      1.0000 0.25810  0.37660  0.56580  Biso   1.000  N
  N60      1.0000 0.74190  0.87660  0.93420  Biso   1.000  N
  N61      1.0000 0.56580  0.24190  0.87660  Biso   1.000  N
  N62      1.0000 0.93420  0.75810  0.37660  Biso   1.000  N
  N63      1.0000 0.43420  0.74190  0.62340  Biso   1.000  N
  N64      1.0000 0.06580  0.25810  0.12340  Biso   1.000  N
  N65      1.0000 0.87660  0.56580  0.24190  Biso   1.000  N
  N66      1.0000 0.37660  0.93420  0.75810  Biso   1.000  N
  N67      1.0000 0.62340  0.43420  0.74190  Biso   1.000  N
  N68      1.0000 0.12340  0.06580  0.25810  Biso   1.000  N
  N69      1.0000 0.24190  0.87660  0.56580  Biso   1.000  N
  N70      1.0000 0.75810  0.37660  0.93420  Biso   1.000  N
  N71      1.0000 0.74190  0.62340  0.43420  Biso   1.000  N
  N72      1.0000 0.25810  0.12340  0.06580  Biso   1.000  N
  N73      1.0000 0.34630  0.45790  0.02450  Biso   1.000  N
  N74      1.0000 0.15370  0.54210  0.52450  Biso   1.000  N
  N75      1.0000 0.65370  0.95790  0.47550  Biso   1.000  N
  N76      1.0000 0.84630  0.04210  0.97550  Biso   1.000  N
  N77      1.0000 0.02450  0.34630  0.45790  Biso   1.000  N
  N78      1.0000 0.52450  0.15370  0.54210  Biso   1.000  N
  N79      1.0000 0.47550  0.65370  0.95790  Biso   1.000  N
  N80      1.0000 0.97550  0.84630  0.04210  Biso   1.000  N
  N81      1.0000 0.45790  0.02450  0.34630  Biso   1.000  N
  N82      1.0000 0.54210  0.52450  0.15370  Biso   1.000  N
  N83      1.0000 0.95790  0.47550  0.65370  Biso   1.000  N
  N84      1.0000 0.04210  0.97550  0.84630  Biso   1.000  N
  N85      1.0000 0.65370  0.54210  0.97550  Biso   1.000  N
  N86      1.0000 0.84630  0.45790  0.47550  Biso   1.000  N
  N87      1.0000 0.34630  0.04210  0.52450  Biso   1.000  N
  N88      1.0000 0.15370  0.95790  0.02450  Biso   1.000  N
  N89      1.0000 0.97550  0.65370  0.54210  Biso   1.000  N
  N90      1.0000 0.47550  0.84630  0.45790  Biso   1.000  N
  N91      1.0000 0.52450  0.34630  0.04210  Biso   1.000  N
  N92      1.0000 0.02450  0.15370  0.95790  Biso   1.000  N
  N93      1.0000 0.54210  0.97550  0.65370  Biso   1.000  N
  N94      1.0000 0.45790  0.47550  0.84630  Biso   1.000  N
  N95      1.0000 0.04210  0.52450  0.34630  Biso   1.000  N
  N96      1.0000 0.95790  0.02450  0.15370  Biso   1.000  N
  C1       1.0000 0.29980  0.67940  0.91150  Biso   1.000  C
  C2       1.0000 0.20020  0.32060  0.41150  Biso   1.000  C
  C3       1.0000 0.70020  0.17940  0.58850  Biso   1.000  C
  C4       1.0000 0.79980  0.82060  0.08850  Biso   1.000  C
  C5       1.0000 0.91150  0.29980  0.67940  Biso   1.000  C
  C6       1.0000 0.41150  0.20020  0.32060  Biso   1.000  C
  C7       1.0000 0.58850  0.70020  0.17940  Biso   1.000  C
  C8       1.0000 0.08850  0.79980  0.82060  Biso   1.000  C
  C9       1.0000 0.67940  0.91150  0.29980  Biso   1.000  C
  C10      1.0000 0.32060  0.41150  0.20020  Biso   1.000  C
  C11      1.0000 0.17940  0.58850  0.70020  Biso   1.000  C
  C12      1.0000 0.82060  0.08850  0.79980  Biso   1.000  C
  C13      1.0000 0.70020  0.32060  0.08850  Biso   1.000  C
  C14      1.0000 0.79980  0.67940  0.58850  Biso   1.000  C
  C15      1.0000 0.29980  0.82060  0.41150  Biso   1.000  C
  C16      1.0000 0.20020  0.17940  0.91150  Biso   1.000  C
  C17      1.0000 0.08850  0.70020  0.32060  Biso   1.000  C
  C18      1.0000 0.58850  0.79980  0.67940  Biso   1.000  C
  C19      1.0000 0.41150  0.29980  0.82060  Biso   1.000  C
  C20      1.0000 0.91150  0.20020  0.17940  Biso   1.000  C
  C21      1.0000 0.32060  0.08850  0.70020  Biso   1.000  C
  C22      1.0000 0.67940  0.58850  0.79980  Biso   1.000  C
  C23      1.0000 0.82060  0.41150  0.29980  Biso   1.000  C
  C24      1.0000 0.17940  0.91150  0.20020  Biso   1.000  C
  C25      1.0000 0.24950  0.69130  0.85240  Biso   1.000  C
  C26      1.0000 0.25050  0.30870  0.35240  Biso   1.000  C
  C27      1.0000 0.75050  0.19130  0.64760  Biso   1.000  C
  C28      1.0000 0.74950  0.80870  0.14760  Biso   1.000  C
  C29      1.0000 0.85240  0.24950  0.69130  Biso   1.000  C
  C30      1.0000 0.35240  0.25050  0.30870  Biso   1.000  C
  C31      1.0000 0.64760  0.75050  0.19130  Biso   1.000  C
  C32      1.0000 0.14760  0.74950  0.80870  Biso   1.000  C
  C33      1.0000 0.69130  0.85240  0.24950  Biso   1.000  C
  C34      1.0000 0.30870  0.35240  0.25050  Biso   1.000  C
  C35      1.0000 0.19130  0.64760  0.75050  Biso   1.000  C
  C36      1.0000 0.80870  0.14760  0.74950  Biso   1.000  C
  C37      1.0000 0.75050  0.30870  0.14760  Biso   1.000  C
  C38      1.0000 0.74950  0.69130  0.64760  Biso   1.000  C
  C39      1.0000 0.24950  0.80870  0.35240  Biso   1.000  C
  C40      1.0000 0.25050  0.19130  0.85240  Biso   1.000  C
  C41      1.0000 0.14760  0.75050  0.30870  Biso   1.000  C
  C42      1.0000 0.64760  0.74950  0.69130  Biso   1.000  C
  C43      1.0000 0.35240  0.24950  0.80870  Biso   1.000  C
  C44      1.0000 0.85240  0.25050  0.19130  Biso   1.000  C
  C45      1.0000 0.30870  0.14760  0.75050  Biso   1.000  C
  C46      1.0000 0.69130  0.64760  0.74950  Biso   1.000  C
  C47      1.0000 0.80870  0.35240  0.24950  Biso   1.000  C
  C48      1.0000 0.19130  0.85240  0.25050  Biso   1.000  C
  C49      1.0000 0.24400  0.64290  0.79940  Biso   1.000  C
  C50      1.0000 0.25600  0.35710  0.29940  Biso   1.000  C
  C51      1.0000 0.75600  0.14290  0.70060  Biso   1.000  C
  C52      1.0000 0.74400  0.85710  0.20060  Biso   1.000  C
  C53      1.0000 0.79940  0.24400  0.64290  Biso   1.000  C
  C54      1.0000 0.29940  0.25600  0.35710  Biso   1.000  C
  C55      1.0000 0.70060  0.75600  0.14290  Biso   1.000  C
  C56      1.0000 0.20060  0.74400  0.85710  Biso   1.000  C
  C57      1.0000 0.64290  0.79940  0.24400  Biso   1.000  C
  C58      1.0000 0.35710  0.29940  0.25600  Biso   1.000  C
  C59      1.0000 0.14290  0.70060  0.75600  Biso   1.000  C
  C60      1.0000 0.85710  0.20060  0.74400  Biso   1.000  C
  C61      1.0000 0.75600  0.35710  0.20060  Biso   1.000  C
  C62      1.0000 0.74400  0.64290  0.70060  Biso   1.000  C
  C63      1.0000 0.24400  0.85710  0.29940  Biso   1.000  C
  C64      1.0000 0.25600  0.14290  0.79940  Biso   1.000  C
  C65      1.0000 0.20060  0.75600  0.35710  Biso   1.000  C
  C66      1.0000 0.70060  0.74400  0.64290  Biso   1.000  C
  C67      1.0000 0.29940  0.24400  0.85710  Biso   1.000  C
  C68      1.0000 0.79940  0.25600  0.14290  Biso   1.000  C
  C69      1.0000 0.35710  0.20060  0.75600  Biso   1.000  C
  C70      1.0000 0.64290  0.70060  0.74400  Biso   1.000  C
  C71      1.0000 0.85710  0.29940  0.24400  Biso   1.000  C
  C72      1.0000 0.14290  0.79940  0.25600  Biso   1.000  C
  H1       1.0000 0.20340  0.77620  0.89340  Biso   1.000  H
  H2       1.0000 0.29660  0.22380  0.39340  Biso   1.000  H
  H3       1.0000 0.79660  0.27620  0.60660  Biso   1.000  H
  H4       1.0000 0.70340  0.72380  0.10660  Biso   1.000  H
  H5       1.0000 0.89340  0.20340  0.77620  Biso   1.000  H
  H6       1.0000 0.39340  0.29660  0.22380  Biso   1.000  H
  H7       1.0000 0.60660  0.79660  0.27620  Biso   1.000  H
  H8       1.0000 0.10660  0.70340  0.72380  Biso   1.000  H
  H9       1.0000 0.77620  0.89340  0.20340  Biso   1.000  H
  H10      1.0000 0.22380  0.39340  0.29660  Biso   1.000  H
  H11      1.0000 0.27620  0.60660  0.79660  Biso   1.000  H
  H12      1.0000 0.72380  0.10660  0.70340  Biso   1.000  H
  H13      1.0000 0.79660  0.22380  0.10660  Biso   1.000  H
  H14      1.0000 0.70340  0.77620  0.60660  Biso   1.000  H
  H15      1.0000 0.20340  0.72380  0.39340  Biso   1.000  H
  H16      1.0000 0.29660  0.27620  0.89340  Biso   1.000  H
  H17      1.0000 0.10660  0.79660  0.22380  Biso   1.000  H
  H18      1.0000 0.60660  0.70340  0.77620  Biso   1.000  H
  H19      1.0000 0.39340  0.20340  0.72380  Biso   1.000  H
  H20      1.0000 0.89340  0.29660  0.27620  Biso   1.000  H
  H21      1.0000 0.22380  0.10660  0.79660  Biso   1.000  H
  H22      1.0000 0.77620  0.60660  0.70340  Biso   1.000  H
  H23      1.0000 0.72380  0.39340  0.20340  Biso   1.000  H
  H24      1.0000 0.27620  0.89340  0.29660  Biso   1.000  H
  C73      1.0000 0.18040  0.53720  0.10430  Biso   1.000  C
  C74      1.0000 0.31960  0.46280  0.60430  Biso   1.000  C
  C75      1.0000 0.81960  0.03720  0.39570  Biso   1.000  C
  C76      1.0000 0.68040  0.96280  0.89570  Biso   1.000  C
  C77      1.0000 0.10430  0.18040  0.53720  Biso   1.000  C
  C78      1.0000 0.60430  0.31960  0.46280  Biso   1.000  C
  C79      1.0000 0.39570  0.81960  0.03720  Biso   1.000  C
  C80      1.0000 0.89570  0.68040  0.96280  Biso   1.000  C
  C81      1.0000 0.53720  0.10430  0.18040  Biso   1.000  C
  C82      1.0000 0.46280  0.60430  0.31960  Biso   1.000  C
  C83      1.0000 0.03720  0.39570  0.81960  Biso   1.000  C
  C84      1.0000 0.96280  0.89570  0.68040  Biso   1.000  C
  C85      1.0000 0.81960  0.46280  0.89570  Biso   1.000  C
  C86      1.0000 0.68040  0.53720  0.39570  Biso   1.000  C
  C87      1.0000 0.18040  0.96280  0.60430  Biso   1.000  C
  C88      1.0000 0.31960  0.03720  0.10430  Biso   1.000  C
  C89      1.0000 0.89570  0.81960  0.46280  Biso   1.000  C
  C90      1.0000 0.39570  0.68040  0.53720  Biso   1.000  C
  C91      1.0000 0.60430  0.18040  0.96280  Biso   1.000  C
  C92      1.0000 0.10430  0.31960  0.03720  Biso   1.000  C
  C93      1.0000 0.46280  0.89570  0.81960  Biso   1.000  C
  C94      1.0000 0.53720  0.39570  0.68040  Biso   1.000  C
  C95      1.0000 0.96280  0.60430  0.18040  Biso   1.000  C
  C96      1.0000 0.03720  0.10430  0.31960  Biso   1.000  C
  H25      1.0000 0.16710  0.49790  0.12960  Biso   1.000  H
  H26      1.0000 0.33290  0.50210  0.62960  Biso   1.000  H
  H27      1.0000 0.83290  0.99790  0.37040  Biso   1.000  H
  H28      1.0000 0.66710  0.00210  0.87040  Biso   1.000  H
  H29      1.0000 0.12960  0.16710  0.49790  Biso   1.000  H
  H30      1.0000 0.62960  0.33290  0.50210  Biso   1.000  H
  H31      1.0000 0.37040  0.83290  0.99790  Biso   1.000  H
  H32      1.0000 0.87040  0.66710  0.00210  Biso   1.000  H
  H33      1.0000 0.49790  0.12960  0.16710  Biso   1.000  H
  H34      1.0000 0.50210  0.62960  0.33290  Biso   1.000  H
  H35      1.0000 0.99790  0.37040  0.83290  Biso   1.000  H
  H36      1.0000 0.00210  0.87040  0.66710  Biso   1.000  H
  H37      1.0000 0.83290  0.50210  0.87040  Biso   1.000  H
  H38      1.0000 0.66710  0.49790  0.37040  Biso   1.000  H
  H39      1.0000 0.16710  0.00210  0.62960  Biso   1.000  H
  H40      1.0000 0.33290  0.99790  0.12960  Biso   1.000  H
  H41      1.0000 0.87040  0.83290  0.50210  Biso   1.000  H
  H42      1.0000 0.37040  0.66710  0.49790  Biso   1.000  H
  H43      1.0000 0.62960  0.16710  0.00210  Biso   1.000  H
  H44      1.0000 0.12960  0.33290  0.99790  Biso   1.000  H
  H45      1.0000 0.50210  0.87040  0.83290  Biso   1.000  H
  H46      1.0000 0.49790  0.37040  0.66710  Biso   1.000  H
  H47      1.0000 0.00210  0.62960  0.16710  Biso   1.000  H
  H48      1.0000 0.99790  0.12960  0.33290  Biso   1.000  H
  C97      1.0000 0.18200  0.62130  0.02930  Biso   1.000  C
  C98      1.0000 0.31800  0.37870  0.52930  Biso   1.000  C
  C99      1.0000 0.81800  0.12130  0.47070  Biso   1.000  C
  C100     1.0000 0.68200  0.87870  0.97070  Biso   1.000  C
  C101     1.0000 0.02930  0.18200  0.62130  Biso   1.000  C
  C102     1.0000 0.52930  0.31800  0.37870  Biso   1.000  C
  C103     1.0000 0.47070  0.81800  0.12130  Biso   1.000  C
  C104     1.0000 0.97070  0.68200  0.87870  Biso   1.000  C
  C105     1.0000 0.62130  0.02930  0.18200  Biso   1.000  C
  C106     1.0000 0.37870  0.52930  0.31800  Biso   1.000  C
  C107     1.0000 0.12130  0.47070  0.81800  Biso   1.000  C
  C108     1.0000 0.87870  0.97070  0.68200  Biso   1.000  C
  C109     1.0000 0.81800  0.37870  0.97070  Biso   1.000  C
  C110     1.0000 0.68200  0.62130  0.47070  Biso   1.000  C
  C111     1.0000 0.18200  0.87870  0.52930  Biso   1.000  C
  C112     1.0000 0.31800  0.12130  0.02930  Biso   1.000  C
  C113     1.0000 0.97070  0.81800  0.37870  Biso   1.000  C
  C114     1.0000 0.47070  0.68200  0.62130  Biso   1.000  C
  C115     1.0000 0.52930  0.18200  0.87870  Biso   1.000  C
  C116     1.0000 0.02930  0.31800  0.12130  Biso   1.000  C
  C117     1.0000 0.37870  0.97070  0.81800  Biso   1.000  C
  C118     1.0000 0.62130  0.47070  0.68200  Biso   1.000  C
  C119     1.0000 0.87870  0.52930  0.18200  Biso   1.000  C
  C120     1.0000 0.12130  0.02930  0.31800  Biso   1.000  C
  H49      1.0000 0.17050  0.65120  0.99290  Biso   1.000  H
  H50      1.0000 0.32950  0.34880  0.49290  Biso   1.000  H
  H51      1.0000 0.82950  0.15120  0.50710  Biso   1.000  H
  H52      1.0000 0.67050  0.84880  0.00710  Biso   1.000  H
  H53      1.0000 0.99290  0.17050  0.65120  Biso   1.000  H
  H54      1.0000 0.49290  0.32950  0.34880  Biso   1.000  H
  H55      1.0000 0.50710  0.82950  0.15120  Biso   1.000  H
  H56      1.0000 0.00710  0.67050  0.84880  Biso   1.000  H
  H57      1.0000 0.65120  0.99290  0.17050  Biso   1.000  H
  H58      1.0000 0.34880  0.49290  0.32950  Biso   1.000  H
  H59      1.0000 0.15120  0.50710  0.82950  Biso   1.000  H
  H60      1.0000 0.84880  0.00710  0.67050  Biso   1.000  H
  H61      1.0000 0.82950  0.34880  0.00710  Biso   1.000  H
  H62      1.0000 0.67050  0.65120  0.50710  Biso   1.000  H
  H63      1.0000 0.17050  0.84880  0.49290  Biso   1.000  H
  H64      1.0000 0.32950  0.15120  0.99290  Biso   1.000  H
  H65      1.0000 0.00710  0.82950  0.34880  Biso   1.000  H
  H66      1.0000 0.50710  0.67050  0.65120  Biso   1.000  H
  H67      1.0000 0.49290  0.17050  0.84880  Biso   1.000  H
  H68      1.0000 0.99290  0.32950  0.15120  Biso   1.000  H
  H69      1.0000 0.34880  0.00710  0.82950  Biso   1.000  H
  H70      1.0000 0.65120  0.50710  0.67050  Biso   1.000  H
  H71      1.0000 0.84880  0.49290  0.17050  Biso   1.000  H
  H72      1.0000 0.15120  0.99290  0.32950  Biso   1.000  H
  C121     1.0000 0.14030  0.56830  0.05390  Biso   1.000  C
  C122     1.0000 0.35970  0.43170  0.55390  Biso   1.000  C
  C123     1.0000 0.85970  0.06830  0.44610  Biso   1.000  C
  C124     1.0000 0.64030  0.93170  0.94610  Biso   1.000  C
  C125     1.0000 0.05390  0.14030  0.56830  Biso   1.000  C
  C126     1.0000 0.55390  0.35970  0.43170  Biso   1.000  C
  C127     1.0000 0.44610  0.85970  0.06830  Biso   1.000  C
  C128     1.0000 0.94610  0.64030  0.93170  Biso   1.000  C
  C129     1.0000 0.56830  0.05390  0.14030  Biso   1.000  C
  C130     1.0000 0.43170  0.55390  0.35970  Biso   1.000  C
  C131     1.0000 0.06830  0.44610  0.85970  Biso   1.000  C
  C132     1.0000 0.93170  0.94610  0.64030  Biso   1.000  C
  C133     1.0000 0.85970  0.43170  0.94610  Biso   1.000  C
  C134     1.0000 0.64030  0.56830  0.44610  Biso   1.000  C
  C135     1.0000 0.14030  0.93170  0.55390  Biso   1.000  C
  C136     1.0000 0.35970  0.06830  0.05390  Biso   1.000  C
  C137     1.0000 0.94610  0.85970  0.43170  Biso   1.000  C
  C138     1.0000 0.44610  0.64030  0.56830  Biso   1.000  C
  C139     1.0000 0.55390  0.14030  0.93170  Biso   1.000  C
  C140     1.0000 0.05390  0.35970  0.06830  Biso   1.000  C
  C141     1.0000 0.43170  0.94610  0.85970  Biso   1.000  C
  C142     1.0000 0.56830  0.44610  0.64030  Biso   1.000  C
  C143     1.0000 0.93170  0.55390  0.14030  Biso   1.000  C
  C144     1.0000 0.06830  0.05390  0.35970  Biso   1.000  C
  H73      1.0000 0.09550  0.55650  0.03970  Biso   1.000  H
  H74      1.0000 0.40450  0.44350  0.53970  Biso   1.000  H
  H75      1.0000 0.90450  0.05650  0.46030  Biso   1.000  H
  H76      1.0000 0.59550  0.94350  0.96030  Biso   1.000  H
  H77      1.0000 0.03970  0.09550  0.55650  Biso   1.000  H
  H78      1.0000 0.53970  0.40450  0.44350  Biso   1.000  H
  H79      1.0000 0.46030  0.90450  0.05650  Biso   1.000  H
  H80      1.0000 0.96030  0.59550  0.94350  Biso   1.000  H
  H81      1.0000 0.55650  0.03970  0.09550  Biso   1.000  H
  H82      1.0000 0.44350  0.53970  0.40450  Biso   1.000  H
  H83      1.0000 0.05650  0.46030  0.90450  Biso   1.000  H
  H84      1.0000 0.94350  0.96030  0.59550  Biso   1.000  H
  H85      1.0000 0.90450  0.44350  0.96030  Biso   1.000  H
  H86      1.0000 0.59550  0.55650  0.46030  Biso   1.000  H
  H87      1.0000 0.09550  0.94350  0.53970  Biso   1.000  H
  H88      1.0000 0.40450  0.05650  0.03970  Biso   1.000  H
  H89      1.0000 0.96030  0.90450  0.44350  Biso   1.000  H
  H90      1.0000 0.46030  0.59550  0.55650  Biso   1.000  H
  H91      1.0000 0.53970  0.09550  0.94350  Biso   1.000  H
  H92      1.0000 0.03970  0.40450  0.05650  Biso   1.000  H
  H93      1.0000 0.44350  0.96030  0.90450  Biso   1.000  H
  H94      1.0000 0.55650  0.46030  0.59550  Biso   1.000  H
  H95      1.0000 0.94350  0.53970  0.09550  Biso   1.000  H
  H96      1.0000 0.05650  0.03970  0.40450  Biso   1.000  H
  C145     1.0000 0.54290  0.74300  0.92810  Biso   1.000  C
  C146     1.0000 0.95710  0.25700  0.42810  Biso   1.000  C
  C147     1.0000 0.45710  0.24300  0.57190  Biso   1.000  C
  C148     1.0000 0.04290  0.75700  0.07190  Biso   1.000  C
  C149     1.0000 0.92810  0.54290  0.74300  Biso   1.000  C
  C150     1.0000 0.42810  0.95710  0.25700  Biso   1.000  C
  C151     1.0000 0.57190  0.45710  0.24300  Biso   1.000  C
  C152     1.0000 0.07190  0.04290  0.75700  Biso   1.000  C
  C153     1.0000 0.74300  0.92810  0.54290  Biso   1.000  C
  C154     1.0000 0.25700  0.42810  0.95710  Biso   1.000  C
  C155     1.0000 0.24300  0.57190  0.45710  Biso   1.000  C
  C156     1.0000 0.75700  0.07190  0.04290  Biso   1.000  C
  C157     1.0000 0.45710  0.25700  0.07190  Biso   1.000  C
  C158     1.0000 0.04290  0.74300  0.57190  Biso   1.000  C
  C159     1.0000 0.54290  0.75700  0.42810  Biso   1.000  C
  C160     1.0000 0.95710  0.24300  0.92810  Biso   1.000  C
  C161     1.0000 0.07190  0.45710  0.25700  Biso   1.000  C
  C162     1.0000 0.57190  0.04290  0.74300  Biso   1.000  C
  C163     1.0000 0.42810  0.54290  0.75700  Biso   1.000  C
  C164     1.0000 0.92810  0.95710  0.24300  Biso   1.000  C
  C165     1.0000 0.25700  0.07190  0.45710  Biso   1.000  C
  C166     1.0000 0.74300  0.57190  0.04290  Biso   1.000  C
  C167     1.0000 0.75700  0.42810  0.54290  Biso   1.000  C
  C168     1.0000 0.24300  0.92810  0.95710  Biso   1.000  C
  H97      1.0000 0.56220  0.78040  0.90390  Biso   1.000  H
  H98      1.0000 0.93780  0.21960  0.40390  Biso   1.000  H
  H99      1.0000 0.43780  0.28040  0.59610  Biso   1.000  H
  H100     1.0000 0.06220  0.71960  0.09610  Biso   1.000  H
  H101     1.0000 0.90390  0.56220  0.78040  Biso   1.000  H
  H102     1.0000 0.40390  0.93780  0.21960  Biso   1.000  H
  H103     1.0000 0.59610  0.43780  0.28040  Biso   1.000  H
  H104     1.0000 0.09610  0.06220  0.71960  Biso   1.000  H
  H105     1.0000 0.78040  0.90390  0.56220  Biso   1.000  H
  H106     1.0000 0.21960  0.40390  0.93780  Biso   1.000  H
  H107     1.0000 0.28040  0.59610  0.43780  Biso   1.000  H
  H108     1.0000 0.71960  0.09610  0.06220  Biso   1.000  H
  H109     1.0000 0.43780  0.21960  0.09610  Biso   1.000  H
  H110     1.0000 0.06220  0.78040  0.59610  Biso   1.000  H
  H111     1.0000 0.56220  0.71960  0.40390  Biso   1.000  H
  H112     1.0000 0.93780  0.28040  0.90390  Biso   1.000  H
  H113     1.0000 0.09610  0.43780  0.21960  Biso   1.000  H
  H114     1.0000 0.59610  0.06220  0.78040  Biso   1.000  H
  H115     1.0000 0.40390  0.56220  0.71960  Biso   1.000  H
  H116     1.0000 0.90390  0.93780  0.28040  Biso   1.000  H
  H117     1.0000 0.21960  0.09610  0.43780  Biso   1.000  H
  H118     1.0000 0.78040  0.59610  0.06220  Biso   1.000  H
  H119     1.0000 0.71960  0.40390  0.56220  Biso   1.000  H
  H120     1.0000 0.28040  0.90390  0.93780  Biso   1.000  H
  C169     1.0000 0.56590  0.71380  0.98690  Biso   1.000  C
  C170     1.0000 0.93410  0.28620  0.48690  Biso   1.000  C
  C171     1.0000 0.43410  0.21380  0.51310  Biso   1.000  C
  C172     1.0000 0.06590  0.78620  0.01310  Biso   1.000  C
  C173     1.0000 0.98690  0.56590  0.71380  Biso   1.000  C
  C174     1.0000 0.48690  0.93410  0.28620  Biso   1.000  C
  C175     1.0000 0.51310  0.43410  0.21380  Biso   1.000  C
  C176     1.0000 0.01310  0.06590  0.78620  Biso   1.000  C
  C177     1.0000 0.71380  0.98690  0.56590  Biso   1.000  C
  C178     1.0000 0.28620  0.48690  0.93410  Biso   1.000  C
  C179     1.0000 0.21380  0.51310  0.43410  Biso   1.000  C
  C180     1.0000 0.78620  0.01310  0.06590  Biso   1.000  C
  C181     1.0000 0.43410  0.28620  0.01310  Biso   1.000  C
  C182     1.0000 0.06590  0.71380  0.51310  Biso   1.000  C
  C183     1.0000 0.56590  0.78620  0.48690  Biso   1.000  C
  C184     1.0000 0.93410  0.21380  0.98690  Biso   1.000  C
  C185     1.0000 0.01310  0.43410  0.28620  Biso   1.000  C
  C186     1.0000 0.51310  0.06590  0.71380  Biso   1.000  C
  C187     1.0000 0.48690  0.56590  0.78620  Biso   1.000  C
  C188     1.0000 0.98690  0.93410  0.21380  Biso   1.000  C
  C189     1.0000 0.28620  0.01310  0.43410  Biso   1.000  C
  C190     1.0000 0.71380  0.51310  0.06590  Biso   1.000  C
  C191     1.0000 0.78620  0.48690  0.56590  Biso   1.000  C
  C192     1.0000 0.21380  0.98690  0.93410  Biso   1.000  C
  H121     1.0000 0.60470  0.72920  0.01160  Biso   1.000  H
  H122     1.0000 0.89530  0.27080  0.51160  Biso   1.000  H
  H123     1.0000 0.39530  0.22920  0.48840  Biso   1.000  H
  H124     1.0000 0.10470  0.77080  0.98840  Biso   1.000  H
  H125     1.0000 0.01160  0.60470  0.72920  Biso   1.000  H
  H126     1.0000 0.51160  0.89530  0.27080  Biso   1.000  H
  H127     1.0000 0.48840  0.39530  0.22920  Biso   1.000  H
  H128     1.0000 0.98840  0.10470  0.77080  Biso   1.000  H
  H129     1.0000 0.72920  0.01160  0.60470  Biso   1.000  H
  H130     1.0000 0.27080  0.51160  0.89530  Biso   1.000  H
  H131     1.0000 0.22920  0.48840  0.39530  Biso   1.000  H
  H132     1.0000 0.77080  0.98840  0.10470  Biso   1.000  H
  H133     1.0000 0.39530  0.27080  0.98840  Biso   1.000  H
  H134     1.0000 0.10470  0.72920  0.48840  Biso   1.000  H
  H135     1.0000 0.60470  0.77080  0.51160  Biso   1.000  H
  H136     1.0000 0.89530  0.22920  0.01160  Biso   1.000  H
  H137     1.0000 0.98840  0.39530  0.27080  Biso   1.000  H
  H138     1.0000 0.48840  0.10470  0.72920  Biso   1.000  H
  H139     1.0000 0.51160  0.60470  0.77080  Biso   1.000  H
  H140     1.0000 0.01160  0.89530  0.22920  Biso   1.000  H
  H141     1.0000 0.27080  0.98840  0.39530  Biso   1.000  H
  H142     1.0000 0.72920  0.48840  0.10470  Biso   1.000  H
  H143     1.0000 0.77080  0.51160  0.60470  Biso   1.000  H
  H144     1.0000 0.22920  0.01160  0.89530  Biso   1.000  H
  C193     1.0000 0.48450  0.70530  0.91130  Biso   1.000  C
  C194     1.0000 0.01550  0.29470  0.41130  Biso   1.000  C
  C195     1.0000 0.51550  0.20530  0.58870  Biso   1.000  C
  C196     1.0000 0.98450  0.79470  0.08870  Biso   1.000  C
  C197     1.0000 0.91130  0.48450  0.70530  Biso   1.000  C
  C198     1.0000 0.41130  0.01550  0.29470  Biso   1.000  C
  C199     1.0000 0.58870  0.51550  0.20530  Biso   1.000  C
  C200     1.0000 0.08870  0.98450  0.79470  Biso   1.000  C
  C201     1.0000 0.70530  0.91130  0.48450  Biso   1.000  C
  C202     1.0000 0.29470  0.41130  0.01550  Biso   1.000  C
  C203     1.0000 0.20530  0.58870  0.51550  Biso   1.000  C
  C204     1.0000 0.79470  0.08870  0.98450  Biso   1.000  C
  C205     1.0000 0.51550  0.29470  0.08870  Biso   1.000  C
  C206     1.0000 0.98450  0.70530  0.58870  Biso   1.000  C
  C207     1.0000 0.48450  0.79470  0.41130  Biso   1.000  C
  C208     1.0000 0.01550  0.20530  0.91130  Biso   1.000  C
  C209     1.0000 0.08870  0.51550  0.29470  Biso   1.000  C
  C210     1.0000 0.58870  0.98450  0.70530  Biso   1.000  C
  C211     1.0000 0.41130  0.48450  0.79470  Biso   1.000  C
  C212     1.0000 0.91130  0.01550  0.20530  Biso   1.000  C
  C213     1.0000 0.29470  0.08870  0.51550  Biso   1.000  C
  C214     1.0000 0.70530  0.58870  0.98450  Biso   1.000  C
  C215     1.0000 0.79470  0.41130  0.48450  Biso   1.000  C
  C216     1.0000 0.20530  0.91130  0.01550  Biso   1.000  C
  H145     1.0000 0.45550  0.71420  0.87340  Biso   1.000  H
  H146     1.0000 0.04450  0.28580  0.37340  Biso   1.000  H
  H147     1.0000 0.54450  0.21420  0.62660  Biso   1.000  H
  H148     1.0000 0.95550  0.78580  0.12660  Biso   1.000  H
  H149     1.0000 0.87340  0.45550  0.71420  Biso   1.000  H
  H150     1.0000 0.37340  0.04450  0.28580  Biso   1.000  H
  H151     1.0000 0.62660  0.54450  0.21420  Biso   1.000  H
  H152     1.0000 0.12660  0.95550  0.78580  Biso   1.000  H
  H153     1.0000 0.71420  0.87340  0.45550  Biso   1.000  H
  H154     1.0000 0.28580  0.37340  0.04450  Biso   1.000  H
  H155     1.0000 0.21420  0.62660  0.54450  Biso   1.000  H
  H156     1.0000 0.78580  0.12660  0.95550  Biso   1.000  H
  H157     1.0000 0.54450  0.28580  0.12660  Biso   1.000  H
  H158     1.0000 0.95550  0.71420  0.62660  Biso   1.000  H
  H159     1.0000 0.45550  0.78580  0.37340  Biso   1.000  H
  H160     1.0000 0.04450  0.21420  0.87340  Biso   1.000  H
  H161     1.0000 0.12660  0.54450  0.28580  Biso   1.000  H
  H162     1.0000 0.62660  0.95550  0.71420  Biso   1.000  H
  H163     1.0000 0.37340  0.45550  0.78580  Biso   1.000  H
  H164     1.0000 0.87340  0.04450  0.21420  Biso   1.000  H
  H165     1.0000 0.28580  0.12660  0.54450  Biso   1.000  H
  H166     1.0000 0.71420  0.62660  0.95550  Biso   1.000  H
  H167     1.0000 0.78580  0.37340  0.45550  Biso   1.000  H
  H168     1.0000 0.21420  0.87340  0.04450  Biso   1.000  H
