data_image0
_cell_length_a       8.9788
_cell_length_b       11.4531
_cell_length_c       12.1017
_cell_angle_alpha    105.004
_cell_angle_beta     101.295
_cell_angle_gamma    101.078

_symmetry_space_group_name_H-M    "P 1"
_symmetry_int_tables_number       1

loop_
  _symmetry_equiv_pos_as_xyz
  'x, y, z'

loop_
  _atom_site_label
  _atom_site_occupancy
  _atom_site_fract_x
  _atom_site_fract_y
  _atom_site_fract_z
  _atom_site_thermal_displace_type
  _atom_site_B_iso_or_equiv
  _atom_site_type_symbol
  Cu1      1.0000 0.00000  0.00000  0.50000  Biso   1.000  Cu
  N1       1.0000 0.00288  0.82307  0.41846  Biso   1.000  N
  N2       1.0000 0.99712  0.17693  0.58154  Biso   1.000  N
  N3       1.0000 0.01975  0.67293  0.27641  Biso   1.000  N
  N4       1.0000 0.98025  0.32707  0.72359  Biso   1.000  N
  N5       1.0000 0.53155  0.82339  0.38118  Biso   1.000  N
  N6       1.0000 0.46845  0.17661  0.61882  Biso   1.000  N
  N7       1.0000 0.05307  0.79716  0.32234  Biso   1.000  N
  N8       1.0000 0.94693  0.20284  0.67766  Biso   1.000  N
  N9       1.0000 0.76329  0.92945  0.48533  Biso   1.000  N
  N10      1.0000 0.23671  0.07055  0.51467  Biso   1.000  N
  N11      1.0000 0.07174  0.96762  0.68908  Biso   1.000  N
  N12      1.0000 0.92826  0.03238  0.31092  Biso   1.000  N
  N13      1.0000 0.67767  0.87096  0.37639  Biso   1.000  N
  N14      1.0000 0.32233  0.12904  0.62361  Biso   1.000  N
  C1       1.0000 0.52103  0.84994  0.49485  Biso   1.000  C
  C2       1.0000 0.47897  0.15006  0.50515  Biso   1.000  C
  C3       1.0000 0.67104  0.91871  0.56321  Biso   1.000  C
  C4       1.0000 0.32896  0.08129  0.43679  Biso   1.000  C
  C5       1.0000 0.26550  0.35680  0.19755  Biso   1.000  C
  C6       1.0000 0.73450  0.64320  0.80245  Biso   1.000  C
  H1       1.0000 0.23650  0.27000  0.17750  Biso   1.000  H
  H2       1.0000 0.76350  0.73000  0.82250  Biso   1.000  H
  C7       1.0000 0.15428  0.42112  0.16887  Biso   1.000  C
  C8       1.0000 0.84572  0.57888  0.83113  Biso   1.000  C
  H3       1.0000 0.05100  0.37680  0.12970  Biso   1.000  H
  H4       1.0000 0.94900  0.62320  0.87030  Biso   1.000  H
  C9       1.0000 0.86391  0.68845  0.52459  Biso   1.000  C
  C10      1.0000 0.13609  0.31155  0.47541  Biso   1.000  C
  H5       1.0000 0.85940  0.75240  0.58830  Biso   1.000  H
  H6       1.0000 0.14060  0.24760  0.41170  Biso   1.000  H
  C11      1.0000 0.93460  0.71286  0.43619  Biso   1.000  C
  C12      1.0000 0.06540  0.28714  0.56381  Biso   1.000  C
  C13      1.0000 0.06712  0.61579  0.16946  Biso   1.000  C
  C14      1.0000 0.93288  0.38421  0.83054  Biso   1.000  C
  H7       1.0000 0.10450  0.68000  0.13530  Biso   1.000  H
  H8       1.0000 0.89550  0.32000  0.86470  Biso   1.000  H
  H9       1.0000 0.97680  0.55530  0.11130  Biso   1.000  H
  H10      1.0000 0.02320  0.44470  0.88870  Biso   1.000  H
  C15      1.0000 0.19579  0.55131  0.19819  Biso   1.000  C
  C16      1.0000 0.80421  0.44869  0.80181  Biso   1.000  C
  C17      1.0000 0.70276  0.96109  0.68771  Biso   1.000  C
  C18      1.0000 0.29724  0.03891  0.31229  Biso   1.000  C
  H11      1.0000 0.80250  0.00660  0.73480  Biso   1.000  H
  H12      1.0000 0.19750  0.99340  0.26520  Biso   1.000  H
  C19      1.0000 0.94387  0.61545  0.34296  Biso   1.000  C
  C20      1.0000 0.05613  0.38455  0.65704  Biso   1.000  C
  C21      1.0000 0.80180  0.56452  0.51143  Biso   1.000  C
  C22      1.0000 0.19820  0.43548  0.48857  Biso   1.000  C
  H13      1.0000 0.75360  0.54420  0.56770  Biso   1.000  H
  H14      1.0000 0.24640  0.45580  0.43230  Biso   1.000  H
  C23      1.0000 0.40693  0.75648  0.27234  Biso   1.000  C
  C24      1.0000 0.59307  0.24352  0.72766  Biso   1.000  C
  H15      1.0000 0.44470  0.76870  0.20530  Biso   1.000  H
  H16      1.0000 0.55530  0.23130  0.79470  Biso   1.000  H
  H17      1.0000 0.31780  0.79240  0.27470  Biso   1.000  H
  H18      1.0000 0.68220  0.20760  0.72530  Biso   1.000  H
  C25      1.0000 0.87950  0.48915  0.32876  Biso   1.000  C
  C26      1.0000 0.12050  0.51085  0.67124  Biso   1.000  C
  H19      1.0000 0.88420  0.42480  0.26540  Biso   1.000  H
  H20      1.0000 0.11580  0.57520  0.73460  Biso   1.000  H
  C27      1.0000 0.35250  0.61714  0.25348  Biso   1.000  C
  C28      1.0000 0.64750  0.38286  0.74652  Biso   1.000  C
  C29      1.0000 0.46221  0.55173  0.28319  Biso   1.000  C
  C30      1.0000 0.53779  0.44827  0.71681  Biso   1.000  C
  H21      1.0000 0.56590  0.59530  0.32180  Biso   1.000  H
  H22      1.0000 0.43410  0.40470  0.67820  Biso   1.000  H
  C31      1.0000 0.41870  0.42230  0.25581  Biso   1.000  C
  C32      1.0000 0.58130  0.57770  0.74419  Biso   1.000  C
  H23      1.0000 0.49280  0.37990  0.27670  Biso   1.000  H
  H24      1.0000 0.50720  0.62010  0.72330  Biso   1.000  H
  C33      1.0000 0.39481  0.82165  0.54469  Biso   1.000  C
  C34      1.0000 0.60519  0.17835  0.45531  Biso   1.000  C
  H25      1.0000 0.29460  0.77700  0.49800  Biso   1.000  H
  H26      1.0000 0.70540  0.22300  0.50200  Biso   1.000  H
  C35      1.0000 0.12589  0.01033  0.78822  Biso   1.000  C
  C36      1.0000 0.87411  0.98967  0.21178  Biso   1.000  C
  C37      1.0000 0.80920  0.46728  0.41484  Biso   1.000  C
  C38      1.0000 0.19080  0.53272  0.58516  Biso   1.000  C
  H27      1.0000 0.76450  0.38500  0.40950  Biso   1.000  H
  H28      1.0000 0.23550  0.61500  0.59050  Biso   1.000  H
  C39      1.0000 0.42758  0.86337  0.66553  Biso   1.000  C
  C40      1.0000 0.57242  0.13663  0.33447  Biso   1.000  C
  H29      1.0000 0.34770  0.84610  0.70220  Biso   1.000  H
  H30      1.0000 0.65230  0.15390  0.29780  Biso   1.000  H
  C41      1.0000 0.58020  0.93225  0.73637  Biso   1.000  C
  C42      1.0000 0.41980  0.06775  0.26363  Biso   1.000  C
  H31      1.0000 0.59780  0.95870  0.81830  Biso   1.000  H
  H32      1.0000 0.40220  0.04130  0.18170  Biso   1.000  H
  C43      1.0000 0.19190  0.06881  0.91571  Biso   1.000  C
  C44      1.0000 0.80810  0.93119  0.08429  Biso   1.000  C
  H33      1.0000 0.30430  0.09480  0.93270  Biso   1.000  H
  H34      1.0000 0.69570  0.90520  0.06730  Biso   1.000  H
  H35      1.0000 0.16270  0.00980  0.95630  Biso   1.000  H
  H36      1.0000 0.83730  0.99020  0.04370  Biso   1.000  H
  H37      1.0000 0.15200  0.14030  0.94190  Biso   1.000  H
  H38      1.0000 0.84800  0.85970  0.05810  Biso   1.000  H
  F1       1.0000 0.23976  0.65562  0.97032  Biso   1.000  F
  F2       1.0000 0.76024  0.34438  0.02968  Biso   1.000  F
  F3       1.0000 0.17505  0.83773  0.04160  Biso   1.000  F
  F4       1.0000 0.82495  0.16227  0.95840  Biso   1.000  F
  F5       1.0000 0.21907  0.78627  0.85836  Biso   1.000  F
  F6       1.0000 0.78093  0.21373  0.14164  Biso   1.000  F
  F7       1.0000 0.42265  0.84085  0.02308  Biso   1.000  F
  F8       1.0000 0.57735  0.15915  0.97692  Biso   1.000  F
  B1       1.0000 0.26580  0.78060  0.97267  Biso   1.000  B
  B2       1.0000 0.73420  0.21940  0.02733  Biso   1.000  B
