data_image0
_cell_length_a       9.0095
_cell_length_b       11.149
_cell_length_c       12.0186
_cell_angle_alpha    115.336
_cell_angle_beta     104.428
_cell_angle_gamma    93.558

_symmetry_space_group_name_H-M    "P 1"
_symmetry_int_tables_number       1

loop_
  _symmetry_equiv_pos_as_xyz
  'x, y, z'

loop_
  _atom_site_label
  _atom_site_occupancy
  _atom_site_fract_x
  _atom_site_fract_y
  _atom_site_fract_z
  _atom_site_thermal_displace_type
  _atom_site_B_iso_or_equiv
  _atom_site_type_symbol
  Cu1      1.0000 0.50000  0.50000  0.50000  Biso   1.000  Cu
  S1       1.0000 0.53660  0.86822  0.72788  Biso   1.000  S
  S2       1.0000 0.46340  0.13178  0.27212  Biso   1.000  S
  F1       1.0000 0.65638  0.08729  0.94886  Biso   1.000  F
  F2       1.0000 0.34362  0.91271  0.05114  Biso   1.000  F
  F3       1.0000 0.81223  0.94710  0.90523  Biso   1.000  F
  F4       1.0000 0.18777  0.05290  0.09477  Biso   1.000  F
  F5       1.0000 0.62045  0.90446  0.96717  Biso   1.000  F
  F6       1.0000 0.37955  0.09554  0.03283  Biso   1.000  F
  O1       1.0000 0.55124  0.72904  0.69305  Biso   1.000  O
  O2       1.0000 0.44876  0.27096  0.30695  Biso   1.000  O
  O3       1.0000 0.38760  0.89988  0.74038  Biso   1.000  O
  O4       1.0000 0.61240  0.10012  0.25962  Biso   1.000  O
  O5       1.0000 0.60650  0.92901  0.66493  Biso   1.000  O
  O6       1.0000 0.39350  0.07099  0.33507  Biso   1.000  O
  N1       1.0000 0.35260  0.25280  0.63330  Biso   1.000  N
  N2       1.0000 0.64740  0.74720  0.36670  Biso   1.000  N
  N3       1.0000 0.89570  0.35920  0.55940  Biso   1.000  N
  N4       1.0000 0.10430  0.64080  0.44060  Biso   1.000  N
  N5       1.0000 0.72410  0.48310  0.55800  Biso   1.000  N
  N6       1.0000 0.27590  0.51690  0.44200  Biso   1.000  N
  N7       1.0000 0.74390  0.35800  0.51650  Biso   1.000  N
  N8       1.0000 0.25610  0.64200  0.48350  Biso   1.000  N
  N9       1.0000 0.45310  0.41620  0.60920  Biso   1.000  N
  N10      1.0000 0.54690  0.58380  0.39080  Biso   1.000  N
  N11      1.0000 0.34310  0.30690  0.55270  Biso   1.000  N
  N12      1.0000 0.65690  0.69310  0.44730  Biso   1.000  N
  C1       1.0000 0.12670  0.14670  0.66630  Biso   1.000  C
  C2       1.0000 0.87330  0.85330  0.33370  Biso   1.000  C
  C3       1.0000 0.99260  0.19890  0.63690  Biso   1.000  C
  C4       1.0000 0.00740  0.80110  0.36310  Biso   1.000  C
  C5       1.0000 0.53540  0.43380  0.73050  Biso   1.000  C
  C6       1.0000 0.46460  0.56620  0.26950  Biso   1.000  C
  C7       1.0000 0.47120  0.32670  0.74630  Biso   1.000  C
  C8       1.0000 0.52880  0.67330  0.25370  Biso   1.000  C
  C9       1.0000 0.86720  0.56910  0.63070  Biso   1.000  C
  C10      1.0000 0.13280  0.43090  0.36930  Biso   1.000  C
  C11      1.0000 0.15120  0.11180  0.76670  Biso   1.000  C
  C12      1.0000 0.84880  0.88820  0.23330  Biso   1.000  C
  H1       1.0000 0.23880  0.07600  0.78620  Biso   1.000  H
  H2       1.0000 0.76120  0.92400  0.21380  Biso   1.000  H
  C13      1.0000 0.97760  0.48800  0.63300  Biso   1.000  C
  C14      1.0000 0.02240  0.51200  0.36700  Biso   1.000  C
  C15      1.0000 0.13710  0.54050  0.69980  Biso   1.000  C
  C16      1.0000 0.86290  0.45950  0.30020  Biso   1.000  C
  H3       1.0000 0.20990  0.48500  0.70040  Biso   1.000  H
  H4       1.0000 0.79010  0.51500  0.29960  Biso   1.000  H
  C17      1.0000 0.66070  0.53390  0.82870  Biso   1.000  C
  C18      1.0000 0.33930  0.46610  0.17130  Biso   1.000  C
  H5       1.0000 0.70260  0.60710  0.82060  Biso   1.000  H
  H6       1.0000 0.29740  0.39290  0.17940  Biso   1.000  H
  C19      1.0000 0.53020  0.31050  0.85640  Biso   1.000  C
  C20      1.0000 0.46980  0.68950  0.14360  Biso   1.000  C
  H7       1.0000 0.48780  0.23810  0.86530  Biso   1.000  H
  H8       1.0000 0.51220  0.76190  0.13470  Biso   1.000  H
  C21      1.0000 0.88950  0.21500  0.70870  Biso   1.000  C
  C22      1.0000 0.11050  0.78500  0.29130  Biso   1.000  C
  H9       1.0000 0.80070  0.24950  0.68920  Biso   1.000  H
  H10      1.0000 0.19930  0.75050  0.31080  Biso   1.000  H
  C23      1.0000 0.95260  0.23260  0.52470  Biso   1.000  C
  C24      1.0000 0.04740  0.76740  0.47530  Biso   1.000  C
  H11      1.0000 0.04480  0.23950  0.49830  Biso   1.000  H
  H12      1.0000 0.95520  0.76050  0.50170  Biso   1.000  H
  H13      1.0000 0.87320  0.16000  0.45190  Biso   1.000  H
  H14      1.0000 0.12680  0.84000  0.54810  Biso   1.000  H
  C25      1.0000 0.91150  0.71090  0.69780  Biso   1.000  C
  C26      1.0000 0.08850  0.28910  0.30220  Biso   1.000  C
  H15      1.0000 0.83910  0.76700  0.69830  Biso   1.000  H
  H16      1.0000 0.16090  0.23300  0.30170  Biso   1.000  H
  C27      1.0000 0.24590  0.12620  0.59290  Biso   1.000  C
  C28      1.0000 0.75410  0.87380  0.40710  Biso   1.000  C
  H17      1.0000 0.30640  0.06210  0.60670  Biso   1.000  H
  H18      1.0000 0.69360  0.93790  0.39330  Biso   1.000  H
  H19      1.0000 0.19130  0.08760  0.50120  Biso   1.000  H
  H20      1.0000 0.80870  0.91240  0.49880  Biso   1.000  H
  C29      1.0000 0.06750  0.76170  0.76260  Biso   1.000  C
  C30      1.0000 0.93250  0.23830  0.23740  Biso   1.000  C
  H21      1.0000 0.10130  0.85500  0.80760  Biso   1.000  H
  H22      1.0000 0.89870  0.14500  0.19240  Biso   1.000  H
  C31      1.0000 0.66190  0.95600  0.89560  Biso   1.000  C
  C32      1.0000 0.33810  0.04400  0.10440  Biso   1.000  C
  C33      1.0000 0.04790  0.12920  0.83840  Biso   1.000  C
  C34      1.0000 0.95210  0.87080  0.16160  Biso   1.000  C
  H23      1.0000 0.06690  0.10640  0.90590  Biso   1.000  H
  H24      1.0000 0.93310  0.89360  0.09410  Biso   1.000  H
  C35      1.0000 0.71800  0.51770  0.93770  Biso   1.000  C
  C36      1.0000 0.28200  0.48230  0.06230  Biso   1.000  C
  H25      1.0000 0.80150  0.58160  0.00500  Biso   1.000  H
  H26      1.0000 0.19850  0.41840  0.99500  Biso   1.000  H
  C37      1.0000 0.17870  0.67880  0.76410  Biso   1.000  C
  C38      1.0000 0.82130  0.32120  0.23590  Biso   1.000  C
  H27      1.0000 0.28300  0.71880  0.80990  Biso   1.000  H
  H28      1.0000 0.71700  0.28120  0.19010  Biso   1.000  H
  C39      1.0000 0.65390  0.40700  0.95080  Biso   1.000  C
  C40      1.0000 0.34610  0.59300  0.04920  Biso   1.000  C
  H29      1.0000 0.69750  0.39990  0.02590  Biso   1.000  H
  H30      1.0000 0.30250  0.60010  0.97410  Biso   1.000  H
  C41      1.0000 0.91680  0.18070  0.80850  Biso   1.000  C
  C42      1.0000 0.08320  0.81930  0.19150  Biso   1.000  C
  H31      1.0000 0.84660  0.19220  0.85570  Biso   1.000  H
  H32      1.0000 0.15340  0.80780  0.14430  Biso   1.000  H
