data_image0
_cell_length_a       10.2604
_cell_length_b       10.5576
_cell_length_c       11.3368
_cell_angle_alpha    101.609
_cell_angle_beta     104.227
_cell_angle_gamma    91.061

_symmetry_space_group_name_H-M    "P 1"
_symmetry_int_tables_number       1

loop_
  _symmetry_equiv_pos_as_xyz
  'x, y, z'

loop_
  _atom_site_label
  _atom_site_occupancy
  _atom_site_fract_x
  _atom_site_fract_y
  _atom_site_fract_z
  _atom_site_thermal_displace_type
  _atom_site_B_iso_or_equiv
  _atom_site_type_symbol
  Cu1      1.0000 0.10168  0.56534  0.93073  Biso   1.000  Cu
  Cu2      1.0000 0.89832  0.43466  0.06927  Biso   1.000  Cu
  Cu3      1.0000 0.24831  0.64462  0.75399  Biso   1.000  Cu
  Cu4      1.0000 0.75169  0.35538  0.24601  Biso   1.000  Cu
  Cu5      1.0000 0.00000  0.50000  0.50000  Biso   1.000  Cu
  Cl1      1.0000 0.08685  0.38029  0.00206  Biso   1.000  Cl
  Cl2      1.0000 0.91315  0.61971  0.99794  Biso   1.000  Cl
  Cl3      1.0000 0.12407  0.76264  0.88483  Biso   1.000  Cl
  Cl4      1.0000 0.87593  0.23736  0.11517  Biso   1.000  Cl
  Cl5      1.0000 0.32099  0.54216  0.92152  Biso   1.000  Cl
  Cl6      1.0000 0.67901  0.45784  0.07848  Biso   1.000  Cl
  Cl7      1.0000 0.10312  0.70559  0.58808  Biso   1.000  Cl
  Cl8      1.0000 0.89688  0.29441  0.41192  Biso   1.000  Cl
  Cl9      1.0000 0.99203  0.54672  0.30608  Biso   1.000  Cl
  Cl10     1.0000 0.00797  0.45328  0.69392  Biso   1.000  Cl
  N1       1.0000 0.40330  0.80290  0.79580  Biso   1.000  N
  N2       1.0000 0.59670  0.19710  0.20420  Biso   1.000  N
  N3       1.0000 0.53240  0.78420  0.82440  Biso   1.000  N
  N4       1.0000 0.46760  0.21580  0.17560  Biso   1.000  N
  N5       1.0000 0.60320  0.90010  0.85450  Biso   1.000  N
  N6       1.0000 0.39680  0.09990  0.14550  Biso   1.000  N
  N7       1.0000 0.69880  0.63570  0.52990  Biso   1.000  N
  N8       1.0000 0.30120  0.36430  0.47010  Biso   1.000  N
  N9       1.0000 0.76570  0.54970  0.46830  Biso   1.000  N
  N10      1.0000 0.23430  0.45030  0.53170  Biso   1.000  N
  N11      1.0000 0.68430  0.49620  0.36000  Biso   1.000  N
  N12      1.0000 0.31570  0.50380  0.64000  Biso   1.000  N
  C1       1.0000 0.38890  0.93460  0.80690  Biso   1.000  C
  C2       1.0000 0.61110  0.06540  0.19310  Biso   1.000  C
  C3       1.0000 0.51840  0.99770  0.84640  Biso   1.000  C
  C4       1.0000 0.48160  0.00230  0.15360  Biso   1.000  C
  C5       1.0000 0.54000  0.13230  0.86930  Biso   1.000  C
  C6       1.0000 0.46000  0.86770  0.13070  Biso   1.000  C
  H1       1.0000 0.62620  0.17360  0.89550  Biso   1.000  H
  H2       1.0000 0.37380  0.82640  0.10450  Biso   1.000  H
  C7       1.0000 0.42620  0.20010  0.85090  Biso   1.000  C
  C8       1.0000 0.57380  0.79990  0.14910  Biso   1.000  C
  H3       1.0000 0.43580  0.29010  0.86630  Biso   1.000  H
  H4       1.0000 0.56420  0.70990  0.13370  Biso   1.000  H
  C9       1.0000 0.29500  0.13760  0.80950  Biso   1.000  C
  C10      1.0000 0.70500  0.86240  0.19050  Biso   1.000  C
  H5       1.0000 0.22110  0.18750  0.79710  Biso   1.000  H
  H6       1.0000 0.77890  0.81250  0.20290  Biso   1.000  H
  C11      1.0000 0.27380  0.00500  0.78690  Biso   1.000  C
  C12      1.0000 0.72620  0.99500  0.21310  Biso   1.000  C
  H7       1.0000 0.18750  0.96400  0.75960  Biso   1.000  H
  H8       1.0000 0.81250  0.03600  0.24040  Biso   1.000  H
  C13      1.0000 0.75080  0.90600  0.88310  Biso   1.000  C
  C14      1.0000 0.24920  0.09400  0.11690  Biso   1.000  C
  H9       1.0000 0.78170  0.82310  0.89820  Biso   1.000  H
  H10      1.0000 0.21830  0.17690  0.10180  Biso   1.000  H
  H11      1.0000 0.78780  0.97120  0.95830  Biso   1.000  H
  H12      1.0000 0.21220  0.02880  0.04170  Biso   1.000  H
  C15      1.0000 0.80230  0.93890  0.77670  Biso   1.000  C
  C16      1.0000 0.19770  0.06110  0.22330  Biso   1.000  C
  C17      1.0000 0.79400  0.84970  0.66490  Biso   1.000  C
  C18      1.0000 0.20600  0.15030  0.33510  Biso   1.000  C
  C19      1.0000 0.82800  0.89090  0.56730  Biso   1.000  C
  C20      1.0000 0.17200  0.10910  0.43270  Biso   1.000  C
  H13      1.0000 0.81890  0.83250  0.49190  Biso   1.000  H
  H14      1.0000 0.18110  0.16750  0.50810  Biso   1.000  H
  C21      1.0000 0.87530  0.01780  0.58010  Biso   1.000  C
  C22      1.0000 0.12470  0.98220  0.41990  Biso   1.000  C
  H15      1.0000 0.89480  0.04510  0.51290  Biso   1.000  H
  H16      1.0000 0.10520  0.95490  0.48710  Biso   1.000  H
  C23      1.0000 0.89360  0.10380  0.69310  Biso   1.000  C
  C24      1.0000 0.10640  0.89620  0.30690  Biso   1.000  C
  H17      1.0000 0.93120  0.18740  0.70410  Biso   1.000  H
  H18      1.0000 0.06880  0.81260  0.29590  Biso   1.000  H
  C25      1.0000 0.85550  0.06470  0.78980  Biso   1.000  C
  C26      1.0000 0.14450  0.93530  0.21020  Biso   1.000  C
  H19      1.0000 0.86560  0.12360  0.86500  Biso   1.000  H
  H20      1.0000 0.13440  0.87640  0.13500  Biso   1.000  H
  C27      1.0000 0.76130  0.70650  0.65680  Biso   1.000  C
  C28      1.0000 0.23870  0.29350  0.34320  Biso   1.000  C
  H21      1.0000 0.84370  0.66740  0.68900  Biso   1.000  H
  H22      1.0000 0.15630  0.33260  0.31100  Biso   1.000  H
  H23      1.0000 0.70090  0.69830  0.70900  Biso   1.000  H
  H24      1.0000 0.29910  0.30170  0.29100  Biso   1.000  H
  C29      1.0000 0.57110  0.63830  0.46010  Biso   1.000  C
  C30      1.0000 0.42890  0.36170  0.53990  Biso   1.000  C
  C31      1.0000 0.56110  0.54820  0.35010  Biso   1.000  C
  C32      1.0000 0.43890  0.45180  0.64990  Biso   1.000  C
  C33      1.0000 0.44130  0.52540  0.25460  Biso   1.000  C
  C34      1.0000 0.55870  0.47460  0.74540  Biso   1.000  C
  H25      1.0000 0.43420  0.46790  0.17910  Biso   1.000  H
  H26      1.0000 0.56580  0.53210  0.82090  Biso   1.000  H
  C35      1.0000 0.33460  0.59390  0.27990  Biso   1.000  C
  C36      1.0000 0.66540  0.40610  0.72010  Biso   1.000  C
  H27      1.0000 0.25270  0.58160  0.22000  Biso   1.000  H
  H28      1.0000 0.74730  0.41840  0.78000  Biso   1.000  H
  C37      1.0000 0.34610  0.68180  0.39360  Biso   1.000  C
  C38      1.0000 0.65390  0.31820  0.60640  Biso   1.000  C
  H29      1.0000 0.27060  0.72430  0.40630  Biso   1.000  H
  H30      1.0000 0.72940  0.27570  0.59370  Biso   1.000  H
  C39      1.0000 0.46190  0.70770  0.48570  Biso   1.000  C
  C40      1.0000 0.53810  0.29230  0.51430  Biso   1.000  C
  H31      1.0000 0.46860  0.76690  0.56020  Biso   1.000  H
  H32      1.0000 0.53140  0.23310  0.43980  Biso   1.000  H
