data_image0
_cell_length_a       24.463
_cell_length_b       24.463
_cell_length_c       10.063
_cell_angle_alpha    90
_cell_angle_beta     90
_cell_angle_gamma    120

_symmetry_space_group_name_H-M    "P 1"
_symmetry_int_tables_number       1

loop_
  _symmetry_equiv_pos_as_xyz
  'x, y, z'

loop_
  _atom_site_label
  _atom_site_occupancy
  _atom_site_fract_x
  _atom_site_fract_y
  _atom_site_fract_z
  _atom_site_thermal_displace_type
  _atom_site_B_iso_or_equiv
  _atom_site_type_symbol
  Cu1      1.0000 0.33790  0.22515  0.73020  Biso   1.000  Cu
  Cu2      1.0000 0.67123  0.89182  0.39687  Biso   1.000  Cu
  Cu3      1.0000 0.00457  0.55848  0.06353  Biso   1.000  Cu
  Cu4      1.0000 0.77485  0.11275  0.73020  Biso   1.000  Cu
  Cu5      1.0000 0.44152  0.44608  0.06353  Biso   1.000  Cu
  Cu6      1.0000 0.88725  0.66210  0.73020  Biso   1.000  Cu
  Cu7      1.0000 0.55392  0.99543  0.06353  Biso   1.000  Cu
  Cu8      1.0000 0.10818  0.77942  0.39687  Biso   1.000  Cu
  Cu9      1.0000 0.22058  0.32877  0.39687  Biso   1.000  Cu
  Cu10     1.0000 0.66210  0.77485  0.26980  Biso   1.000  Cu
  Cu11     1.0000 0.99543  0.44152  0.93647  Biso   1.000  Cu
  Cu12     1.0000 0.32877  0.10818  0.60313  Biso   1.000  Cu
  Cu13     1.0000 0.22515  0.88725  0.26980  Biso   1.000  Cu
  Cu14     1.0000 0.89182  0.22058  0.60313  Biso   1.000  Cu
  Cu15     1.0000 0.11275  0.33790  0.26980  Biso   1.000  Cu
  Cu16     1.0000 0.77942  0.67123  0.60313  Biso   1.000  Cu
  Cu17     1.0000 0.55848  0.55392  0.93647  Biso   1.000  Cu
  Cu18     1.0000 0.44608  0.00457  0.93647  Biso   1.000  Cu
  O1       1.0000 0.38410  0.18120  0.71530  Biso   1.000  O
  O2       1.0000 0.71743  0.84787  0.38197  Biso   1.000  O
  O3       1.0000 0.05077  0.51453  0.04863  Biso   1.000  O
  O4       1.0000 0.81880  0.20290  0.71530  Biso   1.000  O
  O5       1.0000 0.48547  0.53623  0.04863  Biso   1.000  O
  O6       1.0000 0.79710  0.61590  0.71530  Biso   1.000  O
  O7       1.0000 0.46377  0.94923  0.04863  Biso   1.000  O
  O8       1.0000 0.15213  0.86957  0.38197  Biso   1.000  O
  O9       1.0000 0.13043  0.28257  0.38197  Biso   1.000  O
  O10      1.0000 0.61590  0.81880  0.28470  Biso   1.000  O
  O11      1.0000 0.94923  0.48547  0.95137  Biso   1.000  O
  O12      1.0000 0.28257  0.15213  0.61803  Biso   1.000  O
  O13      1.0000 0.18120  0.79710  0.28470  Biso   1.000  O
  O14      1.0000 0.84787  0.13043  0.61803  Biso   1.000  O
  O15      1.0000 0.20290  0.38410  0.28470  Biso   1.000  O
  O16      1.0000 0.86957  0.71743  0.61803  Biso   1.000  O
  O17      1.0000 0.51453  0.46377  0.95137  Biso   1.000  O
  O18      1.0000 0.53623  0.05077  0.95137  Biso   1.000  O
  O19      1.0000 0.41440  0.32120  0.64520  Biso   1.000  O
  O20      1.0000 0.74773  0.98787  0.31187  Biso   1.000  O
  O21      1.0000 0.08107  0.65453  0.97853  Biso   1.000  O
  O22      1.0000 0.67880  0.09320  0.64520  Biso   1.000  O
  O23      1.0000 0.34547  0.42653  0.97853  Biso   1.000  O
  O24      1.0000 0.90680  0.58560  0.64520  Biso   1.000  O
  O25      1.0000 0.57347  0.91893  0.97853  Biso   1.000  O
  O26      1.0000 0.01213  0.75987  0.31187  Biso   1.000  O
  O27      1.0000 0.24013  0.25227  0.31187  Biso   1.000  O
  O28      1.0000 0.58560  0.67880  0.35480  Biso   1.000  O
  O29      1.0000 0.91893  0.34547  0.02147  Biso   1.000  O
  O30      1.0000 0.25227  0.01213  0.68813  Biso   1.000  O
  O31      1.0000 0.32120  0.90680  0.35480  Biso   1.000  O
  O32      1.0000 0.98787  0.24013  0.68813  Biso   1.000  O
  O33      1.0000 0.09320  0.41440  0.35480  Biso   1.000  O
  O34      1.0000 0.75987  0.74773  0.68813  Biso   1.000  O
  O35      1.0000 0.65453  0.57347  0.02147  Biso   1.000  O
  O36      1.0000 0.42653  0.08107  0.02147  Biso   1.000  O
  O37      1.0000 0.39450  0.27280  0.45670  Biso   1.000  O
  O38      1.0000 0.72783  0.93947  0.12337  Biso   1.000  O
  O39      1.0000 0.06117  0.60613  0.79003  Biso   1.000  O
  O40      1.0000 0.72720  0.12170  0.45670  Biso   1.000  O
  O41      1.0000 0.39387  0.45503  0.79003  Biso   1.000  O
  O42      1.0000 0.87830  0.60550  0.45670  Biso   1.000  O
  O43      1.0000 0.54497  0.93883  0.79003  Biso   1.000  O
  O44      1.0000 0.06053  0.78837  0.12337  Biso   1.000  O
  O45      1.0000 0.21163  0.27217  0.12337  Biso   1.000  O
  O46      1.0000 0.60550  0.72720  0.54330  Biso   1.000  O
  O47      1.0000 0.93883  0.39387  0.20997  Biso   1.000  O
  O48      1.0000 0.27217  0.06053  0.87663  Biso   1.000  O
  O49      1.0000 0.27280  0.87830  0.54330  Biso   1.000  O
  O50      1.0000 0.93947  0.21163  0.87663  Biso   1.000  O
  O51      1.0000 0.12170  0.39450  0.54330  Biso   1.000  O
  O52      1.0000 0.78837  0.72783  0.87663  Biso   1.000  O
  O53      1.0000 0.60613  0.54497  0.20997  Biso   1.000  O
  O54      1.0000 0.45503  0.06117  0.20997  Biso   1.000  O
  O55      1.0000 0.46000  0.37340  0.46610  Biso   1.000  O
  O56      1.0000 0.79333  0.04007  0.13277  Biso   1.000  O
  O57      1.0000 0.12667  0.70673  0.79943  Biso   1.000  O
  O58      1.0000 0.62660  0.08660  0.46610  Biso   1.000  O
  O59      1.0000 0.29327  0.41993  0.79943  Biso   1.000  O
  O60      1.0000 0.91340  0.54000  0.46610  Biso   1.000  O
  O61      1.0000 0.58007  0.87333  0.79943  Biso   1.000  O
  O62      1.0000 0.95993  0.75327  0.13277  Biso   1.000  O
  O63      1.0000 0.24673  0.20667  0.13277  Biso   1.000  O
  O64      1.0000 0.54000  0.62660  0.53390  Biso   1.000  O
  O65      1.0000 0.87333  0.29327  0.20057  Biso   1.000  O
  O66      1.0000 0.20667  0.95993  0.86723  Biso   1.000  O
  O67      1.0000 0.37340  0.91340  0.53390  Biso   1.000  O
  O68      1.0000 0.04007  0.24673  0.86723  Biso   1.000  O
  O69      1.0000 0.08660  0.46000  0.53390  Biso   1.000  O
  O70      1.0000 0.75327  0.79333  0.86723  Biso   1.000  O
  O71      1.0000 0.70673  0.58007  0.20057  Biso   1.000  O
  O72      1.0000 0.41993  0.12667  0.20057  Biso   1.000  O
  O73      1.0000 0.10900  0.06700  0.28900  Biso   1.000  O
  O74      1.0000 0.44233  0.73367  0.95567  Biso   1.000  O
  O75      1.0000 0.77567  0.40033  0.62233  Biso   1.000  O
  O76      1.0000 0.93300  0.04200  0.28900  Biso   1.000  O
  O77      1.0000 0.59967  0.37533  0.62233  Biso   1.000  O
  O78      1.0000 0.95800  0.89100  0.28900  Biso   1.000  O
  O79      1.0000 0.62467  0.22433  0.62233  Biso   1.000  O
  O80      1.0000 0.26633  0.70867  0.95567  Biso   1.000  O
  O81      1.0000 0.29133  0.55767  0.95567  Biso   1.000  O
  O82      1.0000 0.89100  0.93300  0.71100  Biso   1.000  O
  O83      1.0000 0.22433  0.59967  0.37767  Biso   1.000  O
  O84      1.0000 0.55767  0.26633  0.04433  Biso   1.000  O
  O85      1.0000 0.06700  0.95800  0.71100  Biso   1.000  O
  O86      1.0000 0.73367  0.29133  0.04433  Biso   1.000  O
  O87      1.0000 0.04200  0.10900  0.71100  Biso   1.000  O
  O88      1.0000 0.70867  0.44233  0.04433  Biso   1.000  O
  O89      1.0000 0.40033  0.62467  0.37767  Biso   1.000  O
  O90      1.0000 0.37533  0.77567  0.37767  Biso   1.000  O
  O91      1.0000 0.01800  0.06700  0.86900  Biso   1.000  O
  O92      1.0000 0.35133  0.73367  0.53567  Biso   1.000  O
  O93      1.0000 0.68467  0.40033  0.20233  Biso   1.000  O
  O94      1.0000 0.93300  0.95100  0.86900  Biso   1.000  O
  O95      1.0000 0.59967  0.28433  0.20233  Biso   1.000  O
  O96      1.0000 0.04900  0.98200  0.86900  Biso   1.000  O
  O97      1.0000 0.71567  0.31533  0.20233  Biso   1.000  O
  O98      1.0000 0.26633  0.61767  0.53567  Biso   1.000  O
  O99      1.0000 0.38233  0.64867  0.53567  Biso   1.000  O
  O100     1.0000 0.98200  0.93300  0.13100  Biso   1.000  O
  O101     1.0000 0.31533  0.59967  0.79767  Biso   1.000  O
  O102     1.0000 0.64867  0.26633  0.46433  Biso   1.000  O
  O103     1.0000 0.06700  0.04900  0.13100  Biso   1.000  O
  O104     1.0000 0.73367  0.38233  0.46433  Biso   1.000  O
  O105     1.0000 0.95100  0.01800  0.13100  Biso   1.000  O
  O106     1.0000 0.61767  0.35133  0.46433  Biso   1.000  O
  O107     1.0000 0.40033  0.71567  0.79767  Biso   1.000  O
  O108     1.0000 0.28433  0.68467  0.79767  Biso   1.000  O
  O109     1.0000 0.07800  0.04400  0.40900  Biso   1.000  O
  O110     1.0000 0.41133  0.71067  0.07567  Biso   1.000  O
  O111     1.0000 0.74467  0.37733  0.74233  Biso   1.000  O
  O112     1.0000 0.95600  0.03400  0.40900  Biso   1.000  O
  O113     1.0000 0.62267  0.36733  0.74233  Biso   1.000  O
  O114     1.0000 0.96600  0.92200  0.40900  Biso   1.000  O
  O115     1.0000 0.63267  0.25533  0.74233  Biso   1.000  O
  O116     1.0000 0.28933  0.70067  0.07567  Biso   1.000  O
  O117     1.0000 0.29933  0.58867  0.07567  Biso   1.000  O
  O118     1.0000 0.92200  0.95600  0.59100  Biso   1.000  O
  O119     1.0000 0.25533  0.62267  0.25767  Biso   1.000  O
  O120     1.0000 0.58867  0.28933  0.92433  Biso   1.000  O
  O121     1.0000 0.04400  0.96600  0.59100  Biso   1.000  O
  O122     1.0000 0.71067  0.29933  0.92433  Biso   1.000  O
  O123     1.0000 0.03400  0.07800  0.59100  Biso   1.000  O
  O124     1.0000 0.70067  0.41133  0.92433  Biso   1.000  O
  O125     1.0000 0.37733  0.63267  0.25767  Biso   1.000  O
  O126     1.0000 0.36733  0.74467  0.25767  Biso   1.000  O
  O127     1.0000 0.12100  0.09900  0.98300  Biso   1.000  O
  O128     1.0000 0.45433  0.76567  0.64967  Biso   1.000  O
  O129     1.0000 0.78767  0.43233  0.31633  Biso   1.000  O
  O130     1.0000 0.90100  0.02200  0.98300  Biso   1.000  O
  O131     1.0000 0.56767  0.35533  0.31633  Biso   1.000  O
  O132     1.0000 0.97800  0.87900  0.98300  Biso   1.000  O
  O133     1.0000 0.64467  0.21233  0.31633  Biso   1.000  O
  O134     1.0000 0.23433  0.68867  0.64967  Biso   1.000  O
  O135     1.0000 0.31133  0.54567  0.64967  Biso   1.000  O
  O136     1.0000 0.87900  0.90100  0.01700  Biso   1.000  O
  O137     1.0000 0.21233  0.56767  0.68367  Biso   1.000  O
  O138     1.0000 0.54567  0.23433  0.35033  Biso   1.000  O
  O139     1.0000 0.09900  0.97800  0.01700  Biso   1.000  O
  O140     1.0000 0.76567  0.31133  0.35033  Biso   1.000  O
  O141     1.0000 0.02200  0.12100  0.01700  Biso   1.000  O
  O142     1.0000 0.68867  0.45433  0.35033  Biso   1.000  O
  O143     1.0000 0.43233  0.64467  0.68367  Biso   1.000  O
  O144     1.0000 0.35533  0.78767  0.68367  Biso   1.000  O
  N1       1.0000 0.27830  0.25720  0.72140  Biso   1.000  N
  N2       1.0000 0.61163  0.92387  0.38807  Biso   1.000  N
  N3       1.0000 0.94497  0.59053  0.05473  Biso   1.000  N
  N4       1.0000 0.74280  0.02110  0.72140  Biso   1.000  N
  N5       1.0000 0.40947  0.35443  0.05473  Biso   1.000  N
  N6       1.0000 0.97890  0.72170  0.72140  Biso   1.000  N
  N7       1.0000 0.64557  0.05503  0.05473  Biso   1.000  N
  N8       1.0000 0.07613  0.68777  0.38807  Biso   1.000  N
  N9       1.0000 0.31223  0.38837  0.38807  Biso   1.000  N
  N10      1.0000 0.72170  0.74280  0.27860  Biso   1.000  N
  N11      1.0000 0.05503  0.40947  0.94527  Biso   1.000  N
  N12      1.0000 0.38837  0.07613  0.61193  Biso   1.000  N
  N13      1.0000 0.25720  0.97890  0.27860  Biso   1.000  N
  N14      1.0000 0.92387  0.31223  0.61193  Biso   1.000  N
  N15      1.0000 0.02110  0.27830  0.27860  Biso   1.000  N
  N16      1.0000 0.68777  0.61163  0.61193  Biso   1.000  N
  N17      1.0000 0.59053  0.64557  0.94527  Biso   1.000  N
  N18      1.0000 0.35443  0.94497  0.94527  Biso   1.000  N
  N19      1.0000 0.22310  0.29210  0.58270  Biso   1.000  N
  N20      1.0000 0.55643  0.95877  0.24937  Biso   1.000  N
  N21      1.0000 0.88977  0.62543  0.91603  Biso   1.000  N
  N22      1.0000 0.70790  0.93100  0.58270  Biso   1.000  N
  N23      1.0000 0.37457  0.26433  0.91603  Biso   1.000  N
  N24      1.0000 0.06900  0.77690  0.58270  Biso   1.000  N
  N25      1.0000 0.73567  0.11023  0.91603  Biso   1.000  N
  N26      1.0000 0.04123  0.59767  0.24937  Biso   1.000  N
  N27      1.0000 0.40233  0.44357  0.24937  Biso   1.000  N
  N28      1.0000 0.77690  0.70790  0.41730  Biso   1.000  N
  N29      1.0000 0.11023  0.37457  0.08397  Biso   1.000  N
  N30      1.0000 0.44357  0.04123  0.75063  Biso   1.000  N
  N31      1.0000 0.29210  0.06900  0.41730  Biso   1.000  N
  N32      1.0000 0.95877  0.40233  0.75063  Biso   1.000  N
  N33      1.0000 0.93100  0.22310  0.41730  Biso   1.000  N
  N34      1.0000 0.59767  0.55643  0.75063  Biso   1.000  N
  N35      1.0000 0.62543  0.73567  0.08397  Biso   1.000  N
  N36      1.0000 0.26433  0.88977  0.08397  Biso   1.000  N
  N37      1.0000 0.13460  0.29290  0.66090  Biso   1.000  N
  N38      1.0000 0.46793  0.95957  0.32757  Biso   1.000  N
  N39      1.0000 0.80127  0.62623  0.99423  Biso   1.000  N
  N40      1.0000 0.70710  0.84170  0.66090  Biso   1.000  N
  N41      1.0000 0.37377  0.17503  0.99423  Biso   1.000  N
  N42      1.0000 0.15830  0.86540  0.66090  Biso   1.000  N
  N43      1.0000 0.82497  0.19873  0.99423  Biso   1.000  N
  N44      1.0000 0.04043  0.50837  0.32757  Biso   1.000  N
  N45      1.0000 0.49163  0.53207  0.32757  Biso   1.000  N
  N46      1.0000 0.86540  0.70710  0.33910  Biso   1.000  N
  N47      1.0000 0.19873  0.37377  0.00577  Biso   1.000  N
  N48      1.0000 0.53207  0.04043  0.67243  Biso   1.000  N
  N49      1.0000 0.29290  0.15830  0.33910  Biso   1.000  N
  N50      1.0000 0.95957  0.49163  0.67243  Biso   1.000  N
  N51      1.0000 0.84170  0.13460  0.33910  Biso   1.000  N
  N52      1.0000 0.50837  0.46793  0.67243  Biso   1.000  N
  N53      1.0000 0.62623  0.82497  0.00577  Biso   1.000  N
  N54      1.0000 0.17503  0.80127  0.00577  Biso   1.000  N
  N55      1.0000 0.42320  0.32220  0.52140  Biso   1.000  N
  N56      1.0000 0.75653  0.98887  0.18807  Biso   1.000  N
  N57      1.0000 0.08987  0.65553  0.85473  Biso   1.000  N
  N58      1.0000 0.67780  0.10100  0.52140  Biso   1.000  N
  N59      1.0000 0.34447  0.43433  0.85473  Biso   1.000  N
  N60      1.0000 0.89900  0.57680  0.52140  Biso   1.000  N
  N61      1.0000 0.56567  0.91013  0.85473  Biso   1.000  N
  N62      1.0000 0.01113  0.76767  0.18807  Biso   1.000  N
  N63      1.0000 0.23233  0.24347  0.18807  Biso   1.000  N
  N64      1.0000 0.57680  0.67780  0.47860  Biso   1.000  N
  N65      1.0000 0.91013  0.34447  0.14527  Biso   1.000  N
  N66      1.0000 0.24347  0.01113  0.81193  Biso   1.000  N
  N67      1.0000 0.32220  0.89900  0.47860  Biso   1.000  N
  N68      1.0000 0.98887  0.23233  0.81193  Biso   1.000  N
  N69      1.0000 0.10100  0.42320  0.47860  Biso   1.000  N
  N70      1.0000 0.76767  0.75653  0.81193  Biso   1.000  N
  N71      1.0000 0.65553  0.56567  0.14527  Biso   1.000  N
  N72      1.0000 0.43433  0.08987  0.14527  Biso   1.000  N
  C1       1.0000 0.18810  0.25820  0.80690  Biso   1.000  C
  C2       1.0000 0.52143  0.92487  0.47357  Biso   1.000  C
  C3       1.0000 0.85477  0.59153  0.14023  Biso   1.000  C
  C4       1.0000 0.74180  0.92990  0.80690  Biso   1.000  C
  C5       1.0000 0.40847  0.26323  0.14023  Biso   1.000  C
  C6       1.0000 0.07010  0.81190  0.80690  Biso   1.000  C
  C7       1.0000 0.73677  0.14523  0.14023  Biso   1.000  C
  C8       1.0000 0.07513  0.59657  0.47357  Biso   1.000  C
  C9       1.0000 0.40343  0.47857  0.47357  Biso   1.000  C
  C10      1.0000 0.81190  0.74180  0.19310  Biso   1.000  C
  C11      1.0000 0.14523  0.40847  0.85977  Biso   1.000  C
  C12      1.0000 0.47857  0.07513  0.52643  Biso   1.000  C
  C13      1.0000 0.25820  0.07010  0.19310  Biso   1.000  C
  C14      1.0000 0.92487  0.40343  0.52643  Biso   1.000  C
  C15      1.0000 0.92990  0.18810  0.19310  Biso   1.000  C
  C16      1.0000 0.59657  0.52143  0.52643  Biso   1.000  C
  C17      1.0000 0.59153  0.73677  0.85977  Biso   1.000  C
  C18      1.0000 0.26323  0.85477  0.85977  Biso   1.000  C
  C19      1.0000 0.26850  0.27890  0.60770  Biso   1.000  C
  C20      1.0000 0.60183  0.94557  0.27437  Biso   1.000  C
  C21      1.0000 0.93517  0.61223  0.94103  Biso   1.000  C
  C22      1.0000 0.72110  0.98960  0.60770  Biso   1.000  C
  C23      1.0000 0.38777  0.32293  0.94103  Biso   1.000  C
  C24      1.0000 0.01040  0.73150  0.60770  Biso   1.000  C
  C25      1.0000 0.67707  0.06483  0.94103  Biso   1.000  C
  C26      1.0000 0.05443  0.65627  0.27437  Biso   1.000  C
  C27      1.0000 0.34373  0.39817  0.27437  Biso   1.000  C
  C28      1.0000 0.73150  0.72110  0.39230  Biso   1.000  C
  C29      1.0000 0.06483  0.38777  0.05897  Biso   1.000  C
  C30      1.0000 0.39817  0.05443  0.72563  Biso   1.000  C
  C31      1.0000 0.27890  0.01040  0.39230  Biso   1.000  C
  C32      1.0000 0.94557  0.34373  0.72563  Biso   1.000  C
  C33      1.0000 0.98960  0.26850  0.39230  Biso   1.000  C
  C34      1.0000 0.65627  0.60183  0.72563  Biso   1.000  C
  C35      1.0000 0.61223  0.67707  0.05897  Biso   1.000  C
  C36      1.0000 0.32293  0.93517  0.05897  Biso   1.000  C
  C37      1.0000 0.23650  0.24720  0.82230  Biso   1.000  C
  C38      1.0000 0.56983  0.91387  0.48897  Biso   1.000  C
  C39      1.0000 0.90317  0.58053  0.15563  Biso   1.000  C
  C40      1.0000 0.75280  0.98930  0.82230  Biso   1.000  C
  C41      1.0000 0.41947  0.32263  0.15563  Biso   1.000  C
  C42      1.0000 0.01070  0.76350  0.82230  Biso   1.000  C
  C43      1.0000 0.67737  0.09683  0.15563  Biso   1.000  C
  C44      1.0000 0.08613  0.65597  0.48897  Biso   1.000  C
  C45      1.0000 0.34403  0.43017  0.48897  Biso   1.000  C
  C46      1.0000 0.76350  0.75280  0.17770  Biso   1.000  C
  C47      1.0000 0.09683  0.41947  0.84437  Biso   1.000  C
  C48      1.0000 0.43017  0.08613  0.51103  Biso   1.000  C
  C49      1.0000 0.24720  0.01070  0.17770  Biso   1.000  C
  C50      1.0000 0.91387  0.34403  0.51103  Biso   1.000  C
  C51      1.0000 0.98930  0.23650  0.17770  Biso   1.000  C
  C52      1.0000 0.65597  0.56983  0.51103  Biso   1.000  C
  C53      1.0000 0.58053  0.67737  0.84437  Biso   1.000  C
  C54      1.0000 0.32263  0.90317  0.84437  Biso   1.000  C
  C55      1.0000 0.18070  0.28140  0.68250  Biso   1.000  C
  C56      1.0000 0.51403  0.94807  0.34917  Biso   1.000  C
  C57      1.0000 0.84737  0.61473  0.01583  Biso   1.000  C
  C58      1.0000 0.71860  0.89930  0.68250  Biso   1.000  C
  C59      1.0000 0.38527  0.23263  0.01583  Biso   1.000  C
  C60      1.0000 0.10070  0.81930  0.68250  Biso   1.000  C
  C61      1.0000 0.76737  0.15263  0.01583  Biso   1.000  C
  C62      1.0000 0.05193  0.56597  0.34917  Biso   1.000  C
  C63      1.0000 0.43403  0.48597  0.34917  Biso   1.000  C
  C64      1.0000 0.81930  0.71860  0.31750  Biso   1.000  C
  C65      1.0000 0.15263  0.38527  0.98417  Biso   1.000  C
  C66      1.0000 0.48597  0.05193  0.65083  Biso   1.000  C
  C67      1.0000 0.28140  0.10070  0.31750  Biso   1.000  C
  C68      1.0000 0.94807  0.43403  0.65083  Biso   1.000  C
  C69      1.0000 0.89930  0.18070  0.31750  Biso   1.000  C
  C70      1.0000 0.56597  0.51403  0.65083  Biso   1.000  C
  C71      1.0000 0.61473  0.76737  0.98417  Biso   1.000  C
  C72      1.0000 0.23263  0.84737  0.98417  Biso   1.000  C
  C73      1.0000 0.45140  0.21370  0.71510  Biso   1.000  C
  C74      1.0000 0.78473  0.88037  0.38177  Biso   1.000  C
  C75      1.0000 0.11807  0.54703  0.04843  Biso   1.000  C
  C76      1.0000 0.78630  0.23770  0.71510  Biso   1.000  C
  C77      1.0000 0.45297  0.57103  0.04843  Biso   1.000  C
  C78      1.0000 0.76230  0.54860  0.71510  Biso   1.000  C
  C79      1.0000 0.42897  0.88193  0.04843  Biso   1.000  C
  C80      1.0000 0.11963  0.90437  0.38177  Biso   1.000  C
  C81      1.0000 0.09563  0.21527  0.38177  Biso   1.000  C
  C82      1.0000 0.54860  0.78630  0.28490  Biso   1.000  C
  C83      1.0000 0.88193  0.45297  0.95157  Biso   1.000  C
  C84      1.0000 0.21527  0.11963  0.61823  Biso   1.000  C
  C85      1.0000 0.21370  0.76230  0.28490  Biso   1.000  C
  C86      1.0000 0.88037  0.09563  0.61823  Biso   1.000  C
  C87      1.0000 0.23770  0.45140  0.28490  Biso   1.000  C
  C88      1.0000 0.90437  0.78473  0.61823  Biso   1.000  C
  C89      1.0000 0.54703  0.42897  0.95157  Biso   1.000  C
  C90      1.0000 0.57103  0.11807  0.95157  Biso   1.000  C
  H1       1.0000 0.29720  0.28610  0.53730  Biso   1.000  H
  H2       1.0000 0.63053  0.95277  0.20397  Biso   1.000  H
  H3       1.0000 0.96387  0.61943  0.87063  Biso   1.000  H
  H4       1.0000 0.71390  0.01110  0.53730  Biso   1.000  H
  H5       1.0000 0.38057  0.34443  0.87063  Biso   1.000  H
  H6       1.0000 0.98890  0.70280  0.53730  Biso   1.000  H
  H7       1.0000 0.65557  0.03613  0.87063  Biso   1.000  H
  H8       1.0000 0.04723  0.67777  0.20397  Biso   1.000  H
  H9       1.0000 0.32223  0.36947  0.20397  Biso   1.000  H
  H10      1.0000 0.70280  0.71390  0.46270  Biso   1.000  H
  H11      1.0000 0.03613  0.38057  0.12937  Biso   1.000  H
  H12      1.0000 0.36947  0.04723  0.79603  Biso   1.000  H
  H13      1.0000 0.28610  0.98890  0.46270  Biso   1.000  H
  H14      1.0000 0.95277  0.32223  0.79603  Biso   1.000  H
  H15      1.0000 0.01110  0.29720  0.46270  Biso   1.000  H
  H16      1.0000 0.67777  0.63053  0.79603  Biso   1.000  H
  H17      1.0000 0.61943  0.65557  0.12937  Biso   1.000  H
  H18      1.0000 0.34443  0.96387  0.12937  Biso   1.000  H
  H19      1.0000 0.15920  0.25040  0.87730  Biso   1.000  H
  H20      1.0000 0.49253  0.91707  0.54397  Biso   1.000  H
  H21      1.0000 0.82587  0.58373  0.21063  Biso   1.000  H
  H22      1.0000 0.74960  0.90880  0.87730  Biso   1.000  H
  H23      1.0000 0.41627  0.24213  0.21063  Biso   1.000  H
  H24      1.0000 0.09120  0.84080  0.87730  Biso   1.000  H
  H25      1.0000 0.75787  0.17413  0.21063  Biso   1.000  H
  H26      1.0000 0.08293  0.57547  0.54397  Biso   1.000  H
  H27      1.0000 0.42453  0.50747  0.54397  Biso   1.000  H
  H28      1.0000 0.84080  0.74960  0.12270  Biso   1.000  H
  H29      1.0000 0.17413  0.41627  0.78937  Biso   1.000  H
  H30      1.0000 0.50747  0.08293  0.45603  Biso   1.000  H
  H31      1.0000 0.25040  0.09120  0.12270  Biso   1.000  H
  H32      1.0000 0.91707  0.42453  0.45603  Biso   1.000  H
  H33      1.0000 0.90880  0.15920  0.12270  Biso   1.000  H
  H34      1.0000 0.57547  0.49253  0.45603  Biso   1.000  H
  H35      1.0000 0.58373  0.75787  0.78937  Biso   1.000  H
  H36      1.0000 0.24213  0.82587  0.78937  Biso   1.000  H
  H37      1.0000 0.24150  0.23130  0.90460  Biso   1.000  H
  H38      1.0000 0.57483  0.89797  0.57127  Biso   1.000  H
  H39      1.0000 0.90817  0.56463  0.23793  Biso   1.000  H
  H40      1.0000 0.76870  0.01020  0.90460  Biso   1.000  H
  H41      1.0000 0.43537  0.34353  0.23793  Biso   1.000  H
  H42      1.0000 0.98980  0.75850  0.90460  Biso   1.000  H
  H43      1.0000 0.65647  0.09183  0.23793  Biso   1.000  H
  H44      1.0000 0.10203  0.67687  0.57127  Biso   1.000  H
  H45      1.0000 0.32313  0.42517  0.57127  Biso   1.000  H
  H46      1.0000 0.75850  0.76870  0.09540  Biso   1.000  H
  H47      1.0000 0.09183  0.43537  0.76207  Biso   1.000  H
  H48      1.0000 0.42517  0.10203  0.42873  Biso   1.000  H
  H49      1.0000 0.23130  0.98980  0.09540  Biso   1.000  H
  H50      1.0000 0.89797  0.32313  0.42873  Biso   1.000  H
  H51      1.0000 0.01020  0.24150  0.09540  Biso   1.000  H
  H52      1.0000 0.67687  0.57483  0.42873  Biso   1.000  H
  H53      1.0000 0.56463  0.65647  0.76207  Biso   1.000  H
  H54      1.0000 0.34353  0.90817  0.76207  Biso   1.000  H
  H55      1.0000 0.10480  0.28510  0.72930  Biso   1.000  H
  H56      1.0000 0.43813  0.95177  0.39597  Biso   1.000  H
  H57      1.0000 0.77147  0.61843  0.06263  Biso   1.000  H
  H58      1.0000 0.71490  0.81970  0.72930  Biso   1.000  H
  H59      1.0000 0.38157  0.15303  0.06263  Biso   1.000  H
  H60      1.0000 0.18030  0.89520  0.72930  Biso   1.000  H
  H61      1.0000 0.84697  0.22853  0.06263  Biso   1.000  H
  H62      1.0000 0.04823  0.48637  0.39597  Biso   1.000  H
  H63      1.0000 0.51363  0.56187  0.39597  Biso   1.000  H
  H64      1.0000 0.89520  0.71490  0.27070  Biso   1.000  H
  H65      1.0000 0.22853  0.38157  0.93737  Biso   1.000  H
  H66      1.0000 0.56187  0.04823  0.60403  Biso   1.000  H
  H67      1.0000 0.28510  0.18030  0.27070  Biso   1.000  H
  H68      1.0000 0.95177  0.51363  0.60403  Biso   1.000  H
  H69      1.0000 0.81970  0.10480  0.27070  Biso   1.000  H
  H70      1.0000 0.48637  0.43813  0.60403  Biso   1.000  H
  H71      1.0000 0.61843  0.84697  0.93737  Biso   1.000  H
  H72      1.0000 0.15303  0.77147  0.93737  Biso   1.000  H
  H73      1.0000 0.13080  0.30890  0.57750  Biso   1.000  H
  H74      1.0000 0.46413  0.97557  0.24417  Biso   1.000  H
  H75      1.0000 0.79747  0.64223  0.91083  Biso   1.000  H
  H76      1.0000 0.69110  0.82190  0.57750  Biso   1.000  H
  H77      1.0000 0.35777  0.15523  0.91083  Biso   1.000  H
  H78      1.0000 0.17810  0.86920  0.57750  Biso   1.000  H
  H79      1.0000 0.84477  0.20253  0.91083  Biso   1.000  H
  H80      1.0000 0.02443  0.48857  0.24417  Biso   1.000  H
  H81      1.0000 0.51143  0.53587  0.24417  Biso   1.000  H
  H82      1.0000 0.86920  0.69110  0.42250  Biso   1.000  H
  H83      1.0000 0.20253  0.35777  0.08917  Biso   1.000  H
  H84      1.0000 0.53587  0.02443  0.75583  Biso   1.000  H
  H85      1.0000 0.30890  0.17810  0.42250  Biso   1.000  H
  H86      1.0000 0.97557  0.51143  0.75583  Biso   1.000  H
  H87      1.0000 0.82190  0.13080  0.42250  Biso   1.000  H
  H88      1.0000 0.48857  0.46413  0.75583  Biso   1.000  H
  H89      1.0000 0.64223  0.84477  0.08917  Biso   1.000  H
  H90      1.0000 0.15523  0.79747  0.08917  Biso   1.000  H
  H91      1.0000 0.46620  0.22340  0.61580  Biso   1.000  H
  H92      1.0000 0.79953  0.89007  0.28247  Biso   1.000  H
  H93      1.0000 0.13287  0.55673  0.94913  Biso   1.000  H
  H94      1.0000 0.77660  0.24280  0.61580  Biso   1.000  H
  H95      1.0000 0.44327  0.57613  0.94913  Biso   1.000  H
  H96      1.0000 0.75720  0.53380  0.61580  Biso   1.000  H
  H97      1.0000 0.42387  0.86713  0.94913  Biso   1.000  H
  H98      1.0000 0.10993  0.90947  0.28247  Biso   1.000  H
  H99      1.0000 0.09053  0.20047  0.28247  Biso   1.000  H
  H100     1.0000 0.53380  0.77660  0.38420  Biso   1.000  H
  H101     1.0000 0.86713  0.44327  0.05087  Biso   1.000  H
  H102     1.0000 0.20047  0.10993  0.71753  Biso   1.000  H
  H103     1.0000 0.22340  0.75720  0.38420  Biso   1.000  H
  H104     1.0000 0.89007  0.09053  0.71753  Biso   1.000  H
  H105     1.0000 0.24280  0.46620  0.38420  Biso   1.000  H
  H106     1.0000 0.90947  0.79953  0.71753  Biso   1.000  H
  H107     1.0000 0.55673  0.42387  0.05087  Biso   1.000  H
  H108     1.0000 0.57613  0.13287  0.05087  Biso   1.000  H
  H109     1.0000 0.47040  0.25450  0.76410  Biso   1.000  H
  H110     1.0000 0.80373  0.92117  0.43077  Biso   1.000  H
  H111     1.0000 0.13707  0.58783  0.09743  Biso   1.000  H
  H112     1.0000 0.74550  0.21590  0.76410  Biso   1.000  H
  H113     1.0000 0.41217  0.54923  0.09743  Biso   1.000  H
  H114     1.0000 0.78410  0.52960  0.76410  Biso   1.000  H
  H115     1.0000 0.45077  0.86293  0.09743  Biso   1.000  H
  H116     1.0000 0.07883  0.88257  0.43077  Biso   1.000  H
  H117     1.0000 0.11743  0.19627  0.43077  Biso   1.000  H
  H118     1.0000 0.52960  0.74550  0.23590  Biso   1.000  H
  H119     1.0000 0.86293  0.41217  0.90257  Biso   1.000  H
  H120     1.0000 0.19627  0.07883  0.56923  Biso   1.000  H
  H121     1.0000 0.25450  0.78410  0.23590  Biso   1.000  H
  H122     1.0000 0.92117  0.11743  0.56923  Biso   1.000  H
  H123     1.0000 0.21590  0.47040  0.23590  Biso   1.000  H
  H124     1.0000 0.88257  0.80373  0.56923  Biso   1.000  H
  H125     1.0000 0.58783  0.45077  0.90257  Biso   1.000  H
  H126     1.0000 0.54923  0.13707  0.90257  Biso   1.000  H
  H127     1.0000 0.46440  0.18650  0.74510  Biso   1.000  H
  H128     1.0000 0.79773  0.85317  0.41177  Biso   1.000  H
  H129     1.0000 0.13107  0.51983  0.07843  Biso   1.000  H
  H130     1.0000 0.81350  0.27790  0.74510  Biso   1.000  H
  H131     1.0000 0.48017  0.61123  0.07843  Biso   1.000  H
  H132     1.0000 0.72210  0.53560  0.74510  Biso   1.000  H
  H133     1.0000 0.38877  0.86893  0.07843  Biso   1.000  H
  H134     1.0000 0.14683  0.94457  0.41177  Biso   1.000  H
  H135     1.0000 0.05543  0.20227  0.41177  Biso   1.000  H
  H136     1.0000 0.53560  0.81350  0.25490  Biso   1.000  H
  H137     1.0000 0.86893  0.48017  0.92157  Biso   1.000  H
  H138     1.0000 0.20227  0.14683  0.58823  Biso   1.000  H
  H139     1.0000 0.18650  0.72210  0.25490  Biso   1.000  H
  H140     1.0000 0.85317  0.05543  0.58823  Biso   1.000  H
  H141     1.0000 0.27790  0.46440  0.25490  Biso   1.000  H
  H142     1.0000 0.94457  0.79773  0.58823  Biso   1.000  H
  H143     1.0000 0.51983  0.38877  0.92157  Biso   1.000  H
  H144     1.0000 0.61123  0.13107  0.92157  Biso   1.000  H
