data_image0
_cell_length_a       7.9019
_cell_length_b       10.2333
_cell_length_c       10.4441
_cell_angle_alpha    112.281
_cell_angle_beta     95.373
_cell_angle_gamma    104.862

_symmetry_space_group_name_H-M    "P 1"
_symmetry_int_tables_number       1

loop_
  _symmetry_equiv_pos_as_xyz
  'x, y, z'

loop_
  _atom_site_label
  _atom_site_occupancy
  _atom_site_fract_x
  _atom_site_fract_y
  _atom_site_fract_z
  _atom_site_thermal_displace_type
  _atom_site_B_iso_or_equiv
  _atom_site_type_symbol
  Cu1      1.0000 0.50000  0.50000  0.50000  Biso   1.000  Cu
  Cu2      1.0000 0.09727  0.50733  0.37988  Biso   1.000  Cu
  Cu3      1.0000 0.90273  0.49267  0.62012  Biso   1.000  Cu
  C1       1.0000 0.83280  0.23260  0.38860  Biso   1.000  C
  C2       1.0000 0.16720  0.76740  0.61140  Biso   1.000  C
  C3       1.0000 0.67330  0.26990  0.37960  Biso   1.000  C
  C4       1.0000 0.32670  0.73010  0.62040  Biso   1.000  C
  C5       1.0000 0.52430  0.17560  0.27080  Biso   1.000  C
  C6       1.0000 0.47570  0.82440  0.72920  Biso   1.000  C
  C7       1.0000 0.53070  0.03520  0.17660  Biso   1.000  C
  C8       1.0000 0.46930  0.96480  0.82340  Biso   1.000  C
  H1       1.0000 0.43060  0.96850  0.10630  Biso   1.000  H
  H2       1.0000 0.56940  0.03150  0.89370  Biso   1.000  H
  C9       1.0000 0.68250  0.99790  0.18860  Biso   1.000  C
  C10      1.0000 0.31750  0.00210  0.81140  Biso   1.000  C
  H3       1.0000 0.68510  0.90530  0.12660  Biso   1.000  H
  H4       1.0000 0.31490  0.09470  0.87340  Biso   1.000  H
  C11      1.0000 0.83400  0.09600  0.29220  Biso   1.000  C
  C12      1.0000 0.16600  0.90400  0.70780  Biso   1.000  C
  H5       1.0000 0.93770  0.06950  0.29680  Biso   1.000  H
  H6       1.0000 0.06230  0.93050  0.70320  Biso   1.000  H
  C13      1.0000 0.37120  0.21820  0.24120  Biso   1.000  C
  C14      1.0000 0.62880  0.78180  0.75880  Biso   1.000  C
  H7       1.0000 0.27640  0.14600  0.16890  Biso   1.000  H
  H8       1.0000 0.72360  0.85400  0.83110  Biso   1.000  H
  C15      1.0000 0.15390  0.32330  0.11240  Biso   1.000  C
  C16      1.0000 0.84610  0.67670  0.88760  Biso   1.000  C
  H9       1.0000 0.23030  0.28290  0.05890  Biso   1.000  H
  H10      1.0000 0.76970  0.71710  0.94110  Biso   1.000  H
  C17      1.0000 0.99600  0.32720  0.03820  Biso   1.000  C
  C18      1.0000 0.00400  0.67280  0.96180  Biso   1.000  C
  C19      1.0000 0.87070  0.38600  0.10800  Biso   1.000  C
  C20      1.0000 0.12930  0.61400  0.89200  Biso   1.000  C
  C21      1.0000 0.71450  0.38280  0.02520  Biso   1.000  C
  C22      1.0000 0.28550  0.61720  0.97480  Biso   1.000  C
  C23      1.0000 0.68910  0.32460  0.88040  Biso   1.000  C
  C24      1.0000 0.31090  0.67540  0.11960  Biso   1.000  C
  H11      1.0000 0.58720  0.32360  0.82720  Biso   1.000  H
  H12      1.0000 0.41280  0.67640  0.17280  Biso   1.000  H
  C25      1.0000 0.81420  0.26670  0.81140  Biso   1.000  C
  C26      1.0000 0.18580  0.73330  0.18860  Biso   1.000  C
  H13      1.0000 0.79550  0.22810  0.71310  Biso   1.000  H
  H14      1.0000 0.20450  0.77190  0.28690  Biso   1.000  H
  C27      1.0000 0.96350  0.26690  0.88820  Biso   1.000  C
  C28      1.0000 0.03650  0.73310  0.11180  Biso   1.000  C
  H15      1.0000 0.04530  0.22700  0.84160  Biso   1.000  H
  H16      1.0000 0.95470  0.77300  0.15840  Biso   1.000  H
  C29      1.0000 0.29330  0.19080  0.56620  Biso   1.000  C
  C30      1.0000 0.70670  0.80920  0.43380  Biso   1.000  C
  H17      1.0000 0.21370  0.12900  0.47560  Biso   1.000  H
  H18      1.0000 0.78630  0.87100  0.52440  Biso   1.000  H
  H19      1.0000 0.24520  0.16420  0.63730  Biso   1.000  H
  H20      1.0000 0.75480  0.83580  0.36270  Biso   1.000  H
  H21      1.0000 0.40850  0.17660  0.56320  Biso   1.000  H
  H22      1.0000 0.59150  0.82340  0.43680  Biso   1.000  H
  N1       1.0000 0.35240  0.34790  0.30570  Biso   1.000  N
  N2       1.0000 0.64760  0.65210  0.69430  Biso   1.000  N
  N3       1.0000 0.19960  0.37180  0.24920  Biso   1.000  N
  N4       1.0000 0.80040  0.62820  0.75080  Biso   1.000  N
  O1       1.0000 0.97420  0.33502  0.48878  Biso   1.000  O
  O2       1.0000 0.02580  0.66498  0.51122  Biso   1.000  O
  O3       1.0000 0.67730  0.40128  0.48112  Biso   1.000  O
  O4       1.0000 0.32270  0.59872  0.51888  Biso   1.000  O
  O5       1.0000 0.88660  0.44910  0.24474  Biso   1.000  O
  O6       1.0000 0.11340  0.55090  0.75526  Biso   1.000  O
  O7       1.0000 0.59430  0.43990  0.09250  Biso   1.000  O
  O8       1.0000 0.40570  0.56010  0.90750  Biso   1.000  O
  H23      1.0000 0.64500  0.48700  0.18100  Biso   1.000  H
  H24      1.0000 0.35500  0.51300  0.81900  Biso   1.000  H
  O9       1.0000 0.31120  0.34060  0.59920  Biso   1.000  O
  O10      1.0000 0.68880  0.65940  0.40080  Biso   1.000  O
  H25      1.0000 0.21400  0.34300  0.57500  Biso   1.000  H
  H26      1.0000 0.78600  0.65700  0.42500  Biso   1.000  H
