data_image0
_cell_length_a       14.6316
_cell_length_b       14.6316
_cell_length_c       6.6239
_cell_angle_alpha    90
_cell_angle_beta     90
_cell_angle_gamma    90

_symmetry_space_group_name_H-M    "P 1"
_symmetry_int_tables_number       1

loop_
  _symmetry_equiv_pos_as_xyz
  'x, y, z'

loop_
  _atom_site_label
  _atom_site_occupancy
  _atom_site_fract_x
  _atom_site_fract_y
  _atom_site_fract_z
  _atom_site_thermal_displace_type
  _atom_site_B_iso_or_equiv
  _atom_site_type_symbol
  Cu1      1.0000 0.14080  0.14080  0.00000  Biso   1.000  Cu
  Cu2      1.0000 0.85920  0.85920  0.50000  Biso   1.000  Cu
  Cu3      1.0000 0.64080  0.35920  0.25000  Biso   1.000  Cu
  Cu4      1.0000 0.35920  0.64080  0.75000  Biso   1.000  Cu
  C1       1.0000 0.97397  0.04600  0.00370  Biso   1.000  C
  C2       1.0000 0.02603  0.95400  0.50370  Biso   1.000  C
  C3       1.0000 0.47397  0.45400  0.24630  Biso   1.000  C
  C4       1.0000 0.52603  0.54600  0.74630  Biso   1.000  C
  C5       1.0000 0.95400  0.02603  0.49630  Biso   1.000  C
  C6       1.0000 0.04600  0.97397  0.99630  Biso   1.000  C
  C7       1.0000 0.54600  0.52603  0.25370  Biso   1.000  C
  C8       1.0000 0.45400  0.47397  0.75370  Biso   1.000  C
  C9       1.0000 0.18881  0.29030  0.25600  Biso   1.000  C
  C10      1.0000 0.81119  0.70970  0.75600  Biso   1.000  C
  C11      1.0000 0.68881  0.20970  0.99400  Biso   1.000  C
  C12      1.0000 0.31119  0.79030  0.49400  Biso   1.000  C
  C13      1.0000 0.70970  0.81119  0.24400  Biso   1.000  C
  C14      1.0000 0.29030  0.18881  0.74400  Biso   1.000  C
  C15      1.0000 0.79030  0.31119  0.50600  Biso   1.000  C
  C16      1.0000 0.20970  0.68881  0.00600  Biso   1.000  C
  C17      1.0000 0.23919  0.22103  0.38890  Biso   1.000  C
  C18      1.0000 0.76081  0.77897  0.88890  Biso   1.000  C
  C19      1.0000 0.73919  0.27897  0.86110  Biso   1.000  C
  C20      1.0000 0.26081  0.72103  0.36110  Biso   1.000  C
  C21      1.0000 0.77897  0.76081  0.11110  Biso   1.000  C
  C22      1.0000 0.22103  0.23919  0.61110  Biso   1.000  C
  C23      1.0000 0.72103  0.26081  0.63890  Biso   1.000  C
  C24      1.0000 0.27897  0.73919  0.13890  Biso   1.000  C
  N1       1.0000 0.00707  0.12625  0.03630  Biso   1.000  N
  N2       1.0000 0.99293  0.87375  0.53630  Biso   1.000  N
  N3       1.0000 0.50707  0.37375  0.21370  Biso   1.000  N
  N4       1.0000 0.49293  0.62625  0.71370  Biso   1.000  N
  N5       1.0000 0.87375  0.99293  0.46370  Biso   1.000  N
  N6       1.0000 0.12625  0.00707  0.96370  Biso   1.000  N
  N7       1.0000 0.62625  0.49293  0.28630  Biso   1.000  N
  N8       1.0000 0.37375  0.50707  0.78630  Biso   1.000  N
  N9       1.0000 0.88649  0.02580  0.97620  Biso   1.000  N
  N10      1.0000 0.11351  0.97420  0.47620  Biso   1.000  N
  N11      1.0000 0.38649  0.47420  0.27380  Biso   1.000  N
  N12      1.0000 0.61351  0.52580  0.77380  Biso   1.000  N
  N13      1.0000 0.97420  0.11351  0.52380  Biso   1.000  N
  N14      1.0000 0.02580  0.88649  0.02380  Biso   1.000  N
  N15      1.0000 0.52580  0.61351  0.22620  Biso   1.000  N
  N16      1.0000 0.47420  0.38649  0.72620  Biso   1.000  N
  O1       1.0000 0.94031  0.19413  0.02670  Biso   1.000  O
  O2       1.0000 0.05969  0.80587  0.52670  Biso   1.000  O
  O3       1.0000 0.44031  0.30587  0.22330  Biso   1.000  O
  O4       1.0000 0.55969  0.69413  0.72330  Biso   1.000  O
  O5       1.0000 0.80587  0.05969  0.47330  Biso   1.000  O
  O6       1.0000 0.19413  0.94031  0.97330  Biso   1.000  O
  O7       1.0000 0.69413  0.55969  0.27670  Biso   1.000  O
  O8       1.0000 0.30587  0.44031  0.77670  Biso   1.000  O
  O9       1.0000 0.14398  0.26419  0.10510  Biso   1.000  O
  O10      1.0000 0.85602  0.73581  0.60510  Biso   1.000  O
  O11      1.0000 0.64398  0.23581  0.14490  Biso   1.000  O
  O12      1.0000 0.35602  0.76419  0.64490  Biso   1.000  O
  O13      1.0000 0.73581  0.85602  0.39490  Biso   1.000  O
  O14      1.0000 0.26419  0.14398  0.89490  Biso   1.000  O
  O15      1.0000 0.76419  0.35602  0.35510  Biso   1.000  O
  O16      1.0000 0.23581  0.64398  0.85510  Biso   1.000  O
  O17      1.0000 0.19637  0.37216  0.30410  Biso   1.000  O
  O18      1.0000 0.80363  0.62784  0.80410  Biso   1.000  O
  O19      1.0000 0.69637  0.12784  0.94590  Biso   1.000  O
  O20      1.0000 0.30363  0.87216  0.44590  Biso   1.000  O
  O21      1.0000 0.62784  0.80363  0.19590  Biso   1.000  O
  O22      1.0000 0.37216  0.19637  0.69590  Biso   1.000  O
  O23      1.0000 0.87216  0.30363  0.55410  Biso   1.000  O
  O24      1.0000 0.12784  0.69637  0.05410  Biso   1.000  O
  O25      1.0000 0.21444  0.13028  0.33430  Biso   1.000  O
  O26      1.0000 0.78556  0.86972  0.83430  Biso   1.000  O
  O27      1.0000 0.71444  0.36972  0.91570  Biso   1.000  O
  O28      1.0000 0.28556  0.63028  0.41570  Biso   1.000  O
  O29      1.0000 0.86972  0.78556  0.16570  Biso   1.000  O
  O30      1.0000 0.13028  0.21444  0.66570  Biso   1.000  O
  O31      1.0000 0.63028  0.28556  0.58430  Biso   1.000  O
  O32      1.0000 0.36972  0.71444  0.08430  Biso   1.000  O
  O33      1.0000 0.37291  0.04366  0.30200  Biso   1.000  O
  O34      1.0000 0.62709  0.95634  0.80200  Biso   1.000  O
  O35      1.0000 0.87291  0.45634  0.94800  Biso   1.000  O
  O36      1.0000 0.12709  0.54366  0.44800  Biso   1.000  O
  O37      1.0000 0.95634  0.62709  0.19800  Biso   1.000  O
  O38      1.0000 0.04366  0.37291  0.69800  Biso   1.000  O
  O39      1.0000 0.54366  0.12709  0.55200  Biso   1.000  O
  O40      1.0000 0.45634  0.87291  0.05200  Biso   1.000  O
  O41      1.0000 0.14712  0.47039  0.97240  Biso   1.000  O
  O42      1.0000 0.85288  0.52961  0.47240  Biso   1.000  O
  O43      1.0000 0.64712  0.02961  0.27760  Biso   1.000  O
  O44      1.0000 0.35288  0.97039  0.77760  Biso   1.000  O
  O45      1.0000 0.52961  0.85288  0.52760  Biso   1.000  O
  O46      1.0000 0.47039  0.14712  0.02760  Biso   1.000  O
  O47      1.0000 0.97039  0.35288  0.22240  Biso   1.000  O
  O48      1.0000 0.02961  0.64712  0.72240  Biso   1.000  O
  H1       1.0000 0.30300  0.23150  0.36530  Biso   1.000  H
  H2       1.0000 0.69700  0.76850  0.86530  Biso   1.000  H
  H3       1.0000 0.80300  0.26850  0.88470  Biso   1.000  H
  H4       1.0000 0.19700  0.73150  0.38470  Biso   1.000  H
  H5       1.0000 0.76850  0.69700  0.13470  Biso   1.000  H
  H6       1.0000 0.23150  0.30300  0.63470  Biso   1.000  H
  H7       1.0000 0.73150  0.19700  0.61530  Biso   1.000  H
  H8       1.0000 0.26850  0.80300  0.11530  Biso   1.000  H
  H9       1.0000 0.85180  0.07010  0.97950  Biso   1.000  H
  H10      1.0000 0.14820  0.92990  0.47950  Biso   1.000  H
  H11      1.0000 0.35180  0.42990  0.27050  Biso   1.000  H
  H12      1.0000 0.64820  0.57010  0.77050  Biso   1.000  H
  H13      1.0000 0.92990  0.14820  0.52050  Biso   1.000  H
  H14      1.0000 0.07010  0.85180  0.02050  Biso   1.000  H
  H15      1.0000 0.57010  0.64820  0.22950  Biso   1.000  H
  H16      1.0000 0.42990  0.35180  0.72950  Biso   1.000  H
  H17      1.0000 0.87370  0.97280  0.95290  Biso   1.000  H
  H18      1.0000 0.12630  0.02720  0.45290  Biso   1.000  H
  H19      1.0000 0.37370  0.52720  0.29710  Biso   1.000  H
  H20      1.0000 0.62630  0.47280  0.79710  Biso   1.000  H
  H21      1.0000 0.02720  0.12630  0.54710  Biso   1.000  H
  H22      1.0000 0.97280  0.87370  0.04710  Biso   1.000  H
  H23      1.0000 0.47280  0.62630  0.20290  Biso   1.000  H
  H24      1.0000 0.52720  0.37370  0.70290  Biso   1.000  H
  H25      1.0000 0.96600  0.24130  0.09990  Biso   1.000  H
  H26      1.0000 0.03400  0.75870  0.59990  Biso   1.000  H
  H27      1.0000 0.46600  0.25870  0.15010  Biso   1.000  H
  H28      1.0000 0.53400  0.74130  0.65010  Biso   1.000  H
  H29      1.0000 0.75870  0.03400  0.40010  Biso   1.000  H
  H30      1.0000 0.24130  0.96600  0.90010  Biso   1.000  H
  H31      1.0000 0.74130  0.53400  0.34990  Biso   1.000  H
  H32      1.0000 0.25870  0.46600  0.84990  Biso   1.000  H
  H33      1.0000 0.25830  0.09990  0.31240  Biso   1.000  H
  H34      1.0000 0.74170  0.90010  0.81240  Biso   1.000  H
  H35      1.0000 0.75830  0.40010  0.93760  Biso   1.000  H
  H36      1.0000 0.24170  0.59990  0.43760  Biso   1.000  H
  H37      1.0000 0.90010  0.74170  0.18760  Biso   1.000  H
  H38      1.0000 0.09990  0.25830  0.68760  Biso   1.000  H
  H39      1.0000 0.59990  0.24170  0.56240  Biso   1.000  H
  H40      1.0000 0.40010  0.75830  0.06240  Biso   1.000  H
  H41      1.0000 0.36800  0.98680  0.26430  Biso   1.000  H
  H42      1.0000 0.63200  0.01320  0.76430  Biso   1.000  H
  H43      1.0000 0.86800  0.51320  0.98570  Biso   1.000  H
  H44      1.0000 0.13200  0.48680  0.48570  Biso   1.000  H
  H45      1.0000 0.01320  0.63200  0.23570  Biso   1.000  H
  H46      1.0000 0.98680  0.36800  0.73570  Biso   1.000  H
  H47      1.0000 0.48680  0.13200  0.51430  Biso   1.000  H
  H48      1.0000 0.51320  0.86800  0.01430  Biso   1.000  H
  H49      1.0000 0.39780  0.06290  0.21580  Biso   1.000  H
  H50      1.0000 0.60220  0.93710  0.71580  Biso   1.000  H
  H51      1.0000 0.89780  0.43710  0.03420  Biso   1.000  H
  H52      1.0000 0.10220  0.56290  0.53420  Biso   1.000  H
  H53      1.0000 0.93710  0.60220  0.28420  Biso   1.000  H
  H54      1.0000 0.06290  0.39780  0.78420  Biso   1.000  H
  H55      1.0000 0.56290  0.10220  0.46580  Biso   1.000  H
  H56      1.0000 0.43710  0.89780  0.96580  Biso   1.000  H
  H57      1.0000 0.13790  0.51930  0.99800  Biso   1.000  H
  H58      1.0000 0.86210  0.48070  0.49800  Biso   1.000  H
  H59      1.0000 0.63790  0.98070  0.25200  Biso   1.000  H
  H60      1.0000 0.36210  0.01930  0.75200  Biso   1.000  H
  H61      1.0000 0.48070  0.86210  0.50200  Biso   1.000  H
  H62      1.0000 0.51930  0.13790  0.00200  Biso   1.000  H
  H63      1.0000 0.01930  0.36210  0.24800  Biso   1.000  H
  H64      1.0000 0.98070  0.63790  0.74800  Biso   1.000  H
  H65      1.0000 0.15880  0.44140  0.09190  Biso   1.000  H
  H66      1.0000 0.84120  0.55860  0.59190  Biso   1.000  H
  H67      1.0000 0.65880  0.05860  0.15810  Biso   1.000  H
  H68      1.0000 0.34120  0.94140  0.65810  Biso   1.000  H
  H69      1.0000 0.55860  0.84120  0.40810  Biso   1.000  H
  H70      1.0000 0.44140  0.15880  0.90810  Biso   1.000  H
  H71      1.0000 0.94140  0.34120  0.34190  Biso   1.000  H
  H72      1.0000 0.05860  0.65880  0.84190  Biso   1.000  H
