data_image0
_cell_length_a       7.944
_cell_length_b       8.714
_cell_length_c       9.366
_cell_angle_alpha    64.55
_cell_angle_beta     86.72
_cell_angle_gamma    73.74

_symmetry_space_group_name_H-M    "P 1"
_symmetry_int_tables_number       1

loop_
  _symmetry_equiv_pos_as_xyz
  'x, y, z'

loop_
  _atom_site_label
  _atom_site_occupancy
  _atom_site_fract_x
  _atom_site_fract_y
  _atom_site_fract_z
  _atom_site_thermal_displace_type
  _atom_site_B_iso_or_equiv
  _atom_site_type_symbol
  Cu1      1.0000 0.00000  0.00000  0.00000  Biso   1.000  Cu
  O1       1.0000 0.93380  0.14490  0.77710  Biso   1.000  O
  O2       1.0000 0.06620  0.85510  0.22290  Biso   1.000  O
  O3       1.0000 0.16650  0.94420  0.76520  Biso   1.000  O
  O4       1.0000 0.83350  0.05580  0.23480  Biso   1.000  O
  N1       1.0000 0.85340  0.84180  0.00830  Biso   1.000  N
  N2       1.0000 0.14660  0.15820  0.99170  Biso   1.000  N
  C1       1.0000 0.90170  0.66780  0.10240  Biso   1.000  C
  C2       1.0000 0.09830  0.33220  0.89760  Biso   1.000  C
  H1       1.0000 0.01020  0.61740  0.16020  Biso   1.000  H
  H2       1.0000 0.98980  0.38260  0.83980  Biso   1.000  H
  C3       1.0000 0.79800  0.56120  0.11710  Biso   1.000  C
  C4       1.0000 0.20200  0.43880  0.88290  Biso   1.000  C
  H3       1.0000 0.83810  0.44040  0.18240  Biso   1.000  H
  H4       1.0000 0.16190  0.55960  0.81760  Biso   1.000  H
  C5       1.0000 0.63510  0.63000  0.03660  Biso   1.000  C
  C6       1.0000 0.36490  0.37000  0.96340  Biso   1.000  C
  C7       1.0000 0.58820  0.80740  0.93680  Biso   1.000  C
  C8       1.0000 0.41180  0.19260  0.06320  Biso   1.000  C
  H5       1.0000 0.48090  0.86030  0.87710  Biso   1.000  H
  H6       1.0000 0.51910  0.13970  0.12290  Biso   1.000  H
  C9       1.0000 0.70010  0.90770  0.92490  Biso   1.000  C
  C10      1.0000 0.29990  0.09230  0.07510  Biso   1.000  C
  H7       1.0000 0.66620  0.02740  0.85490  Biso   1.000  H
  H8       1.0000 0.33380  0.97260  0.14510  Biso   1.000  H
  C11      1.0000 0.49830  0.52730  0.06520  Biso   1.000  C
  C12      1.0000 0.50170  0.47270  0.93480  Biso   1.000  C
  H9       1.0000 0.52640  0.42370  0.16660  Biso   1.000  H
  H10      1.0000 0.47360  0.57630  0.83340  Biso   1.000  H
  H11      1.0000 0.38230  0.60180  0.06620  Biso   1.000  H
  H12      1.0000 0.61770  0.39820  0.93380  Biso   1.000  H
  C13      1.0000 0.58700  0.47900  0.01600  Biso   1.000  C
  C14      1.0000 0.41300  0.52100  0.98400  Biso   1.000  C
  H13      1.0000 0.64890  0.46010  0.92970  Biso   1.000  H
  H14      1.0000 0.35110  0.53990  0.07030  Biso   1.000  H
  H15      1.0000 0.62430  0.36960  0.11200  Biso   1.000  H
  H16      1.0000 0.37570  0.63040  0.88800  Biso   1.000  H
  C15      1.0000 0.04930  0.08460  0.70130  Biso   1.000  C
  C16      1.0000 0.95070  0.91540  0.29870  Biso   1.000  C
  C17      1.0000 0.03490  0.19760  0.52310  Biso   1.000  C
  C18      1.0000 0.96510  0.80240  0.47690  Biso   1.000  C
  H17      1.0000 0.94300  0.17660  0.47610  Biso   1.000  H
  H18      1.0000 0.05700  0.82340  0.52390  Biso   1.000  H
  H19      1.0000 0.99760  0.32120  0.50380  Biso   1.000  H
  H20      1.0000 0.00240  0.67880  0.49620  Biso   1.000  H
  C19      1.0000 0.19790  0.16810  0.43860  Biso   1.000  C
  C20      1.0000 0.80210  0.83190  0.56140  Biso   1.000  C
  H21      1.0000 0.16970  0.24490  0.32630  Biso   1.000  H
  H22      1.0000 0.83030  0.75510  0.67370  Biso   1.000  H
  H23      1.0000 0.22990  0.04680  0.45110  Biso   1.000  H
  H24      1.0000 0.77010  0.95320  0.54890  Biso   1.000  H
  C21      1.0000 0.35690  0.19930  0.49020  Biso   1.000  C
  C22      1.0000 0.64310  0.80070  0.50980  Biso   1.000  C
  H25      1.0000 0.39200  0.11480  0.59970  Biso   1.000  H
  H26      1.0000 0.60800  0.88520  0.40030  Biso   1.000  H
  H27      1.0000 0.45250  0.17410  0.42710  Biso   1.000  H
  H28      1.0000 0.54750  0.82590  0.57290  Biso   1.000  H
  C23      1.0000 0.33500  0.38190  0.47750  Biso   1.000  C
  C24      1.0000 0.66500  0.61810  0.52250  Biso   1.000  C
  H29      1.0000 0.25080  0.40270  0.55110  Biso   1.000  H
  H30      1.0000 0.74920  0.59730  0.44890  Biso   1.000  H
  H31      1.0000 0.28750  0.46870  0.37130  Biso   1.000  H
  H32      1.0000 0.71250  0.53130  0.62870  Biso   1.000  H
  C25      1.0000 0.50600  0.40820  0.51270  Biso   1.000  C
  C26      1.0000 0.49400  0.59180  0.48730  Biso   1.000  C
  H33      1.0000 0.54750  0.32820  0.62220  Biso   1.000  H
  H34      1.0000 0.45250  0.67180  0.37780  Biso   1.000  H
  H35      1.0000 0.59310  0.37560  0.44620  Biso   1.000  H
  H36      1.0000 0.40690  0.62440  0.55380  Biso   1.000  H
