data_image0
_cell_length_a       16.3043
_cell_length_b       12.2138
_cell_length_c       18.5935
_cell_angle_alpha    90
_cell_angle_beta     90
_cell_angle_gamma    90

_symmetry_space_group_name_H-M    "P 1"
_symmetry_int_tables_number       1

loop_
  _symmetry_equiv_pos_as_xyz
  'x, y, z'

loop_
  _atom_site_label
  _atom_site_occupancy
  _atom_site_fract_x
  _atom_site_fract_y
  _atom_site_fract_z
  _atom_site_thermal_displace_type
  _atom_site_B_iso_or_equiv
  _atom_site_type_symbol
  Br1      1.0000 0.16021  0.14432  0.20969  Biso   1.000  Br
  Br2      1.0000 0.33979  0.85568  0.70969  Biso   1.000  Br
  Br3      1.0000 0.83979  0.64432  0.29031  Biso   1.000  Br
  Br4      1.0000 0.66021  0.35568  0.79031  Biso   1.000  Br
  Br5      1.0000 0.83979  0.85568  0.79031  Biso   1.000  Br
  Br6      1.0000 0.66021  0.14432  0.29031  Biso   1.000  Br
  Br7      1.0000 0.16021  0.35568  0.70969  Biso   1.000  Br
  Br8      1.0000 0.33979  0.64432  0.20969  Biso   1.000  Br
  Cu1      1.0000 0.20243  0.19525  0.37101  Biso   1.000  Cu
  Cu2      1.0000 0.29757  0.80475  0.87101  Biso   1.000  Cu
  Cu3      1.0000 0.79757  0.69525  0.12899  Biso   1.000  Cu
  Cu4      1.0000 0.70243  0.30475  0.62899  Biso   1.000  Cu
  Cu5      1.0000 0.79757  0.80475  0.62899  Biso   1.000  Cu
  Cu6      1.0000 0.70243  0.19525  0.12899  Biso   1.000  Cu
  Cu7      1.0000 0.20243  0.30475  0.87101  Biso   1.000  Cu
  Cu8      1.0000 0.29757  0.69525  0.37101  Biso   1.000  Cu
  Br9      1.0000 0.40836  0.31299  0.54006  Biso   1.000  Br
  Br10     1.0000 0.09164  0.68701  0.04006  Biso   1.000  Br
  Br11     1.0000 0.59164  0.81299  0.95994  Biso   1.000  Br
  Br12     1.0000 0.90836  0.18701  0.45994  Biso   1.000  Br
  Br13     1.0000 0.59164  0.68701  0.45994  Biso   1.000  Br
  Br14     1.0000 0.90836  0.31299  0.95994  Biso   1.000  Br
  Br15     1.0000 0.40836  0.18701  0.04006  Biso   1.000  Br
  Br16     1.0000 0.09164  0.81299  0.54006  Biso   1.000  Br
  Cu9      1.0000 0.28276  0.43354  0.44069  Biso   1.000  Cu
  Cu10     1.0000 0.21724  0.56646  0.94069  Biso   1.000  Cu
  Cu11     1.0000 0.71724  0.93354  0.05931  Biso   1.000  Cu
  Cu12     1.0000 0.78276  0.06646  0.55931  Biso   1.000  Cu
  Cu13     1.0000 0.71724  0.56646  0.55931  Biso   1.000  Cu
  Cu14     1.0000 0.78276  0.43354  0.05931  Biso   1.000  Cu
  Cu15     1.0000 0.28276  0.06646  0.94069  Biso   1.000  Cu
  Cu16     1.0000 0.21724  0.93354  0.44069  Biso   1.000  Cu
  Cl1      1.0000 0.29014  0.33634  0.33427  Biso   1.000  Cl
  Cl2      1.0000 0.20986  0.66366  0.83427  Biso   1.000  Cl
  Cl3      1.0000 0.70986  0.83634  0.16573  Biso   1.000  Cl
  Cl4      1.0000 0.79014  0.16366  0.66573  Biso   1.000  Cl
  Cl5      1.0000 0.70986  0.66366  0.66573  Biso   1.000  Cl
  Cl6      1.0000 0.79014  0.33634  0.16573  Biso   1.000  Cl
  Cl7      1.0000 0.29014  0.16366  0.83427  Biso   1.000  Cl
  Cl8      1.0000 0.20986  0.83634  0.33427  Biso   1.000  Cl
  Cl9      1.0000 0.19245  0.30823  0.48736  Biso   1.000  Cl
  Cl10     1.0000 0.30755  0.69177  0.98736  Biso   1.000  Cl
  Cl11     1.0000 0.80755  0.80823  0.01264  Biso   1.000  Cl
  Cl12     1.0000 0.69245  0.19177  0.51264  Biso   1.000  Cl
  Cl13     1.0000 0.80755  0.69177  0.51264  Biso   1.000  Cl
  Cl14     1.0000 0.69245  0.30823  0.01264  Biso   1.000  Cl
  Cl15     1.0000 0.19245  0.19177  0.98736  Biso   1.000  Cl
  Cl16     1.0000 0.30755  0.80823  0.48736  Biso   1.000  Cl
  Cl17     1.0000 0.31194  0.08609  0.39492  Biso   1.000  Cl
  Cl18     1.0000 0.18806  0.91391  0.89492  Biso   1.000  Cl
  Cl19     1.0000 0.68806  0.58609  0.10508  Biso   1.000  Cl
  Cl20     1.0000 0.81194  0.41391  0.60508  Biso   1.000  Cl
  Cl21     1.0000 0.68806  0.91391  0.60508  Biso   1.000  Cl
  Cl22     1.0000 0.81194  0.08609  0.10508  Biso   1.000  Cl
  Cl23     1.0000 0.31194  0.41391  0.89492  Biso   1.000  Cl
  Cl24     1.0000 0.18806  0.58609  0.39492  Biso   1.000  Cl
  C1       1.0000 0.25540  0.56530  0.57130  Biso   1.000  C
  C2       1.0000 0.24460  0.43470  0.07130  Biso   1.000  C
  C3       1.0000 0.74460  0.06530  0.92870  Biso   1.000  C
  C4       1.0000 0.75540  0.93470  0.42870  Biso   1.000  C
  C5       1.0000 0.74460  0.43470  0.42870  Biso   1.000  C
  C6       1.0000 0.75540  0.56530  0.92870  Biso   1.000  C
  C7       1.0000 0.25540  0.93470  0.07130  Biso   1.000  C
  C8       1.0000 0.24460  0.06530  0.57130  Biso   1.000  C
  H1       1.0000 0.22200  0.60720  0.54160  Biso   1.000  H
  H2       1.0000 0.27800  0.39280  0.04160  Biso   1.000  H
  H3       1.0000 0.77800  0.10720  0.95840  Biso   1.000  H
  H4       1.0000 0.72200  0.89280  0.45840  Biso   1.000  H
  H5       1.0000 0.77800  0.39280  0.45840  Biso   1.000  H
  H6       1.0000 0.72200  0.60720  0.95840  Biso   1.000  H
  H7       1.0000 0.22200  0.89280  0.04160  Biso   1.000  H
  H8       1.0000 0.27800  0.10720  0.54160  Biso   1.000  H
  C9       1.0000 0.09330  0.25440  0.25085  Biso   1.000  C
  C10      1.0000 0.40670  0.74560  0.75085  Biso   1.000  C
  C11      1.0000 0.90670  0.75440  0.24915  Biso   1.000  C
  C12      1.0000 0.59330  0.24560  0.74915  Biso   1.000  C
  C13      1.0000 0.90670  0.74560  0.74915  Biso   1.000  C
  C14      1.0000 0.59330  0.25440  0.24915  Biso   1.000  C
  C15      1.0000 0.09330  0.24560  0.75085  Biso   1.000  C
  C16      1.0000 0.40670  0.75440  0.25085  Biso   1.000  C
  N1       1.0000 0.29957  0.48410  0.54218  Biso   1.000  N
  N2       1.0000 0.20043  0.51590  0.04218  Biso   1.000  N
  N3       1.0000 0.70043  0.98410  0.95782  Biso   1.000  N
  N4       1.0000 0.79957  0.01590  0.45782  Biso   1.000  N
  N5       1.0000 0.70043  0.51590  0.45782  Biso   1.000  N
  N6       1.0000 0.79957  0.48410  0.95782  Biso   1.000  N
  N7       1.0000 0.29957  0.01590  0.04218  Biso   1.000  N
  N8       1.0000 0.20043  0.98410  0.54218  Biso   1.000  N
  C17      1.0000 0.06250  0.35030  0.35362  Biso   1.000  C
  C18      1.0000 0.43750  0.64970  0.85362  Biso   1.000  C
  C19      1.0000 0.93750  0.85030  0.14638  Biso   1.000  C
  C20      1.0000 0.56250  0.14970  0.64638  Biso   1.000  C
  C21      1.0000 0.93750  0.64970  0.64638  Biso   1.000  C
  C22      1.0000 0.56250  0.35030  0.14638  Biso   1.000  C
  C23      1.0000 0.06250  0.14970  0.85362  Biso   1.000  C
  C24      1.0000 0.43750  0.85030  0.35362  Biso   1.000  C
  H9       1.0000 0.07140  0.36460  0.40210  Biso   1.000  H
  H10      1.0000 0.42860  0.63540  0.90210  Biso   1.000  H
  H11      1.0000 0.92860  0.86460  0.09790  Biso   1.000  H
  H12      1.0000 0.57140  0.13540  0.59790  Biso   1.000  H
  H13      1.0000 0.92860  0.63540  0.59790  Biso   1.000  H
  H14      1.0000 0.57140  0.36460  0.09790  Biso   1.000  H
  H15      1.0000 0.07140  0.13540  0.90210  Biso   1.000  H
  H16      1.0000 0.42860  0.86460  0.40210  Biso   1.000  H
  C25      1.0000 0.34820  0.42570  0.58562  Biso   1.000  C
  C26      1.0000 0.15180  0.57430  0.08562  Biso   1.000  C
  C27      1.0000 0.65180  0.92570  0.91438  Biso   1.000  C
  C28      1.0000 0.84820  0.07430  0.41438  Biso   1.000  C
  C29      1.0000 0.65180  0.57430  0.41438  Biso   1.000  C
  C30      1.0000 0.84820  0.42570  0.91438  Biso   1.000  C
  C31      1.0000 0.34820  0.07430  0.08562  Biso   1.000  C
  C32      1.0000 0.15180  0.92570  0.58562  Biso   1.000  C
  C33      1.0000 0.30760  0.52620  0.68765  Biso   1.000  C
  C34      1.0000 0.19240  0.47380  0.18765  Biso   1.000  C
  C35      1.0000 0.69240  0.02620  0.81235  Biso   1.000  C
  C36      1.0000 0.80760  0.97380  0.31235  Biso   1.000  C
  C37      1.0000 0.69240  0.47380  0.31235  Biso   1.000  C
  C38      1.0000 0.80760  0.52620  0.81235  Biso   1.000  C
  C39      1.0000 0.30760  0.97380  0.18765  Biso   1.000  C
  C40      1.0000 0.19240  0.02620  0.68765  Biso   1.000  C
  H17      1.0000 0.30940  0.54050  0.73680  Biso   1.000  H
  H18      1.0000 0.19060  0.45950  0.23680  Biso   1.000  H
  H19      1.0000 0.69060  0.04050  0.76320  Biso   1.000  H
  H20      1.0000 0.80940  0.95950  0.26320  Biso   1.000  H
  H21      1.0000 0.69060  0.45950  0.26320  Biso   1.000  H
  H22      1.0000 0.80940  0.54050  0.76320  Biso   1.000  H
  H23      1.0000 0.30940  0.95950  0.23680  Biso   1.000  H
  H24      1.0000 0.19060  0.04050  0.73680  Biso   1.000  H
  C41      1.0000 0.02220  0.28430  0.13108  Biso   1.000  C
  C42      1.0000 0.47780  0.71570  0.63108  Biso   1.000  C
  C43      1.0000 0.97780  0.78430  0.36892  Biso   1.000  C
  C44      1.0000 0.52220  0.21570  0.86892  Biso   1.000  C
  C45      1.0000 0.97780  0.71570  0.86892  Biso   1.000  C
  C46      1.0000 0.52220  0.28430  0.36892  Biso   1.000  C
  C47      1.0000 0.02220  0.21570  0.63108  Biso   1.000  C
  C48      1.0000 0.47780  0.78430  0.13108  Biso   1.000  C
  H25      1.0000 0.99810  0.21300  0.12580  Biso   1.000  H
  H26      1.0000 0.50190  0.78700  0.62580  Biso   1.000  H
  H27      1.0000 0.00190  0.71300  0.37420  Biso   1.000  H
  H28      1.0000 0.49810  0.28700  0.87420  Biso   1.000  H
  H29      1.0000 0.00190  0.78700  0.87420  Biso   1.000  H
  H30      1.0000 0.49810  0.21300  0.37420  Biso   1.000  H
  H31      1.0000 0.99810  0.28700  0.62580  Biso   1.000  H
  H32      1.0000 0.50190  0.71300  0.12580  Biso   1.000  H
  H33      1.0000 0.07390  0.28620  0.10640  Biso   1.000  H
  H34      1.0000 0.42610  0.71380  0.60640  Biso   1.000  H
  H35      1.0000 0.92610  0.78620  0.39360  Biso   1.000  H
  H36      1.0000 0.57390  0.21380  0.89360  Biso   1.000  H
  H37      1.0000 0.92610  0.71380  0.89360  Biso   1.000  H
  H38      1.0000 0.57390  0.28620  0.39360  Biso   1.000  H
  H39      1.0000 0.07390  0.21380  0.60640  Biso   1.000  H
  H40      1.0000 0.42610  0.78620  0.10640  Biso   1.000  H
  H41      1.0000 0.98620  0.33840  0.11090  Biso   1.000  H
  H42      1.0000 0.51380  0.66160  0.61090  Biso   1.000  H
  H43      1.0000 0.01380  0.83840  0.38910  Biso   1.000  H
  H44      1.0000 0.48620  0.16160  0.88910  Biso   1.000  H
  H45      1.0000 0.01380  0.66160  0.88910  Biso   1.000  H
  H46      1.0000 0.48620  0.33840  0.38910  Biso   1.000  H
  H47      1.0000 0.98620  0.16160  0.61090  Biso   1.000  H
  H48      1.0000 0.51380  0.83840  0.11090  Biso   1.000  H
  C49      1.0000 0.25790  0.58880  0.64386  Biso   1.000  C
  C50      1.0000 0.24210  0.41120  0.14386  Biso   1.000  C
  C51      1.0000 0.74210  0.08880  0.85614  Biso   1.000  C
  C52      1.0000 0.75790  0.91120  0.35614  Biso   1.000  C
  C53      1.0000 0.74210  0.41120  0.35614  Biso   1.000  C
  C54      1.0000 0.75790  0.58880  0.85614  Biso   1.000  C
  C55      1.0000 0.25790  0.91120  0.14386  Biso   1.000  C
  C56      1.0000 0.24210  0.08880  0.64386  Biso   1.000  C
  H49      1.0000 0.22670  0.64570  0.66280  Biso   1.000  H
  H50      1.0000 0.27330  0.35430  0.16280  Biso   1.000  H
  H51      1.0000 0.77330  0.14570  0.83720  Biso   1.000  H
  H52      1.0000 0.72670  0.85430  0.33720  Biso   1.000  H
  H53      1.0000 0.77330  0.35430  0.33720  Biso   1.000  H
  H54      1.0000 0.72670  0.64570  0.83720  Biso   1.000  H
  H55      1.0000 0.22670  0.85430  0.16280  Biso   1.000  H
  H56      1.0000 0.27330  0.14570  0.66280  Biso   1.000  H
  C57      1.0000 0.00240  0.40830  0.31734  Biso   1.000  C
  C58      1.0000 0.49760  0.59170  0.81734  Biso   1.000  C
  C59      1.0000 0.99760  0.90830  0.18266  Biso   1.000  C
  C60      1.0000 0.50240  0.09170  0.68266  Biso   1.000  C
  C61      1.0000 0.99760  0.59170  0.68266  Biso   1.000  C
  C62      1.0000 0.50240  0.40830  0.18266  Biso   1.000  C
  C63      1.0000 0.00240  0.09170  0.81734  Biso   1.000  C
  C64      1.0000 0.49760  0.90830  0.31734  Biso   1.000  C
  H57      1.0000 0.97110  0.46060  0.34120  Biso   1.000  H
  H58      1.0000 0.52890  0.53940  0.84120  Biso   1.000  H
  H59      1.0000 0.02890  0.96060  0.15880  Biso   1.000  H
  H60      1.0000 0.47110  0.03940  0.65880  Biso   1.000  H
  H61      1.0000 0.02890  0.53940  0.65880  Biso   1.000  H
  H62      1.0000 0.47110  0.46060  0.15880  Biso   1.000  H
  H63      1.0000 0.97110  0.03940  0.84120  Biso   1.000  H
  H64      1.0000 0.52890  0.96060  0.34120  Biso   1.000  H
  C65      1.0000 0.35500  0.44240  0.65938  Biso   1.000  C
  C66      1.0000 0.14500  0.55760  0.15938  Biso   1.000  C
  C67      1.0000 0.64500  0.94240  0.84062  Biso   1.000  C
  C68      1.0000 0.85500  0.05760  0.34062  Biso   1.000  C
  C69      1.0000 0.64500  0.55760  0.34062  Biso   1.000  C
  C70      1.0000 0.85500  0.44240  0.84062  Biso   1.000  C
  C71      1.0000 0.35500  0.05760  0.15938  Biso   1.000  C
  C72      1.0000 0.14500  0.94240  0.65938  Biso   1.000  C
  C73      1.0000 0.40850  0.37170  0.70596  Biso   1.000  C
  C74      1.0000 0.09150  0.62830  0.20596  Biso   1.000  C
  C75      1.0000 0.59150  0.87170  0.79404  Biso   1.000  C
  C76      1.0000 0.90850  0.12830  0.29404  Biso   1.000  C
  C77      1.0000 0.59150  0.62830  0.29404  Biso   1.000  C
  C78      1.0000 0.90850  0.37170  0.79404  Biso   1.000  C
  C79      1.0000 0.40850  0.12830  0.20596  Biso   1.000  C
  C80      1.0000 0.09150  0.87170  0.70596  Biso   1.000  C
  H65      1.0000 0.40190  0.39260  0.75540  Biso   1.000  H
  H66      1.0000 0.09810  0.60740  0.25540  Biso   1.000  H
  H67      1.0000 0.59810  0.89260  0.74460  Biso   1.000  H
  H68      1.0000 0.90190  0.10740  0.24460  Biso   1.000  H
  H69      1.0000 0.59810  0.60740  0.24460  Biso   1.000  H
  H70      1.0000 0.90190  0.39260  0.74460  Biso   1.000  H
  H71      1.0000 0.40190  0.10740  0.25540  Biso   1.000  H
  H72      1.0000 0.09810  0.89260  0.75540  Biso   1.000  H
  H73      1.0000 0.46480  0.38090  0.69210  Biso   1.000  H
  H74      1.0000 0.03520  0.61910  0.19210  Biso   1.000  H
  H75      1.0000 0.53520  0.88090  0.80790  Biso   1.000  H
  H76      1.0000 0.96480  0.11910  0.30790  Biso   1.000  H
  H77      1.0000 0.53520  0.61910  0.30790  Biso   1.000  H
  H78      1.0000 0.96480  0.38090  0.80790  Biso   1.000  H
  H79      1.0000 0.46480  0.11910  0.19210  Biso   1.000  H
  H80      1.0000 0.03520  0.88090  0.69210  Biso   1.000  H
  H81      1.0000 0.39300  0.29640  0.70020  Biso   1.000  H
  H82      1.0000 0.10700  0.70360  0.20020  Biso   1.000  H
  H83      1.0000 0.60700  0.79640  0.79980  Biso   1.000  H
  H84      1.0000 0.89300  0.20360  0.29980  Biso   1.000  H
  H85      1.0000 0.60700  0.70360  0.29980  Biso   1.000  H
  H86      1.0000 0.89300  0.29640  0.79980  Biso   1.000  H
  H87      1.0000 0.39300  0.20360  0.20020  Biso   1.000  H
  H88      1.0000 0.10700  0.79640  0.70020  Biso   1.000  H
  C81      1.0000 0.98950  0.38720  0.24507  Biso   1.000  C
  C82      1.0000 0.51050  0.61280  0.74507  Biso   1.000  C
  C83      1.0000 0.01050  0.88720  0.25493  Biso   1.000  C
  C84      1.0000 0.48950  0.11280  0.75493  Biso   1.000  C
  C85      1.0000 0.01050  0.61280  0.75493  Biso   1.000  C
  C86      1.0000 0.48950  0.38720  0.25493  Biso   1.000  C
  C87      1.0000 0.98950  0.11280  0.74507  Biso   1.000  C
  C88      1.0000 0.51050  0.88720  0.24507  Biso   1.000  C
  H89      1.0000 0.94980  0.42630  0.22000  Biso   1.000  H
  H90      1.0000 0.55020  0.57370  0.72000  Biso   1.000  H
  H91      1.0000 0.05020  0.92630  0.28000  Biso   1.000  H
  H92      1.0000 0.44980  0.07370  0.78000  Biso   1.000  H
  H93      1.0000 0.05020  0.57370  0.78000  Biso   1.000  H
  H94      1.0000 0.44980  0.42630  0.28000  Biso   1.000  H
  H95      1.0000 0.94980  0.07370  0.72000  Biso   1.000  H
  H96      1.0000 0.55020  0.92630  0.22000  Biso   1.000  H
  C89      1.0000 0.03550  0.30830  0.20985  Biso   1.000  C
  C90      1.0000 0.46450  0.69170  0.70985  Biso   1.000  C
  C91      1.0000 0.96450  0.80830  0.29015  Biso   1.000  C
  C92      1.0000 0.53550  0.19170  0.79015  Biso   1.000  C
  C93      1.0000 0.96450  0.69170  0.79015  Biso   1.000  C
  C94      1.0000 0.53550  0.30830  0.29015  Biso   1.000  C
  C95      1.0000 0.03550  0.19170  0.70985  Biso   1.000  C
  C96      1.0000 0.46450  0.80830  0.20985  Biso   1.000  C
  N9       1.0000 0.10860  0.27400  0.32049  Biso   1.000  N
  N10      1.0000 0.39140  0.72600  0.82049  Biso   1.000  N
  N11      1.0000 0.89140  0.77400  0.17951  Biso   1.000  N
  N12      1.0000 0.60860  0.22600  0.67951  Biso   1.000  N
  N13      1.0000 0.89140  0.72600  0.67951  Biso   1.000  N
  N14      1.0000 0.60860  0.27400  0.17951  Biso   1.000  N
  N15      1.0000 0.10860  0.22600  0.82049  Biso   1.000  N
  N16      1.0000 0.39140  0.77400  0.32049  Biso   1.000  N
  Cl25     1.0000 0.38616  0.55401  0.40217  Biso   1.000  Cl
  Cl26     1.0000 0.11384  0.44599  0.90217  Biso   1.000  Cl
  Cl27     1.0000 0.61384  0.05401  0.09783  Biso   1.000  Cl
  Cl28     1.0000 0.88616  0.94599  0.59783  Biso   1.000  Cl
  Cl29     1.0000 0.61384  0.44599  0.59783  Biso   1.000  Cl
  Cl30     1.0000 0.88616  0.55401  0.09783  Biso   1.000  Cl
  Cl31     1.0000 0.38616  0.94599  0.90217  Biso   1.000  Cl
  Cl32     1.0000 0.11384  0.05401  0.40217  Biso   1.000  Cl
