data_image0
_cell_length_a       9.389
_cell_length_b       17.477
_cell_length_c       16.376
_cell_angle_alpha    90
_cell_angle_beta     103.185
_cell_angle_gamma    90

_symmetry_space_group_name_H-M    "P 1"
_symmetry_int_tables_number       1

loop_
  _symmetry_equiv_pos_as_xyz
  'x, y, z'

loop_
  _atom_site_label
  _atom_site_occupancy
  _atom_site_fract_x
  _atom_site_fract_y
  _atom_site_fract_z
  _atom_site_thermal_displace_type
  _atom_site_B_iso_or_equiv
  _atom_site_type_symbol
  Cu1      1.0000 0.22014  0.29599  0.03279  Biso   1.000  Cu
  Cu2      1.0000 0.77986  0.79599  0.46721  Biso   1.000  Cu
  Cu3      1.0000 0.77986  0.70401  0.96721  Biso   1.000  Cu
  Cu4      1.0000 0.22014  0.20401  0.53279  Biso   1.000  Cu
  O1       1.0000 0.27040  0.22600  0.94620  Biso   1.000  O
  O2       1.0000 0.72960  0.72600  0.55380  Biso   1.000  O
  O3       1.0000 0.72960  0.77400  0.05380  Biso   1.000  O
  O4       1.0000 0.27040  0.27400  0.44620  Biso   1.000  O
  N1       1.0000 0.36750  0.37650  0.01620  Biso   1.000  N
  N2       1.0000 0.63250  0.87650  0.48380  Biso   1.000  N
  N3       1.0000 0.63250  0.62350  0.98380  Biso   1.000  N
  N4       1.0000 0.36750  0.12350  0.51620  Biso   1.000  N
  H1       1.0000 0.45640  0.36520  0.04820  Biso   1.000  H
  H2       1.0000 0.54360  0.86520  0.45180  Biso   1.000  H
  H3       1.0000 0.54360  0.63480  0.95180  Biso   1.000  H
  H4       1.0000 0.45640  0.13480  0.54820  Biso   1.000  H
  H5       1.0000 0.37380  0.37720  0.96220  Biso   1.000  H
  H6       1.0000 0.62620  0.87720  0.53780  Biso   1.000  H
  H7       1.0000 0.62620  0.62280  0.03780  Biso   1.000  H
  H8       1.0000 0.37380  0.12280  0.46220  Biso   1.000  H
  N5       1.0000 0.32270  0.23660  0.14660  Biso   1.000  N
  N6       1.0000 0.67730  0.73660  0.35340  Biso   1.000  N
  N7       1.0000 0.67730  0.76340  0.85340  Biso   1.000  N
  N8       1.0000 0.32270  0.26340  0.64660  Biso   1.000  N
  H9       1.0000 0.27860  0.19130  0.14980  Biso   1.000  H
  H10      1.0000 0.72140  0.69130  0.35020  Biso   1.000  H
  H11      1.0000 0.72140  0.80870  0.85020  Biso   1.000  H
  H12      1.0000 0.27860  0.30870  0.64980  Biso   1.000  H
  H13      1.0000 0.41800  0.22820  0.14850  Biso   1.000  H
  H14      1.0000 0.58200  0.72820  0.35150  Biso   1.000  H
  H15      1.0000 0.58200  0.77180  0.85150  Biso   1.000  H
  H16      1.0000 0.41800  0.27180  0.64850  Biso   1.000  H
  N9       1.0000 0.15900  0.37220  0.10790  Biso   1.000  N
  N10      1.0000 0.84100  0.87220  0.39210  Biso   1.000  N
  N11      1.0000 0.84100  0.62780  0.89210  Biso   1.000  N
  N12      1.0000 0.15900  0.12780  0.60790  Biso   1.000  N
  N13      1.0000 0.00600  0.26810  0.99970  Biso   1.000  N
  N14      1.0000 0.99400  0.76810  0.50030  Biso   1.000  N
  N15      1.0000 0.99400  0.73190  0.00030  Biso   1.000  N
  N16      1.0000 0.00600  0.23190  0.49970  Biso   1.000  N
  H17      1.0000 0.97450  0.27030  0.94360  Biso   1.000  H
  H18      1.0000 0.02550  0.77030  0.55640  Biso   1.000  H
  H19      1.0000 0.02550  0.72970  0.05640  Biso   1.000  H
  H20      1.0000 0.97450  0.22970  0.44360  Biso   1.000  H
  H21      1.0000 0.99310  0.22000  0.01630  Biso   1.000  H
  H22      1.0000 0.00690  0.72000  0.48370  Biso   1.000  H
  H23      1.0000 0.00690  0.78000  0.98370  Biso   1.000  H
  H24      1.0000 0.99310  0.28000  0.51630  Biso   1.000  H
  C1       1.0000 0.31770  0.45470  0.04090  Biso   1.000  C
  C2       1.0000 0.68230  0.95470  0.45910  Biso   1.000  C
  C3       1.0000 0.68230  0.54530  0.95910  Biso   1.000  C
  C4       1.0000 0.31770  0.04530  0.54090  Biso   1.000  C
  H25      1.0000 0.40100  0.48880  0.05660  Biso   1.000  H
  H26      1.0000 0.59900  0.98880  0.44340  Biso   1.000  H
  H27      1.0000 0.59900  0.51120  0.94340  Biso   1.000  H
  H28      1.0000 0.40100  0.01120  0.55660  Biso   1.000  H
  H29      1.0000 0.24840  0.47720  0.99390  Biso   1.000  H
  H30      1.0000 0.75160  0.97720  0.50610  Biso   1.000  H
  H31      1.0000 0.75160  0.52280  0.00610  Biso   1.000  H
  H32      1.0000 0.24840  0.02280  0.49390  Biso   1.000  H
  C5       1.0000 0.24690  0.44370  0.11390  Biso   1.000  C
  C6       1.0000 0.75310  0.94370  0.38610  Biso   1.000  C
  C7       1.0000 0.75310  0.55630  0.88610  Biso   1.000  C
  C8       1.0000 0.24690  0.05630  0.61390  Biso   1.000  C
  H33      1.0000 0.32250  0.44250  0.16530  Biso   1.000  H
  H34      1.0000 0.67750  0.94250  0.33470  Biso   1.000  H
  H35      1.0000 0.67750  0.55750  0.83470  Biso   1.000  H
  H36      1.0000 0.32250  0.05750  0.66530  Biso   1.000  H
  H37      1.0000 0.18400  0.48710  0.11690  Biso   1.000  H
  H38      1.0000 0.81600  0.98710  0.38310  Biso   1.000  H
  H39      1.0000 0.81600  0.51290  0.88310  Biso   1.000  H
  H40      1.0000 0.18400  0.01290  0.61690  Biso   1.000  H
  C9       1.0000 0.30560  0.28810  0.21710  Biso   1.000  C
  C10      1.0000 0.69440  0.78810  0.28290  Biso   1.000  C
  C11      1.0000 0.69440  0.71190  0.78290  Biso   1.000  C
  C12      1.0000 0.30560  0.21190  0.71710  Biso   1.000  C
  H41      1.0000 0.29680  0.25740  0.26500  Biso   1.000  H
  H42      1.0000 0.70320  0.75740  0.23500  Biso   1.000  H
  H43      1.0000 0.70320  0.74260  0.73500  Biso   1.000  H
  H44      1.0000 0.29680  0.24260  0.76500  Biso   1.000  H
  H45      1.0000 0.39170  0.32010  0.23380  Biso   1.000  H
  H46      1.0000 0.60830  0.82010  0.26620  Biso   1.000  H
  H47      1.0000 0.60830  0.67990  0.76620  Biso   1.000  H
  H48      1.0000 0.39170  0.17990  0.73380  Biso   1.000  H
  C13      1.0000 0.18260  0.33400  0.19270  Biso   1.000  C
  C14      1.0000 0.81740  0.83400  0.30730  Biso   1.000  C
  C15      1.0000 0.81740  0.66600  0.80730  Biso   1.000  C
  C16      1.0000 0.18260  0.16600  0.69270  Biso   1.000  C
  H49      1.0000 0.18720  0.37360  0.23470  Biso   1.000  H
  H50      1.0000 0.81280  0.87360  0.26530  Biso   1.000  H
  H51      1.0000 0.81280  0.62640  0.76530  Biso   1.000  H
  H52      1.0000 0.18720  0.12640  0.73470  Biso   1.000  H
  H53      1.0000 0.09720  0.30290  0.19330  Biso   1.000  H
  H54      1.0000 0.90280  0.80290  0.30670  Biso   1.000  H
  H55      1.0000 0.90280  0.69710  0.80670  Biso   1.000  H
  H56      1.0000 0.09720  0.19710  0.69330  Biso   1.000  H
  C17      1.0000 0.00610  0.38540  0.07530  Biso   1.000  C
  C18      1.0000 0.99390  0.88540  0.42470  Biso   1.000  C
  C19      1.0000 0.99390  0.61460  0.92470  Biso   1.000  C
  C20      1.0000 0.00610  0.11460  0.57530  Biso   1.000  C
  H57      1.0000 0.96470  0.40450  0.12050  Biso   1.000  H
  H58      1.0000 0.03530  0.90450  0.37950  Biso   1.000  H
  H59      1.0000 0.03530  0.59550  0.87950  Biso   1.000  H
  H60      1.0000 0.96470  0.09550  0.62050  Biso   1.000  H
  H61      1.0000 0.99540  0.42540  0.03320  Biso   1.000  H
  H62      1.0000 0.00460  0.92540  0.46680  Biso   1.000  H
  H63      1.0000 0.00460  0.57460  0.96680  Biso   1.000  H
  H64      1.0000 0.99540  0.07460  0.53320  Biso   1.000  H
  C21      1.0000 0.92240  0.32100  0.03880  Biso   1.000  C
  C22      1.0000 0.07760  0.82100  0.46120  Biso   1.000  C
  C23      1.0000 0.07760  0.67900  0.96120  Biso   1.000  C
  C24      1.0000 0.92240  0.17900  0.53880  Biso   1.000  C
  H65      1.0000 0.83840  0.33870  0.99690  Biso   1.000  H
  H66      1.0000 0.16160  0.83870  0.50310  Biso   1.000  H
  H67      1.0000 0.16160  0.66130  0.00310  Biso   1.000  H
  H68      1.0000 0.83840  0.16130  0.49690  Biso   1.000  H
  H69      1.0000 0.88650  0.29420  0.08190  Biso   1.000  H
  H70      1.0000 0.11350  0.79420  0.41810  Biso   1.000  H
  H71      1.0000 0.11350  0.70580  0.91810  Biso   1.000  H
  H72      1.0000 0.88650  0.20580  0.58190  Biso   1.000  H
  Cr1      1.0000 0.77537  0.31213  0.75774  Biso   1.000  Cr
  Cr2      1.0000 0.22463  0.81213  0.74226  Biso   1.000  Cr
  Cr3      1.0000 0.22463  0.68787  0.24226  Biso   1.000  Cr
  Cr4      1.0000 0.77537  0.18787  0.25774  Biso   1.000  Cr
  Na1      1.0000 0.27810  0.48956  0.77105  Biso   1.000  Na
  Na2      1.0000 0.72190  0.98956  0.72895  Biso   1.000  Na
  Na3      1.0000 0.72190  0.51044  0.22895  Biso   1.000  Na
  Na4      1.0000 0.27810  0.01044  0.27105  Biso   1.000  Na
  O5       1.0000 0.92580  0.32320  0.69250  Biso   1.000  O
  O6       1.0000 0.07420  0.82320  0.80750  Biso   1.000  O
  O7       1.0000 0.07420  0.67680  0.30750  Biso   1.000  O
  O8       1.0000 0.92580  0.17680  0.19250  Biso   1.000  O
  O9       1.0000 0.90850  0.38120  0.83750  Biso   1.000  O
  O10      1.0000 0.09150  0.88120  0.66250  Biso   1.000  O
  O11      1.0000 0.09150  0.61880  0.16250  Biso   1.000  O
  O12      1.0000 0.90850  0.11880  0.33750  Biso   1.000  O
  O13      1.0000 0.12950  0.39160  0.69270  Biso   1.000  O
  O14      1.0000 0.87050  0.89160  0.80730  Biso   1.000  O
  O15      1.0000 0.87050  0.60840  0.30730  Biso   1.000  O
  O16      1.0000 0.12950  0.10840  0.19270  Biso   1.000  O
  O17      1.0000 0.10940  0.45070  0.84760  Biso   1.000  O
  O18      1.0000 0.89060  0.95070  0.65240  Biso   1.000  O
  O19      1.0000 0.89060  0.54930  0.15240  Biso   1.000  O
  O20      1.0000 0.10940  0.04930  0.34760  Biso   1.000  O
  O21      1.0000 0.66240  0.39940  0.69770  Biso   1.000  O
  O22      1.0000 0.33760  0.89940  0.80230  Biso   1.000  O
  O23      1.0000 0.33760  0.60060  0.30230  Biso   1.000  O
  O24      1.0000 0.66240  0.10060  0.19770  Biso   1.000  O
  O25      1.0000 0.62790  0.31850  0.82560  Biso   1.000  O
  O26      1.0000 0.37210  0.81850  0.67440  Biso   1.000  O
  O27      1.0000 0.37210  0.68150  0.17440  Biso   1.000  O
  O28      1.0000 0.62790  0.18150  0.32560  Biso   1.000  O
  O29      1.0000 0.47520  0.47340  0.70460  Biso   1.000  O
  O30      1.0000 0.52480  0.97340  0.79540  Biso   1.000  O
  O31      1.0000 0.52480  0.52660  0.29540  Biso   1.000  O
  O32      1.0000 0.47520  0.02660  0.20460  Biso   1.000  O
  O33      1.0000 0.44990  0.39580  0.84620  Biso   1.000  O
  O34      1.0000 0.55010  0.89580  0.65380  Biso   1.000  O
  O35      1.0000 0.55010  0.60420  0.15380  Biso   1.000  O
  O36      1.0000 0.44990  0.10420  0.34620  Biso   1.000  O
  O37      1.0000 0.66060  0.23770  0.68030  Biso   1.000  O
  O38      1.0000 0.33940  0.73770  0.81970  Biso   1.000  O
  O39      1.0000 0.33940  0.76230  0.31970  Biso   1.000  O
  O40      1.0000 0.66060  0.26230  0.18030  Biso   1.000  O
  O41      1.0000 0.86860  0.22070  0.81530  Biso   1.000  O
  O42      1.0000 0.13140  0.72070  0.68470  Biso   1.000  O
  O43      1.0000 0.13140  0.77930  0.18470  Biso   1.000  O
  O44      1.0000 0.86860  0.27930  0.31530  Biso   1.000  O
  O45      1.0000 0.63780  0.11060  0.66090  Biso   1.000  O
  O46      1.0000 0.36220  0.61060  0.83910  Biso   1.000  O
  O47      1.0000 0.36220  0.88940  0.33910  Biso   1.000  O
  O48      1.0000 0.63780  0.38940  0.16090  Biso   1.000  O
  O49      1.0000 0.85960  0.09170  0.80340  Biso   1.000  O
  O50      1.0000 0.14040  0.59170  0.69660  Biso   1.000  O
  O51      1.0000 0.14040  0.90830  0.19660  Biso   1.000  O
  O52      1.0000 0.85960  0.40830  0.30340  Biso   1.000  O
  C25      1.0000 0.02970  0.37110  0.72390  Biso   1.000  C
  C26      1.0000 0.97030  0.87110  0.77610  Biso   1.000  C
  C27      1.0000 0.97030  0.62890  0.27610  Biso   1.000  C
  C28      1.0000 0.02970  0.12890  0.22390  Biso   1.000  C
  C29      1.0000 0.01710  0.40530  0.81060  Biso   1.000  C
  C30      1.0000 0.98290  0.90530  0.68940  Biso   1.000  C
  C31      1.0000 0.98290  0.59470  0.18940  Biso   1.000  C
  C32      1.0000 0.01710  0.09470  0.31060  Biso   1.000  C
  C33      1.0000 0.55850  0.42150  0.73090  Biso   1.000  C
  C34      1.0000 0.44150  0.92150  0.76910  Biso   1.000  C
  C35      1.0000 0.44150  0.57850  0.26910  Biso   1.000  C
  C36      1.0000 0.55850  0.07850  0.23090  Biso   1.000  C
  C37      1.0000 0.54090  0.37670  0.80700  Biso   1.000  C
  C38      1.0000 0.45910  0.87670  0.69300  Biso   1.000  C
  C39      1.0000 0.45910  0.62330  0.19300  Biso   1.000  C
  C40      1.0000 0.54090  0.12330  0.30700  Biso   1.000  C
  C41      1.0000 0.69270  0.16900  0.69950  Biso   1.000  C
  C42      1.0000 0.30730  0.66900  0.80050  Biso   1.000  C
  C43      1.0000 0.30730  0.83100  0.30050  Biso   1.000  C
  C44      1.0000 0.69270  0.33100  0.19950  Biso   1.000  C
  C45      1.0000 0.82020  0.15630  0.78000  Biso   1.000  C
  C46      1.0000 0.17980  0.65630  0.72000  Biso   1.000  C
  C47      1.0000 0.17980  0.84370  0.22000  Biso   1.000  C
  C48      1.0000 0.82020  0.34370  0.28000  Biso   1.000  C
  O53      1.0000 0.14330  0.40450  0.41570  Biso   1.000  O
  O54      1.0000 0.85670  0.90450  0.08430  Biso   1.000  O
  O55      1.0000 0.85670  0.59550  0.58430  Biso   1.000  O
  O56      1.0000 0.14330  0.09550  0.91570  Biso   1.000  O
  O57      1.0000 0.76100  0.11360  0.02160  Biso   1.000  O
  O58      1.0000 0.23900  0.61360  0.47840  Biso   1.000  O
  O59      1.0000 0.23900  0.88640  0.97840  Biso   1.000  O
  O60      1.0000 0.76100  0.38640  0.52160  Biso   1.000  O
  O61      1.0000 0.55380  0.23040  0.95280  Biso   1.000  O
  O62      1.0000 0.44620  0.73040  0.54720  Biso   1.000  O
  O63      1.0000 0.44620  0.76960  0.04720  Biso   1.000  O
  O64      1.0000 0.55380  0.26960  0.45280  Biso   1.000  O
