data_image0
_cell_length_a       7.3363
_cell_length_b       6.1934
_cell_length_c       25.219
_cell_angle_alpha    90
_cell_angle_beta     97.708
_cell_angle_gamma    90

_symmetry_space_group_name_H-M    "P 1"
_symmetry_int_tables_number       1

loop_
  _symmetry_equiv_pos_as_xyz
  'x, y, z'

loop_
  _atom_site_label
  _atom_site_occupancy
  _atom_site_fract_x
  _atom_site_fract_y
  _atom_site_fract_z
  _atom_site_thermal_displace_type
  _atom_site_B_iso_or_equiv
  _atom_site_type_symbol
  Cu1      1.0000 0.00000  0.00000  0.50000  Biso   1.000  Cu
  Cu2      1.0000 0.00000  0.50000  0.00000  Biso   1.000  Cu
  C1       1.0000 0.19420  0.12870  0.35950  Biso   1.000  C
  C2       1.0000 0.80580  0.62870  0.14050  Biso   1.000  C
  C3       1.0000 0.80580  0.87130  0.64050  Biso   1.000  C
  C4       1.0000 0.19420  0.37130  0.85950  Biso   1.000  C
  C5       1.0000 0.22390  0.07380  0.30431  Biso   1.000  C
  C6       1.0000 0.77610  0.57380  0.19569  Biso   1.000  C
  C7       1.0000 0.77610  0.92620  0.69569  Biso   1.000  C
  C8       1.0000 0.22390  0.42620  0.80431  Biso   1.000  C
  C9       1.0000 0.18550  0.86700  0.28390  Biso   1.000  C
  C10      1.0000 0.81450  0.36700  0.21610  Biso   1.000  C
  C11      1.0000 0.81450  0.13300  0.71610  Biso   1.000  C
  C12      1.0000 0.18550  0.63300  0.78390  Biso   1.000  C
  H1       1.0000 0.14280  0.76130  0.30540  Biso   1.000  H
  H2       1.0000 0.85720  0.26130  0.19460  Biso   1.000  H
  H3       1.0000 0.85720  0.23870  0.69460  Biso   1.000  H
  H4       1.0000 0.14280  0.73870  0.80540  Biso   1.000  H
  C13      1.0000 0.21100  0.81870  0.23170  Biso   1.000  C
  C14      1.0000 0.78900  0.31870  0.26830  Biso   1.000  C
  C15      1.0000 0.78900  0.18130  0.76830  Biso   1.000  C
  C16      1.0000 0.21100  0.68130  0.73170  Biso   1.000  C
  H5       1.0000 0.18390  0.68070  0.21830  Biso   1.000  H
  H6       1.0000 0.81610  0.18070  0.28170  Biso   1.000  H
  H7       1.0000 0.81610  0.31930  0.78170  Biso   1.000  H
  H8       1.0000 0.18390  0.81930  0.71830  Biso   1.000  H
  C17      1.0000 0.27640  0.97380  0.19905  Biso   1.000  C
  C18      1.0000 0.72360  0.47380  0.30095  Biso   1.000  C
  C19      1.0000 0.72360  0.02620  0.80095  Biso   1.000  C
  C20      1.0000 0.27640  0.52620  0.69905  Biso   1.000  C
  C21      1.0000 0.31390  0.17950  0.21932  Biso   1.000  C
  C22      1.0000 0.68610  0.67950  0.28068  Biso   1.000  C
  C23      1.0000 0.68610  0.82050  0.78068  Biso   1.000  C
  C24      1.0000 0.31390  0.32050  0.71932  Biso   1.000  C
  H9       1.0000 0.35710  0.28480  0.19780  Biso   1.000  H
  H10      1.0000 0.64290  0.78480  0.30220  Biso   1.000  H
  H11      1.0000 0.64290  0.71520  0.80220  Biso   1.000  H
  H12      1.0000 0.35710  0.21520  0.69780  Biso   1.000  H
  C25      1.0000 0.28750  0.22950  0.27156  Biso   1.000  C
  C26      1.0000 0.71250  0.72950  0.22844  Biso   1.000  C
  C27      1.0000 0.71250  0.77050  0.72844  Biso   1.000  C
  C28      1.0000 0.28750  0.27050  0.77156  Biso   1.000  C
  H13      1.0000 0.31260  0.36820  0.28470  Biso   1.000  H
  H14      1.0000 0.68740  0.86820  0.21530  Biso   1.000  H
  H15      1.0000 0.68740  0.63180  0.71530  Biso   1.000  H
  H16      1.0000 0.31260  0.13180  0.78470  Biso   1.000  H
  C29      1.0000 0.30830  0.91020  0.14277  Biso   1.000  C
  C30      1.0000 0.69170  0.41020  0.35723  Biso   1.000  C
  C31      1.0000 0.69170  0.08980  0.85723  Biso   1.000  C
  C32      1.0000 0.30830  0.58980  0.64277  Biso   1.000  C
  H17      1.0000 0.42690  0.83960  0.14440  Biso   1.000  H
  H18      1.0000 0.57310  0.33960  0.35560  Biso   1.000  H
  H19      1.0000 0.57310  0.16040  0.85560  Biso   1.000  H
  H20      1.0000 0.42690  0.66040  0.64440  Biso   1.000  H
  H21      1.0000 0.21470  0.80720  0.12850  Biso   1.000  H
  H22      1.0000 0.78530  0.30720  0.37150  Biso   1.000  H
  H23      1.0000 0.78530  0.19280  0.87150  Biso   1.000  H
  H24      1.0000 0.21470  0.69280  0.62850  Biso   1.000  H
  C33      1.0000 0.15020  0.17710  0.07892  Biso   1.000  C
  C34      1.0000 0.84980  0.67710  0.42108  Biso   1.000  C
  C35      1.0000 0.84980  0.82290  0.92108  Biso   1.000  C
  C36      1.0000 0.15020  0.32290  0.57892  Biso   1.000  C
  H25      1.0000 0.03240  0.12330  0.08000  Biso   1.000  H
  H26      1.0000 0.96760  0.62330  0.42000  Biso   1.000  H
  H27      1.0000 0.96760  0.87670  0.92000  Biso   1.000  H
  H28      1.0000 0.03240  0.37670  0.58000  Biso   1.000  H
  C37      1.0000 0.37540  0.37170  0.06022  Biso   1.000  C
  C38      1.0000 0.62460  0.87170  0.43978  Biso   1.000  C
  C39      1.0000 0.62460  0.62830  0.93978  Biso   1.000  C
  C40      1.0000 0.37540  0.12830  0.56022  Biso   1.000  C
  H29      1.0000 0.44160  0.47900  0.04540  Biso   1.000  H
  H30      1.0000 0.55840  0.97900  0.45460  Biso   1.000  H
  H31      1.0000 0.55840  0.52100  0.95460  Biso   1.000  H
  H32      1.0000 0.44160  0.02100  0.54540  Biso   1.000  H
  C41      1.0000 0.44930  0.21820  0.09521  Biso   1.000  C
  C42      1.0000 0.55070  0.71820  0.40479  Biso   1.000  C
  C43      1.0000 0.55070  0.78180  0.90479  Biso   1.000  C
  C44      1.0000 0.44930  0.28180  0.59521  Biso   1.000  C
  H33      1.0000 0.57270  0.20050  0.10870  Biso   1.000  H
  H34      1.0000 0.42730  0.70050  0.39130  Biso   1.000  H
  H35      1.0000 0.42730  0.79950  0.89130  Biso   1.000  H
  H36      1.0000 0.57270  0.29950  0.60870  Biso   1.000  H
  N1       1.0000 0.11850  0.10670  0.43685  Biso   1.000  N
  N2       1.0000 0.88150  0.60670  0.06315  Biso   1.000  N
  N3       1.0000 0.88150  0.89330  0.56315  Biso   1.000  N
  N4       1.0000 0.11850  0.39330  0.93685  Biso   1.000  N
  N5       1.0000 0.12310  0.99280  0.39174  Biso   1.000  N
  N6       1.0000 0.87690  0.49280  0.10826  Biso   1.000  N
  N7       1.0000 0.87690  0.00720  0.60826  Biso   1.000  N
  N8       1.0000 0.12310  0.50720  0.89174  Biso   1.000  N
  N9       1.0000 0.18440  0.30160  0.43178  Biso   1.000  N
  N10      1.0000 0.81560  0.80160  0.06822  Biso   1.000  N
  N11      1.0000 0.81560  0.69840  0.56822  Biso   1.000  N
  N12      1.0000 0.18440  0.19840  0.93178  Biso   1.000  N
  N13      1.0000 0.23320  0.32090  0.38258  Biso   1.000  N
  N14      1.0000 0.76680  0.82090  0.11742  Biso   1.000  N
  N15      1.0000 0.76680  0.67910  0.61742  Biso   1.000  N
  N16      1.0000 0.23320  0.17910  0.88258  Biso   1.000  N
  N17      1.0000 0.30340  0.09450  0.10656  Biso   1.000  N
  N18      1.0000 0.69660  0.59450  0.39344  Biso   1.000  N
  N19      1.0000 0.69660  0.90550  0.89344  Biso   1.000  N
  N20      1.0000 0.30340  0.40550  0.60656  Biso   1.000  N
  N21      1.0000 0.18840  0.34430  0.05002  Biso   1.000  N
  N22      1.0000 0.81160  0.84430  0.44998  Biso   1.000  N
  N23      1.0000 0.81160  0.65570  0.94998  Biso   1.000  N
  N24      1.0000 0.18840  0.15570  0.55002  Biso   1.000  N
  O1       1.0000 0.76320  0.31450  0.50004  Biso   1.000  O
  O2       1.0000 0.23680  0.81450  0.99996  Biso   1.000  O
  O3       1.0000 0.23680  0.68550  0.49996  Biso   1.000  O
  O4       1.0000 0.76320  0.18550  0.00004  Biso   1.000  O
  H37      1.0000 0.78600  0.44700  0.51390  Biso   1.000  H
  H38      1.0000 0.21400  0.94700  0.98610  Biso   1.000  H
  H39      1.0000 0.21400  0.55300  0.48610  Biso   1.000  H
  H40      1.0000 0.78600  0.05300  0.01390  Biso   1.000  H
  H41      1.0000 0.66400  0.26500  0.51130  Biso   1.000  H
  H42      1.0000 0.33600  0.76500  0.98870  Biso   1.000  H
  H43      1.0000 0.33600  0.73500  0.48870  Biso   1.000  H
  H44      1.0000 0.66400  0.23500  0.01130  Biso   1.000  H
