data_image0
_cell_length_a       7.5725
_cell_length_b       13.339
_cell_length_c       18.881
_cell_angle_alpha    90
_cell_angle_beta     113.42
_cell_angle_gamma    90

_symmetry_space_group_name_H-M    "P 1"
_symmetry_int_tables_number       1

loop_
  _symmetry_equiv_pos_as_xyz
  'x, y, z'

loop_
  _atom_site_label
  _atom_site_occupancy
  _atom_site_fract_x
  _atom_site_fract_y
  _atom_site_fract_z
  _atom_site_thermal_displace_type
  _atom_site_B_iso_or_equiv
  _atom_site_type_symbol
  Cu1      1.0000 0.80735  0.27964  0.18722  Biso   1.000  Cu
  Cu2      1.0000 0.19265  0.77964  0.31278  Biso   1.000  Cu
  Cu3      1.0000 0.19265  0.72036  0.81278  Biso   1.000  Cu
  Cu4      1.0000 0.80735  0.22036  0.68722  Biso   1.000  Cu
  O1       1.0000 0.76060  0.35512  0.26878  Biso   1.000  O
  O2       1.0000 0.23940  0.85512  0.23122  Biso   1.000  O
  O3       1.0000 0.23940  0.64488  0.73122  Biso   1.000  O
  O4       1.0000 0.76060  0.14488  0.76878  Biso   1.000  O
  O5       1.0000 0.81420  0.22327  0.34881  Biso   1.000  O
  O6       1.0000 0.18580  0.72327  0.15119  Biso   1.000  O
  O7       1.0000 0.18580  0.77673  0.65119  Biso   1.000  O
  O8       1.0000 0.81420  0.27673  0.84881  Biso   1.000  O
  O9       1.0000 0.81345  0.34055  0.46325  Biso   1.000  O
  O10      1.0000 0.18655  0.84055  0.03675  Biso   1.000  O
  O11      1.0000 0.18655  0.65945  0.53675  Biso   1.000  O
  O12      1.0000 0.81345  0.15945  0.96325  Biso   1.000  O
  O13      1.0000 0.85663  0.29295  0.60515  Biso   1.000  O
  O14      1.0000 0.14337  0.79295  0.89485  Biso   1.000  O
  O15      1.0000 0.14337  0.70705  0.39485  Biso   1.000  O
  O16      1.0000 0.85663  0.20705  0.10515  Biso   1.000  O
  O17      1.0000 0.76080  0.44502  0.62582  Biso   1.000  O
  O18      1.0000 0.23920  0.94502  0.87418  Biso   1.000  O
  O19      1.0000 0.23920  0.55498  0.37418  Biso   1.000  O
  O20      1.0000 0.76080  0.05498  0.12582  Biso   1.000  O
  N1       1.0000 0.52610  0.27626  0.12482  Biso   1.000  N
  N2       1.0000 0.47390  0.77626  0.37518  Biso   1.000  N
  N3       1.0000 0.47390  0.72374  0.87518  Biso   1.000  N
  N4       1.0000 0.52610  0.22374  0.62482  Biso   1.000  N
  N5       1.0000 0.21610  0.26486  0.08964  Biso   1.000  N
  N6       1.0000 0.78390  0.76486  0.41036  Biso   1.000  N
  N7       1.0000 0.78390  0.73514  0.91036  Biso   1.000  N
  N8       1.0000 0.21610  0.23514  0.58964  Biso   1.000  N
  H1       1.0000 0.10640  0.25610  0.09230  Biso   1.000  H
  H2       1.0000 0.89360  0.75610  0.40770  Biso   1.000  H
  H3       1.0000 0.89360  0.74390  0.90770  Biso   1.000  H
  H4       1.0000 0.10640  0.24390  0.59230  Biso   1.000  H
  N9       1.0000 0.07490  0.25501  0.25855  Biso   1.000  N
  N10      1.0000 0.92510  0.75501  0.24145  Biso   1.000  N
  N11      1.0000 0.92510  0.74499  0.74145  Biso   1.000  N
  N12      1.0000 0.07490  0.24499  0.75855  Biso   1.000  N
  N13      1.0000 0.33740  0.17360  0.32566  Biso   1.000  N
  N14      1.0000 0.66260  0.67360  0.17434  Biso   1.000  N
  N15      1.0000 0.66260  0.82640  0.67434  Biso   1.000  N
  N16      1.0000 0.33740  0.32640  0.82566  Biso   1.000  N
  H5       1.0000 0.42070  0.12600  0.34130  Biso   1.000  H
  H6       1.0000 0.57930  0.62600  0.15870  Biso   1.000  H
  H7       1.0000 0.57930  0.87400  0.65870  Biso   1.000  H
  H8       1.0000 0.42070  0.37400  0.84130  Biso   1.000  H
  C1       1.0000 0.78680  0.31396  0.33307  Biso   1.000  C
  C2       1.0000 0.21320  0.81396  0.16693  Biso   1.000  C
  C3       1.0000 0.21320  0.68604  0.66693  Biso   1.000  C
  C4       1.0000 0.78680  0.18604  0.83307  Biso   1.000  C
  C5       1.0000 0.77830  0.38283  0.39338  Biso   1.000  C
  C6       1.0000 0.22170  0.88283  0.10662  Biso   1.000  C
  C7       1.0000 0.22170  0.61717  0.60662  Biso   1.000  C
  C8       1.0000 0.77830  0.11717  0.89338  Biso   1.000  C
  C9       1.0000 0.72610  0.47994  0.39320  Biso   1.000  C
  C10      1.0000 0.27390  0.97994  0.10680  Biso   1.000  C
  C11      1.0000 0.27390  0.52006  0.60680  Biso   1.000  C
  C12      1.0000 0.72610  0.02006  0.89320  Biso   1.000  C
  H9       1.0000 0.69590  0.52510  0.35250  Biso   1.000  H
  H10      1.0000 0.30410  0.02510  0.14750  Biso   1.000  H
  H11      1.0000 0.30410  0.47490  0.64750  Biso   1.000  H
  H12      1.0000 0.69590  0.97490  0.85250  Biso   1.000  H
  C13      1.0000 0.72650  0.49939  0.46681  Biso   1.000  C
  C14      1.0000 0.27350  0.99939  0.03319  Biso   1.000  C
  C15      1.0000 0.27350  0.50061  0.53319  Biso   1.000  C
  C16      1.0000 0.72650  0.00061  0.96681  Biso   1.000  C
  H13      1.0000 0.69560  0.55970  0.48390  Biso   1.000  H
  H14      1.0000 0.30440  0.05970  0.01610  Biso   1.000  H
  H15      1.0000 0.30440  0.44030  0.51610  Biso   1.000  H
  H16      1.0000 0.69560  0.94030  0.98390  Biso   1.000  H
  C17      1.0000 0.78060  0.41319  0.50774  Biso   1.000  C
  C18      1.0000 0.21940  0.91319  0.99226  Biso   1.000  C
  C19      1.0000 0.21940  0.58681  0.49226  Biso   1.000  C
  C20      1.0000 0.78060  0.08681  0.00774  Biso   1.000  C
  C21      1.0000 0.80060  0.38347  0.58597  Biso   1.000  C
  C22      1.0000 0.19940  0.88347  0.91403  Biso   1.000  C
  C23      1.0000 0.19940  0.61653  0.41403  Biso   1.000  C
  C24      1.0000 0.80060  0.11653  0.08597  Biso   1.000  C
  C25      1.0000 0.43810  0.29424  0.04730  Biso   1.000  C
  C26      1.0000 0.56190  0.79424  0.45270  Biso   1.000  C
  C27      1.0000 0.56190  0.70576  0.95270  Biso   1.000  C
  C28      1.0000 0.43810  0.20576  0.54730  Biso   1.000  C
  H17      1.0000 0.50040  0.30880  0.01490  Biso   1.000  H
  H18      1.0000 0.49960  0.80880  0.48510  Biso   1.000  H
  H19      1.0000 0.49960  0.69120  0.98510  Biso   1.000  H
  H20      1.0000 0.50040  0.19120  0.51490  Biso   1.000  H
  C29      1.0000 0.24470  0.28732  0.02537  Biso   1.000  C
  C30      1.0000 0.75530  0.78732  0.47463  Biso   1.000  C
  C31      1.0000 0.75530  0.71268  0.97463  Biso   1.000  C
  C32      1.0000 0.24470  0.21268  0.52537  Biso   1.000  C
  H21      1.0000 0.15070  0.29630  0.97590  Biso   1.000  H
  H22      1.0000 0.84930  0.79630  0.52410  Biso   1.000  H
  H23      1.0000 0.84930  0.70370  0.02410  Biso   1.000  H
  H24      1.0000 0.15070  0.20370  0.47590  Biso   1.000  H
  C33      1.0000 0.38670  0.25861  0.14793  Biso   1.000  C
  C34      1.0000 0.61330  0.75861  0.35207  Biso   1.000  C
  C35      1.0000 0.61330  0.74139  0.85207  Biso   1.000  C
  C36      1.0000 0.38670  0.24139  0.64793  Biso   1.000  C
  H25      1.0000 0.40530  0.24370  0.19850  Biso   1.000  H
  H26      1.0000 0.59470  0.74370  0.30150  Biso   1.000  H
  H27      1.0000 0.59470  0.75630  0.80150  Biso   1.000  H
  H28      1.0000 0.40530  0.25630  0.69850  Biso   1.000  H
  C37      1.0000 0.19380  0.31770  0.31533  Biso   1.000  C
  C38      1.0000 0.80620  0.81770  0.18467  Biso   1.000  C
  C39      1.0000 0.80620  0.68230  0.68467  Biso   1.000  C
  C40      1.0000 0.19380  0.18230  0.81533  Biso   1.000  C
  H29      1.0000 0.16670  0.38340  0.32400  Biso   1.000  H
  H30      1.0000 0.83330  0.88340  0.17600  Biso   1.000  H
  H31      1.0000 0.83330  0.61660  0.67600  Biso   1.000  H
  H32      1.0000 0.16670  0.11660  0.82400  Biso   1.000  H
  C41      1.0000 0.35680  0.26700  0.35633  Biso   1.000  C
  C42      1.0000 0.64320  0.76700  0.14367  Biso   1.000  C
  C43      1.0000 0.64320  0.73300  0.64367  Biso   1.000  C
  C44      1.0000 0.35680  0.23300  0.85633  Biso   1.000  C
  H33      1.0000 0.46270  0.29150  0.39790  Biso   1.000  H
  H34      1.0000 0.53730  0.79150  0.10210  Biso   1.000  H
  H35      1.0000 0.53730  0.70850  0.60210  Biso   1.000  H
  H36      1.0000 0.46270  0.20850  0.89790  Biso   1.000  H
  C45      1.0000 0.16720  0.16913  0.26737  Biso   1.000  C
  C46      1.0000 0.83280  0.66913  0.23263  Biso   1.000  C
  C47      1.0000 0.83280  0.83087  0.73263  Biso   1.000  C
  C48      1.0000 0.16720  0.33087  0.76737  Biso   1.000  C
  H37      1.0000 0.11900  0.11280  0.23670  Biso   1.000  H
  H38      1.0000 0.88100  0.61280  0.26330  Biso   1.000  H
  H39      1.0000 0.88100  0.88720  0.76330  Biso   1.000  H
  H40      1.0000 0.11900  0.38720  0.73670  Biso   1.000  H
  O21      1.0000 0.85450  0.42683  0.13588  Biso   1.000  O
  O22      1.0000 0.14550  0.92683  0.36412  Biso   1.000  O
  O23      1.0000 0.14550  0.57317  0.86412  Biso   1.000  O
  O24      1.0000 0.85450  0.07317  0.63588  Biso   1.000  O
  H41      1.0000 0.84700  0.42300  0.08900  Biso   1.000  H
  H42      1.0000 0.15300  0.92300  0.41100  Biso   1.000  H
  H43      1.0000 0.15300  0.57700  0.91100  Biso   1.000  H
  H44      1.0000 0.84700  0.07700  0.58900  Biso   1.000  H
  H45      1.0000 0.96300  0.45400  0.16400  Biso   1.000  H
  H46      1.0000 0.03700  0.95400  0.33600  Biso   1.000  H
  H47      1.0000 0.03700  0.54600  0.83600  Biso   1.000  H
  H48      1.0000 0.96300  0.04600  0.66400  Biso   1.000  H
  O25      1.0000 0.18880  0.54338  0.22157  Biso   1.000  O
  O26      1.0000 0.81120  0.04338  0.27843  Biso   1.000  O
  O27      1.0000 0.81120  0.45662  0.77843  Biso   1.000  O
  O28      1.0000 0.18880  0.95662  0.72157  Biso   1.000  O
  H49      1.0000 0.22400  0.54650  0.26870  Biso   1.000  H
  H50      1.0000 0.77600  0.04650  0.23130  Biso   1.000  H
  H51      1.0000 0.77600  0.45350  0.73130  Biso   1.000  H
  H52      1.0000 0.22400  0.95350  0.76870  Biso   1.000  H
  H53      1.0000 0.18200  0.60150  0.20180  Biso   1.000  H
  H54      1.0000 0.81800  0.10150  0.29820  Biso   1.000  H
  H55      1.0000 0.81800  0.39850  0.79820  Biso   1.000  H
  H56      1.0000 0.18200  0.89850  0.70180  Biso   1.000  H
  O29      1.0000 0.46060  0.49932  0.16719  Biso   1.000  O
  O30      1.0000 0.53940  0.99932  0.33281  Biso   1.000  O
  O31      1.0000 0.53940  0.50068  0.83281  Biso   1.000  O
  O32      1.0000 0.46060  0.00068  0.66719  Biso   1.000  O
  H57      1.0000 0.55200  0.45800  0.18400  Biso   1.000  H
  H58      1.0000 0.44800  0.95800  0.31600  Biso   1.000  H
  H59      1.0000 0.44800  0.54200  0.81600  Biso   1.000  H
  H60      1.0000 0.55200  0.04200  0.68400  Biso   1.000  H
  H61      1.0000 0.38700  0.50000  0.18880  Biso   1.000  H
  H62      1.0000 0.61300  0.00000  0.31120  Biso   1.000  H
  H63      1.0000 0.61300  0.50000  0.81120  Biso   1.000  H
  H64      1.0000 0.38700  0.00000  0.68880  Biso   1.000  H
  O33      1.0000 0.22700  0.59610  0.02425  Biso   1.000  O
  O34      1.0000 0.77300  0.09610  0.47575  Biso   1.000  O
  O35      1.0000 0.77300  0.40390  0.97575  Biso   1.000  O
  O36      1.0000 0.22700  0.90390  0.52425  Biso   1.000  O
  H65      1.0000 0.26400  0.53710  0.04600  Biso   1.000  H
  H66      1.0000 0.73600  0.03710  0.45400  Biso   1.000  H
  H67      1.0000 0.73600  0.46290  0.95400  Biso   1.000  H
  H68      1.0000 0.26400  0.96290  0.54600  Biso   1.000  H
  H69      1.0000 0.20200  0.63600  0.05760  Biso   1.000  H
  H70      1.0000 0.79800  0.13600  0.44240  Biso   1.000  H
  H71      1.0000 0.79800  0.36400  0.94240  Biso   1.000  H
  H72      1.0000 0.20200  0.86400  0.55760  Biso   1.000  H
