data_image0
_cell_length_a       9.712
_cell_length_b       9.17
_cell_length_c       13.806
_cell_angle_alpha    90
_cell_angle_beta     107.846
_cell_angle_gamma    90

_symmetry_space_group_name_H-M    "P 1"
_symmetry_int_tables_number       1

loop_
  _symmetry_equiv_pos_as_xyz
  'x, y, z'

loop_
  _atom_site_label
  _atom_site_occupancy
  _atom_site_fract_x
  _atom_site_fract_y
  _atom_site_fract_z
  _atom_site_thermal_displace_type
  _atom_site_B_iso_or_equiv
  _atom_site_type_symbol
  Cu1      1.0000 0.00000  0.50000  0.50000  Biso   1.000  Cu
  Cu2      1.0000 0.00000  0.00000  0.00000  Biso   1.000  Cu
  O1       1.0000 0.06160  0.66720  0.89783  Biso   1.000  O
  O2       1.0000 0.93840  0.16720  0.60217  Biso   1.000  O
  O3       1.0000 0.93840  0.33280  0.10217  Biso   1.000  O
  O4       1.0000 0.06160  0.83280  0.39783  Biso   1.000  O
  O5       1.0000 0.92310  0.86820  0.88436  Biso   1.000  O
  O6       1.0000 0.07690  0.36820  0.61564  Biso   1.000  O
  O7       1.0000 0.07690  0.13180  0.11564  Biso   1.000  O
  O8       1.0000 0.92310  0.63180  0.38436  Biso   1.000  O
  O9       1.0000 0.24220  0.88540  0.07627  Biso   1.000  O
  O10      1.0000 0.75780  0.38540  0.42373  Biso   1.000  O
  O11      1.0000 0.75780  0.11460  0.92373  Biso   1.000  O
  O12      1.0000 0.24220  0.61460  0.57627  Biso   1.000  O
  O13      1.0000 0.20090  0.64830  0.08754  Biso   1.000  O
  O14      1.0000 0.79910  0.14830  0.41246  Biso   1.000  O
  O15      1.0000 0.79910  0.35170  0.91246  Biso   1.000  O
  O16      1.0000 0.20090  0.85170  0.58754  Biso   1.000  O
  H1       1.0000 0.15440  0.65880  0.02740  Biso   1.000  H
  H2       1.0000 0.84560  0.15880  0.47260  Biso   1.000  H
  H3       1.0000 0.84560  0.34120  0.97260  Biso   1.000  H
  H4       1.0000 0.15440  0.84120  0.52740  Biso   1.000  H
  O17      1.0000 0.55450  0.79840  0.54443  Biso   1.000  O
  O18      1.0000 0.44550  0.29840  0.95557  Biso   1.000  O
  O19      1.0000 0.44550  0.20160  0.45557  Biso   1.000  O
  O20      1.0000 0.55450  0.70160  0.04443  Biso   1.000  O
  N1       1.0000 0.90150  0.61580  0.58428  Biso   1.000  N
  N2       1.0000 0.09850  0.11580  0.91572  Biso   1.000  N
  N3       1.0000 0.09850  0.38420  0.41572  Biso   1.000  N
  N4       1.0000 0.90150  0.88420  0.08428  Biso   1.000  N
  C1       1.0000 0.39750  0.67050  0.40290  Biso   1.000  C
  C2       1.0000 0.60250  0.17050  0.09710  Biso   1.000  C
  C3       1.0000 0.60250  0.32950  0.59710  Biso   1.000  C
  C4       1.0000 0.39750  0.82950  0.90290  Biso   1.000  C
  H5       1.0000 0.38100  0.60100  0.44720  Biso   1.000  H
  H6       1.0000 0.61900  0.10100  0.05280  Biso   1.000  H
  H7       1.0000 0.61900  0.39900  0.55280  Biso   1.000  H
  H8       1.0000 0.38100  0.89900  0.94720  Biso   1.000  H
  C5       1.0000 0.32550  0.66280  0.29940  Biso   1.000  C
  C6       1.0000 0.67450  0.16280  0.20060  Biso   1.000  C
  C7       1.0000 0.67450  0.33720  0.70060  Biso   1.000  C
  C8       1.0000 0.32550  0.83720  0.79940  Biso   1.000  C
  H9       1.0000 0.26150  0.58660  0.27380  Biso   1.000  H
  H10      1.0000 0.73850  0.08660  0.22620  Biso   1.000  H
  H11      1.0000 0.73850  0.41340  0.72620  Biso   1.000  H
  H12      1.0000 0.26150  0.91340  0.77380  Biso   1.000  H
  C9       1.0000 0.34810  0.76760  0.23380  Biso   1.000  C
  C10      1.0000 0.65190  0.26760  0.26620  Biso   1.000  C
  C11      1.0000 0.65190  0.23240  0.76620  Biso   1.000  C
  C12      1.0000 0.34810  0.73240  0.73380  Biso   1.000  C
  C13      1.0000 0.26030  0.77260  0.12460  Biso   1.000  C
  C14      1.0000 0.73970  0.27260  0.37540  Biso   1.000  C
  C15      1.0000 0.73970  0.22740  0.87540  Biso   1.000  C
  C16      1.0000 0.26030  0.72740  0.62460  Biso   1.000  C
  C17      1.0000 0.44780  0.87760  0.27260  Biso   1.000  C
  C18      1.0000 0.55220  0.37760  0.22740  Biso   1.000  C
  C19      1.0000 0.55220  0.12240  0.72740  Biso   1.000  C
  C20      1.0000 0.44780  0.62240  0.77260  Biso   1.000  C
  H13      1.0000 0.46460  0.94780  0.22890  Biso   1.000  H
  H14      1.0000 0.53540  0.44780  0.27110  Biso   1.000  H
  H15      1.0000 0.53540  0.05220  0.77110  Biso   1.000  H
  H16      1.0000 0.46460  0.55220  0.72890  Biso   1.000  H
  C21      1.0000 0.52210  0.88440  0.37450  Biso   1.000  C
  C22      1.0000 0.47790  0.38440  0.12550  Biso   1.000  C
  C23      1.0000 0.47790  0.11560  0.62550  Biso   1.000  C
  C24      1.0000 0.52210  0.61560  0.87450  Biso   1.000  C
  H17      1.0000 0.59080  0.95680  0.39980  Biso   1.000  H
  H18      1.0000 0.40920  0.45680  0.10020  Biso   1.000  H
  H19      1.0000 0.40920  0.04320  0.60020  Biso   1.000  H
  H20      1.0000 0.59080  0.54320  0.89980  Biso   1.000  H
  C25      1.0000 0.49290  0.78190  0.43900  Biso   1.000  C
  C26      1.0000 0.50710  0.28190  0.06100  Biso   1.000  C
  C27      1.0000 0.50710  0.21810  0.56100  Biso   1.000  C
  C28      1.0000 0.49290  0.71810  0.93900  Biso   1.000  C
  C29      1.0000 0.69330  0.74900  0.58850  Biso   1.000  C
  C30      1.0000 0.30670  0.24900  0.91150  Biso   1.000  C
  C31      1.0000 0.30670  0.25100  0.41150  Biso   1.000  C
  C32      1.0000 0.69330  0.75100  0.08850  Biso   1.000  C
  C33      1.0000 0.75690  0.78010  0.69080  Biso   1.000  C
  C34      1.0000 0.24310  0.28010  0.80920  Biso   1.000  C
  C35      1.0000 0.24310  0.21990  0.30920  Biso   1.000  C
  C36      1.0000 0.75690  0.71990  0.19080  Biso   1.000  C
  H21      1.0000 0.70930  0.83780  0.72580  Biso   1.000  H
  H22      1.0000 0.29070  0.33780  0.77420  Biso   1.000  H
  H23      1.0000 0.29070  0.16220  0.27420  Biso   1.000  H
  H24      1.0000 0.70930  0.66220  0.22580  Biso   1.000  H
  C37      1.0000 0.89220  0.72370  0.73950  Biso   1.000  C
  C38      1.0000 0.10780  0.22370  0.76050  Biso   1.000  C
  C39      1.0000 0.10780  0.27630  0.26050  Biso   1.000  C
  C40      1.0000 0.89220  0.77630  0.23950  Biso   1.000  C
  C41      1.0000 0.96750  0.75440  0.85090  Biso   1.000  C
  C42      1.0000 0.03250  0.25440  0.64910  Biso   1.000  C
  C43      1.0000 0.03250  0.24560  0.14910  Biso   1.000  C
  C44      1.0000 0.96750  0.74560  0.35090  Biso   1.000  C
  C45      1.0000 0.96050  0.63980  0.68400  Biso   1.000  C
  C46      1.0000 0.03950  0.13980  0.81600  Biso   1.000  C
  C47      1.0000 0.03950  0.36020  0.31600  Biso   1.000  C
  C48      1.0000 0.96050  0.86020  0.18400  Biso   1.000  C
  H25      1.0000 0.05020  0.59900  0.71740  Biso   1.000  H
  H26      1.0000 0.94980  0.09900  0.78260  Biso   1.000  H
  H27      1.0000 0.94980  0.40100  0.28260  Biso   1.000  H
  H28      1.0000 0.05020  0.90100  0.21740  Biso   1.000  H
  C49      1.0000 0.76970  0.66990  0.53660  Biso   1.000  C
  C50      1.0000 0.23030  0.16990  0.96340  Biso   1.000  C
  C51      1.0000 0.23030  0.33010  0.46340  Biso   1.000  C
  C52      1.0000 0.76970  0.83010  0.03660  Biso   1.000  C
  H29      1.0000 0.72870  0.65380  0.46720  Biso   1.000  H
  H30      1.0000 0.27130  0.15380  0.03280  Biso   1.000  H
  H31      1.0000 0.27130  0.34620  0.53280  Biso   1.000  H
  H32      1.0000 0.72870  0.84620  0.96720  Biso   1.000  H
