data_image0
_cell_length_a       10.238
_cell_length_b       10.397
_cell_length_c       12.253
_cell_angle_alpha    84.87
_cell_angle_beta     70.879
_cell_angle_gamma    66.685

_symmetry_space_group_name_H-M    "P 1"
_symmetry_int_tables_number       1

loop_
  _symmetry_equiv_pos_as_xyz
  'x, y, z'

loop_
  _atom_site_label
  _atom_site_occupancy
  _atom_site_fract_x
  _atom_site_fract_y
  _atom_site_fract_z
  _atom_site_thermal_displace_type
  _atom_site_B_iso_or_equiv
  _atom_site_type_symbol
  Cu1      1.0000 0.00000  0.00000  0.00000  Biso   1.000  Cu
  Cu2      1.0000 0.21764  0.44826  0.20023  Biso   1.000  Cu
  Cu3      1.0000 0.78236  0.55174  0.79977  Biso   1.000  Cu
  Cu4      1.0000 0.08269  0.33217  0.04138  Biso   1.000  Cu
  Cu5      1.0000 0.91731  0.66783  0.95862  Biso   1.000  Cu
  O1       1.0000 0.25540  0.05100  0.76890  Biso   1.000  O
  O2       1.0000 0.74460  0.94900  0.23110  Biso   1.000  O
  O3       1.0000 0.14210  0.90670  0.85620  Biso   1.000  O
  O4       1.0000 0.85790  0.09330  0.14380  Biso   1.000  O
  O5       1.0000 0.77500  0.40990  0.97030  Biso   1.000  O
  O6       1.0000 0.22500  0.59010  0.02970  Biso   1.000  O
  O7       1.0000 0.87170  0.46850  0.08660  Biso   1.000  O
  O8       1.0000 0.12830  0.53150  0.91340  Biso   1.000  O
  O9       1.0000 0.30100  0.22410  0.97780  Biso   1.000  O
  O10      1.0000 0.69900  0.77590  0.02220  Biso   1.000  O
  O11      1.0000 0.38930  0.28990  0.09950  Biso   1.000  O
  O12      1.0000 0.61070  0.71010  0.90050  Biso   1.000  O
  O13      1.0000 0.85570  0.56980  0.35900  Biso   1.000  O
  O14      1.0000 0.14430  0.43020  0.64100  Biso   1.000  O
  O15      1.0000 0.06790  0.60620  0.30390  Biso   1.000  O
  O16      1.0000 0.93210  0.39380  0.69610  Biso   1.000  O
  H1       1.0000 0.06460  0.66920  0.25830  Biso   1.000  H
  H2       1.0000 0.93540  0.33080  0.74170  Biso   1.000  H
  O17      1.0000 0.07970  0.37610  0.18900  Biso   1.000  O
  O18      1.0000 0.92030  0.62390  0.81100  Biso   1.000  O
  H3       1.0000 0.02700  0.42970  0.14940  Biso   1.000  H
  H4       1.0000 0.97300  0.57030  0.85060  Biso   1.000  H
  N1       1.0000 0.82440  0.03860  0.92620  Biso   1.000  N
  N2       1.0000 0.17560  0.96140  0.07380  Biso   1.000  N
  N3       1.0000 0.37330  0.50140  0.22640  Biso   1.000  N
  N4       1.0000 0.62670  0.49860  0.77360  Biso   1.000  N
  C1       1.0000 0.85130  0.97200  0.82750  Biso   1.000  C
  C2       1.0000 0.14870  0.02800  0.17250  Biso   1.000  C
  H5       1.0000 0.95030  0.91610  0.78750  Biso   1.000  H
  H6       1.0000 0.04970  0.08390  0.21250  Biso   1.000  H
  C3       1.0000 0.74160  0.98060  0.78090  Biso   1.000  C
  C4       1.0000 0.25840  0.01940  0.21910  Biso   1.000  C
  C5       1.0000 0.59280  0.06100  0.84280  Biso   1.000  C
  C6       1.0000 0.40720  0.93900  0.15720  Biso   1.000  C
  H7       1.0000 0.51510  0.06700  0.81670  Biso   1.000  H
  H8       1.0000 0.48490  0.93300  0.18330  Biso   1.000  H
  C7       1.0000 0.56330  0.13190  0.94440  Biso   1.000  C
  C8       1.0000 0.43670  0.86810  0.05560  Biso   1.000  C
  C9       1.0000 0.68030  0.11890  0.98380  Biso   1.000  C
  C10      1.0000 0.31970  0.88110  0.01620  Biso   1.000  C
  H9       1.0000 0.65870  0.16700  0.05210  Biso   1.000  H
  H10      1.0000 0.34130  0.83300  0.94790  Biso   1.000  H
  C11      1.0000 0.78400  0.89890  0.67100  Biso   1.000  C
  C12      1.0000 0.21600  0.10110  0.32900  Biso   1.000  C
  C13      1.0000 0.69600  0.83430  0.65680  Biso   1.000  C
  C14      1.0000 0.30400  0.16570  0.34320  Biso   1.000  C
  H11      1.0000 0.60440  0.84800  0.71330  Biso   1.000  H
  H12      1.0000 0.39560  0.15200  0.28670  Biso   1.000  H
  C15      1.0000 0.74290  0.74820  0.55850  Biso   1.000  C
  C16      1.0000 0.25710  0.25180  0.44150  Biso   1.000  C
  H13      1.0000 0.68390  0.70300  0.55070  Biso   1.000  H
  H14      1.0000 0.31610  0.29700  0.44930  Biso   1.000  H
  C17      1.0000 0.87800  0.73040  0.47230  Biso   1.000  C
  C18      1.0000 0.12200  0.26960  0.52770  Biso   1.000  C
  C19      1.0000 0.96130  0.80270  0.48360  Biso   1.000  C
  C20      1.0000 0.03870  0.19730  0.51640  Biso   1.000  C
  H15      1.0000 0.04840  0.79590  0.42410  Biso   1.000  H
  H16      1.0000 0.95160  0.20410  0.57590  Biso   1.000  H
  C21      1.0000 0.91670  0.88490  0.58210  Biso   1.000  C
  C22      1.0000 0.08330  0.11510  0.41790  Biso   1.000  C
  H17      1.0000 0.97510  0.93100  0.58930  Biso   1.000  H
  H18      1.0000 0.02490  0.06900  0.41070  Biso   1.000  H
  C23      1.0000 0.40340  0.22250  0.01310  Biso   1.000  C
  C24      1.0000 0.59660  0.77750  0.98690  Biso   1.000  C
  C25      1.0000 0.93340  0.62680  0.37130  Biso   1.000  C
  C26      1.0000 0.06660  0.37320  0.62870  Biso   1.000  C
  C27      1.0000 0.50620  0.47390  0.14440  Biso   1.000  C
  C28      1.0000 0.49380  0.52610  0.85560  Biso   1.000  C
  H19      1.0000 0.52590  0.42620  0.07650  Biso   1.000  H
  H20      1.0000 0.47410  0.57380  0.92350  Biso   1.000  H
  C29      1.0000 0.61490  0.51240  0.15570  Biso   1.000  C
  C30      1.0000 0.38510  0.48760  0.84430  Biso   1.000  C
  C31      1.0000 0.58550  0.58910  0.25570  Biso   1.000  C
  C32      1.0000 0.41450  0.41090  0.74430  Biso   1.000  C
  H21      1.0000 0.65610  0.61910  0.26420  Biso   1.000  H
  H22      1.0000 0.34390  0.38090  0.73580  Biso   1.000  H
  C33      1.0000 0.44730  0.61910  0.34200  Biso   1.000  C
  C34      1.0000 0.55270  0.38090  0.65800  Biso   1.000  C
  C35      1.0000 0.34750  0.57160  0.32380  Biso   1.000  C
  C36      1.0000 0.65250  0.42840  0.67620  Biso   1.000  C
  H23      1.0000 0.25670  0.58910  0.38240  Biso   1.000  H
  H24      1.0000 0.74330  0.41090  0.61760  Biso   1.000  H
  C37      1.0000 0.40070  0.69920  0.45290  Biso   1.000  C
  C38      1.0000 0.59930  0.30080  0.54710  Biso   1.000  C
  C39      1.0000 0.43380  0.81450  0.45730  Biso   1.000  C
  C40      1.0000 0.56620  0.18550  0.54270  Biso   1.000  C
  H25      1.0000 0.49380  0.83920  0.39100  Biso   1.000  H
  H26      1.0000 0.50620  0.16080  0.60900  Biso   1.000  H
  C41      1.0000 0.37890  0.89370  0.55900  Biso   1.000  C
  C42      1.0000 0.62110  0.10630  0.44100  Biso   1.000  C
  H27      1.0000 0.40060  0.97220  0.56010  Biso   1.000  H
  H28      1.0000 0.59940  0.02780  0.43990  Biso   1.000  H
  C43      1.0000 0.29120  0.85710  0.66000  Biso   1.000  C
  C44      1.0000 0.70880  0.14290  0.34000  Biso   1.000  C
  C45      1.0000 0.26100  0.73800  0.65630  Biso   1.000  C
  C46      1.0000 0.73900  0.26200  0.34370  Biso   1.000  C
  H29      1.0000 0.20470  0.71070  0.72340  Biso   1.000  H
  H30      1.0000 0.79530  0.28930  0.27660  Biso   1.000  H
  C47      1.0000 0.31390  0.66050  0.55410  Biso   1.000  C
  C48      1.0000 0.68610  0.33950  0.44590  Biso   1.000  C
  H31      1.0000 0.29180  0.58230  0.55230  Biso   1.000  H
  H32      1.0000 0.70820  0.41770  0.44770  Biso   1.000  H
  C49      1.0000 0.76530  0.46010  0.06250  Biso   1.000  C
  C50      1.0000 0.23470  0.53990  0.93750  Biso   1.000  C
  C51      1.0000 0.22600  0.94740  0.76940  Biso   1.000  C
  C52      1.0000 0.77400  0.05260  0.23060  Biso   1.000  C
  O19      1.0000 0.05430  0.22950  0.93040  Biso   1.000  O
  O20      1.0000 0.94570  0.77050  0.06960  Biso   1.000  O
  H33      1.0000 0.13630  0.18070  0.88580  Biso   1.000  H
  H34      1.0000 0.86370  0.81930  0.11420  Biso   1.000  H
