data_image0
_cell_length_a       8.749
_cell_length_b       10.786
_cell_length_c       26.882
_cell_angle_alpha    90
_cell_angle_beta     90
_cell_angle_gamma    90

_symmetry_space_group_name_H-M    "P 1"
_symmetry_int_tables_number       1

loop_
  _symmetry_equiv_pos_as_xyz
  'x, y, z'

loop_
  _atom_site_label
  _atom_site_occupancy
  _atom_site_fract_x
  _atom_site_fract_y
  _atom_site_fract_z
  _atom_site_thermal_displace_type
  _atom_site_B_iso_or_equiv
  _atom_site_type_symbol
  Cu1      1.0000 0.08650  0.19620  0.12810  Biso   1.000  Cu
  Cu2      1.0000 0.41350  0.69620  0.12810  Biso   1.000  Cu
  Cu3      1.0000 0.08650  0.30380  0.62810  Biso   1.000  Cu
  Cu4      1.0000 0.41350  0.80380  0.62810  Biso   1.000  Cu
  Cu5      1.0000 0.91350  0.80380  0.87190  Biso   1.000  Cu
  Cu6      1.0000 0.58650  0.30380  0.87190  Biso   1.000  Cu
  Cu7      1.0000 0.91350  0.69620  0.37190  Biso   1.000  Cu
  Cu8      1.0000 0.58650  0.19620  0.37190  Biso   1.000  Cu
  S1       1.0000 0.18090  0.03510  0.21110  Biso   1.000  S
  S2       1.0000 0.31910  0.53510  0.21110  Biso   1.000  S
  S3       1.0000 0.18090  0.46490  0.71110  Biso   1.000  S
  S4       1.0000 0.31910  0.96490  0.71110  Biso   1.000  S
  S5       1.0000 0.81910  0.96490  0.78890  Biso   1.000  S
  S6       1.0000 0.68090  0.46490  0.78890  Biso   1.000  S
  S7       1.0000 0.81910  0.53510  0.28890  Biso   1.000  S
  S8       1.0000 0.68090  0.03510  0.28890  Biso   1.000  S
  C1       1.0000 0.26820  0.92250  0.18000  Biso   1.000  C
  C2       1.0000 0.23180  0.42250  0.18000  Biso   1.000  C
  C3       1.0000 0.26820  0.57750  0.68000  Biso   1.000  C
  C4       1.0000 0.23180  0.07750  0.68000  Biso   1.000  C
  C5       1.0000 0.73180  0.07750  0.82000  Biso   1.000  C
  C6       1.0000 0.76820  0.57750  0.82000  Biso   1.000  C
  C7       1.0000 0.73180  0.42250  0.32000  Biso   1.000  C
  C8       1.0000 0.76820  0.92250  0.32000  Biso   1.000  C
  N1       1.0000 0.32940  0.84290  0.15850  Biso   1.000  N
  N2       1.0000 0.17060  0.34290  0.15850  Biso   1.000  N
  N3       1.0000 0.32940  0.65710  0.65850  Biso   1.000  N
  N4       1.0000 0.17060  0.15710  0.65850  Biso   1.000  N
  N5       1.0000 0.67060  0.15710  0.84150  Biso   1.000  N
  N6       1.0000 0.82940  0.65710  0.84150  Biso   1.000  N
  N7       1.0000 0.67060  0.34290  0.34150  Biso   1.000  N
  N8       1.0000 0.82940  0.84290  0.34150  Biso   1.000  N
  O1       1.0000 0.27960  0.15840  0.09160  Biso   1.000  O
  O2       1.0000 0.22040  0.65840  0.09160  Biso   1.000  O
  O3       1.0000 0.27960  0.34160  0.59160  Biso   1.000  O
  O4       1.0000 0.22040  0.84160  0.59160  Biso   1.000  O
  O5       1.0000 0.72040  0.84160  0.90840  Biso   1.000  O
  O6       1.0000 0.77960  0.34160  0.90840  Biso   1.000  O
  O7       1.0000 0.72040  0.65840  0.40840  Biso   1.000  O
  O8       1.0000 0.77960  0.15840  0.40840  Biso   1.000  O
  O9       1.0000 0.99200  0.32430  0.05310  Biso   1.000  O
  O10      1.0000 0.50800  0.82430  0.05310  Biso   1.000  O
  O11      1.0000 0.99200  0.17570  0.55310  Biso   1.000  O
  O12      1.0000 0.50800  0.67570  0.55310  Biso   1.000  O
  O13      1.0000 0.00800  0.67570  0.94690  Biso   1.000  O
  O14      1.0000 0.49200  0.17570  0.94690  Biso   1.000  O
  O15      1.0000 0.00800  0.82430  0.44690  Biso   1.000  O
  O16      1.0000 0.49200  0.32430  0.44690  Biso   1.000  O
  O17      1.0000 0.23280  0.47580  0.02290  Biso   1.000  O
  O18      1.0000 0.26720  0.97580  0.02290  Biso   1.000  O
  O19      1.0000 0.23280  0.02420  0.52290  Biso   1.000  O
  O20      1.0000 0.26720  0.52420  0.52290  Biso   1.000  O
  O21      1.0000 0.76720  0.52420  0.97710  Biso   1.000  O
  O22      1.0000 0.73280  0.02420  0.97710  Biso   1.000  O
  O23      1.0000 0.76720  0.97580  0.47710  Biso   1.000  O
  O24      1.0000 0.73280  0.47580  0.47710  Biso   1.000  O
  O25      1.0000 0.46830  0.30840  0.03710  Biso   1.000  O
  O26      1.0000 0.03170  0.80840  0.03710  Biso   1.000  O
  O27      1.0000 0.46830  0.19160  0.53710  Biso   1.000  O
  O28      1.0000 0.03170  0.69160  0.53710  Biso   1.000  O
  O29      1.0000 0.53170  0.69160  0.96290  Biso   1.000  O
  O30      1.0000 0.96830  0.19160  0.96290  Biso   1.000  O
  O31      1.0000 0.53170  0.80840  0.46290  Biso   1.000  O
  O32      1.0000 0.96830  0.30840  0.46290  Biso   1.000  O
  O33      1.0000 0.99890  0.05290  0.09400  Biso   1.000  O
  O34      1.0000 0.50110  0.55290  0.09400  Biso   1.000  O
  O35      1.0000 0.99890  0.44710  0.59400  Biso   1.000  O
  O36      1.0000 0.50110  0.94710  0.59400  Biso   1.000  O
  O37      1.0000 0.00110  0.94710  0.90600  Biso   1.000  O
  O38      1.0000 0.49890  0.44710  0.90600  Biso   1.000  O
  O39      1.0000 0.00110  0.55290  0.40600  Biso   1.000  O
  O40      1.0000 0.49890  0.05290  0.40600  Biso   1.000  O
  O41      1.0000 0.78030  0.95240  0.07870  Biso   1.000  O
  O42      1.0000 0.71970  0.45240  0.07870  Biso   1.000  O
  O43      1.0000 0.78030  0.54760  0.57870  Biso   1.000  O
  O44      1.0000 0.71970  0.04760  0.57870  Biso   1.000  O
  O45      1.0000 0.21970  0.04760  0.92130  Biso   1.000  O
  O46      1.0000 0.28030  0.54760  0.92130  Biso   1.000  O
  O47      1.0000 0.21970  0.45240  0.42130  Biso   1.000  O
  O48      1.0000 0.28030  0.95240  0.42130  Biso   1.000  O
  C9       1.0000 0.85730  0.03590  0.10100  Biso   1.000  C
  C10      1.0000 0.64270  0.53590  0.10100  Biso   1.000  C
  C11      1.0000 0.85730  0.46410  0.60100  Biso   1.000  C
  C12      1.0000 0.64270  0.96410  0.60100  Biso   1.000  C
  C13      1.0000 0.14270  0.96410  0.89900  Biso   1.000  C
  C14      1.0000 0.35730  0.46410  0.89900  Biso   1.000  C
  C15      1.0000 0.14270  0.53590  0.39900  Biso   1.000  C
  C16      1.0000 0.35730  0.03590  0.39900  Biso   1.000  C
  N9       1.0000 0.87290  0.21010  0.15520  Biso   1.000  N
  N10      1.0000 0.62710  0.71010  0.15520  Biso   1.000  N
  N11      1.0000 0.87290  0.28990  0.65520  Biso   1.000  N
  N12      1.0000 0.62710  0.78990  0.65520  Biso   1.000  N
  N13      1.0000 0.12710  0.78990  0.84480  Biso   1.000  N
  N14      1.0000 0.37290  0.28990  0.84480  Biso   1.000  N
  N15      1.0000 0.12710  0.71010  0.34480  Biso   1.000  N
  N16      1.0000 0.37290  0.21010  0.34480  Biso   1.000  N
  C17      1.0000 0.77790  0.12420  0.13690  Biso   1.000  C
  C18      1.0000 0.72210  0.62420  0.13690  Biso   1.000  C
  C19      1.0000 0.77790  0.37580  0.63690  Biso   1.000  C
  C20      1.0000 0.72210  0.87580  0.63690  Biso   1.000  C
  C21      1.0000 0.22210  0.87580  0.86310  Biso   1.000  C
  C22      1.0000 0.27790  0.37580  0.86310  Biso   1.000  C
  C23      1.0000 0.22210  0.62420  0.36310  Biso   1.000  C
  C24      1.0000 0.27790  0.12420  0.36310  Biso   1.000  C
  C25      1.0000 0.62280  0.12020  0.14700  Biso   1.000  C
  C26      1.0000 0.87720  0.62020  0.14700  Biso   1.000  C
  C27      1.0000 0.62280  0.37980  0.64700  Biso   1.000  C
  C28      1.0000 0.87720  0.87980  0.64700  Biso   1.000  C
  C29      1.0000 0.37720  0.87980  0.85300  Biso   1.000  C
  C30      1.0000 0.12280  0.37980  0.85300  Biso   1.000  C
  C31      1.0000 0.37720  0.62020  0.35300  Biso   1.000  C
  C32      1.0000 0.12280  0.12020  0.35300  Biso   1.000  C
  C33      1.0000 0.56380  0.20840  0.17920  Biso   1.000  C
  C34      1.0000 0.93620  0.70840  0.17920  Biso   1.000  C
  C35      1.0000 0.56380  0.29160  0.67920  Biso   1.000  C
  C36      1.0000 0.93620  0.79160  0.67920  Biso   1.000  C
  C37      1.0000 0.43620  0.79160  0.82080  Biso   1.000  C
  C38      1.0000 0.06380  0.29160  0.82080  Biso   1.000  C
  C39      1.0000 0.43620  0.70840  0.32080  Biso   1.000  C
  C40      1.0000 0.06380  0.20840  0.32080  Biso   1.000  C
  C41      1.0000 0.66070  0.29860  0.20020  Biso   1.000  C
  C42      1.0000 0.83930  0.79860  0.20020  Biso   1.000  C
  C43      1.0000 0.66070  0.20140  0.70020  Biso   1.000  C
  C44      1.0000 0.83930  0.70140  0.70020  Biso   1.000  C
  C45      1.0000 0.33930  0.70140  0.79980  Biso   1.000  C
  C46      1.0000 0.16070  0.20140  0.79980  Biso   1.000  C
  C47      1.0000 0.33930  0.79860  0.29980  Biso   1.000  C
  C48      1.0000 0.16070  0.29860  0.29980  Biso   1.000  C
  C49      1.0000 0.81590  0.29490  0.18730  Biso   1.000  C
  C50      1.0000 0.68410  0.79490  0.18730  Biso   1.000  C
  C51      1.0000 0.81590  0.20510  0.68730  Biso   1.000  C
  C52      1.0000 0.68410  0.70510  0.68730  Biso   1.000  C
  C53      1.0000 0.18410  0.70510  0.81270  Biso   1.000  C
  C54      1.0000 0.31590  0.20510  0.81270  Biso   1.000  C
  C55      1.0000 0.18410  0.79490  0.31270  Biso   1.000  C
  C56      1.0000 0.31590  0.29490  0.31270  Biso   1.000  C
  H1       1.0000 0.55000  0.05070  0.13040  Biso   1.000  H
  H2       1.0000 0.95000  0.55070  0.13040  Biso   1.000  H
  H3       1.0000 0.55000  0.44930  0.63040  Biso   1.000  H
  H4       1.0000 0.95000  0.94930  0.63040  Biso   1.000  H
  H5       1.0000 0.45000  0.94930  0.86960  Biso   1.000  H
  H6       1.0000 0.05000  0.44930  0.86960  Biso   1.000  H
  H7       1.0000 0.45000  0.55070  0.36960  Biso   1.000  H
  H8       1.0000 0.05000  0.05070  0.36960  Biso   1.000  H
  H9       1.0000 0.44320  0.20850  0.18790  Biso   1.000  H
  H10      1.0000 0.05680  0.70850  0.18790  Biso   1.000  H
  H11      1.0000 0.44320  0.29150  0.68790  Biso   1.000  H
  H12      1.0000 0.05680  0.79150  0.68790  Biso   1.000  H
  H13      1.0000 0.55680  0.79150  0.81210  Biso   1.000  H
  H14      1.0000 0.94320  0.29150  0.81210  Biso   1.000  H
  H15      1.0000 0.55680  0.70850  0.31210  Biso   1.000  H
  H16      1.0000 0.94320  0.20850  0.31210  Biso   1.000  H
  H17      1.0000 0.61720  0.36730  0.22580  Biso   1.000  H
  H18      1.0000 0.88280  0.86730  0.22580  Biso   1.000  H
  H19      1.0000 0.61720  0.13270  0.72580  Biso   1.000  H
  H20      1.0000 0.88280  0.63270  0.72580  Biso   1.000  H
  H21      1.0000 0.38280  0.63270  0.77420  Biso   1.000  H
  H22      1.0000 0.11720  0.13270  0.77420  Biso   1.000  H
  H23      1.0000 0.38280  0.86730  0.27420  Biso   1.000  H
  H24      1.0000 0.11720  0.36730  0.27420  Biso   1.000  H
  H25      1.0000 0.89270  0.36180  0.20370  Biso   1.000  H
  H26      1.0000 0.60730  0.86180  0.20370  Biso   1.000  H
  H27      1.0000 0.89270  0.13820  0.70370  Biso   1.000  H
  H28      1.0000 0.60730  0.63820  0.70370  Biso   1.000  H
  H29      1.0000 0.10730  0.63820  0.79630  Biso   1.000  H
  H30      1.0000 0.39270  0.13820  0.79630  Biso   1.000  H
  H31      1.0000 0.10730  0.86180  0.29630  Biso   1.000  H
  H32      1.0000 0.39270  0.36180  0.29630  Biso   1.000  H
  H33      1.0000 0.34200  0.22090  0.08320  Biso   1.000  H
  H34      1.0000 0.15800  0.72090  0.08320  Biso   1.000  H
  H35      1.0000 0.34200  0.27910  0.58320  Biso   1.000  H
  H36      1.0000 0.15800  0.77910  0.58320  Biso   1.000  H
  H37      1.0000 0.65800  0.77910  0.91680  Biso   1.000  H
  H38      1.0000 0.84200  0.27910  0.91680  Biso   1.000  H
  H39      1.0000 0.65800  0.72090  0.41680  Biso   1.000  H
  H40      1.0000 0.84200  0.22090  0.41680  Biso   1.000  H
  H41      1.0000 0.26800  0.08380  0.07730  Biso   1.000  H
  H42      1.0000 0.23200  0.58380  0.07730  Biso   1.000  H
  H43      1.0000 0.26800  0.41620  0.57730  Biso   1.000  H
  H44      1.0000 0.23200  0.91620  0.57730  Biso   1.000  H
  H45      1.0000 0.73200  0.91620  0.92270  Biso   1.000  H
  H46      1.0000 0.76800  0.41620  0.92270  Biso   1.000  H
  H47      1.0000 0.73200  0.58380  0.42270  Biso   1.000  H
  H48      1.0000 0.76800  0.08380  0.42270  Biso   1.000  H
  H49      1.0000 0.05700  0.38460  0.03790  Biso   1.000  H
  H50      1.0000 0.44300  0.88460  0.03790  Biso   1.000  H
  H51      1.0000 0.05700  0.11540  0.53790  Biso   1.000  H
  H52      1.0000 0.44300  0.61540  0.53790  Biso   1.000  H
  H53      1.0000 0.94300  0.61540  0.96210  Biso   1.000  H
  H54      1.0000 0.55700  0.11540  0.96210  Biso   1.000  H
  H55      1.0000 0.94300  0.88460  0.46210  Biso   1.000  H
  H56      1.0000 0.55700  0.38460  0.46210  Biso   1.000  H
  H57      1.0000 0.92120  0.36850  0.07190  Biso   1.000  H
  H58      1.0000 0.57880  0.86850  0.07190  Biso   1.000  H
  H59      1.0000 0.92120  0.13150  0.57190  Biso   1.000  H
  H60      1.0000 0.57880  0.63150  0.57190  Biso   1.000  H
  H61      1.0000 0.07880  0.63150  0.92810  Biso   1.000  H
  H62      1.0000 0.42120  0.13150  0.92810  Biso   1.000  H
  H63      1.0000 0.07880  0.86850  0.42810  Biso   1.000  H
  H64      1.0000 0.42120  0.36850  0.42810  Biso   1.000  H
  H65      1.0000 0.32640  0.43640  0.02630  Biso   1.000  H
  H66      1.0000 0.17360  0.93640  0.02630  Biso   1.000  H
  H67      1.0000 0.32640  0.06360  0.52630  Biso   1.000  H
  H68      1.0000 0.17360  0.56360  0.52630  Biso   1.000  H
  H69      1.0000 0.67360  0.56360  0.97370  Biso   1.000  H
  H70      1.0000 0.82640  0.06360  0.97370  Biso   1.000  H
  H71      1.0000 0.67360  0.93640  0.47370  Biso   1.000  H
  H72      1.0000 0.82640  0.43640  0.47370  Biso   1.000  H
  H73      1.0000 0.22900  0.49900  0.98890  Biso   1.000  H
  H74      1.0000 0.27100  0.99900  0.98890  Biso   1.000  H
  H75      1.0000 0.22900  0.00100  0.48890  Biso   1.000  H
  H76      1.0000 0.27100  0.50100  0.48890  Biso   1.000  H
  H77      1.0000 0.77100  0.50100  0.01110  Biso   1.000  H
  H78      1.0000 0.72900  0.00100  0.01110  Biso   1.000  H
  H79      1.0000 0.77100  0.99900  0.51110  Biso   1.000  H
  H80      1.0000 0.72900  0.49900  0.51110  Biso   1.000  H
  H81      1.0000 0.56930  0.33910  0.04410  Biso   1.000  H
  H82      1.0000 0.93070  0.83910  0.04410  Biso   1.000  H
  H83      1.0000 0.56930  0.16090  0.54410  Biso   1.000  H
  H84      1.0000 0.93070  0.66090  0.54410  Biso   1.000  H
  H85      1.0000 0.43070  0.66090  0.95590  Biso   1.000  H
  H86      1.0000 0.06930  0.16090  0.95590  Biso   1.000  H
  H87      1.0000 0.43070  0.83910  0.45590  Biso   1.000  H
  H88      1.0000 0.06930  0.33910  0.45590  Biso   1.000  H
  H89      1.0000 0.49200  0.25460  0.00930  Biso   1.000  H
  H90      1.0000 0.00800  0.75460  0.00930  Biso   1.000  H
  H91      1.0000 0.49200  0.24540  0.50930  Biso   1.000  H
  H92      1.0000 0.00800  0.74540  0.50930  Biso   1.000  H
  H93      1.0000 0.50800  0.74540  0.99070  Biso   1.000  H
  H94      1.0000 0.99200  0.24540  0.99070  Biso   1.000  H
  H95      1.0000 0.50800  0.75460  0.49070  Biso   1.000  H
  H96      1.0000 0.99200  0.25460  0.49070  Biso   1.000  H
