data_image0
_cell_length_a       15.4398
_cell_length_b       52.022
_cell_length_c       11.2107
_cell_angle_alpha    90
_cell_angle_beta     90
_cell_angle_gamma    90

_symmetry_space_group_name_H-M    "P 1"
_symmetry_int_tables_number       1

loop_
  _symmetry_equiv_pos_as_xyz
  'x, y, z'

loop_
  _atom_site_label
  _atom_site_occupancy
  _atom_site_fract_x
  _atom_site_fract_y
  _atom_site_fract_z
  _atom_site_thermal_displace_type
  _atom_site_B_iso_or_equiv
  _atom_site_type_symbol
  Cu1      1.0000 0.46836  0.89403  0.99556  Biso   1.000  Cu
  Cu2      1.0000 0.53164  0.10597  0.99556  Biso   1.000  Cu
  Cu3      1.0000 0.71836  0.35597  0.24556  Biso   1.000  Cu
  Cu4      1.0000 0.78164  0.14403  0.24556  Biso   1.000  Cu
  Cu5      1.0000 0.46836  0.39403  0.49556  Biso   1.000  Cu
  Cu6      1.0000 0.53164  0.60597  0.49556  Biso   1.000  Cu
  Cu7      1.0000 0.71836  0.85597  0.74556  Biso   1.000  Cu
  Cu8      1.0000 0.78164  0.64403  0.74556  Biso   1.000  Cu
  Cu9      1.0000 0.96836  0.89403  0.49556  Biso   1.000  Cu
  Cu10     1.0000 0.03164  0.10597  0.49556  Biso   1.000  Cu
  Cu11     1.0000 0.21836  0.35597  0.74556  Biso   1.000  Cu
  Cu12     1.0000 0.28164  0.14403  0.74556  Biso   1.000  Cu
  Cu13     1.0000 0.96836  0.39403  0.99556  Biso   1.000  Cu
  Cu14     1.0000 0.03164  0.60597  0.99556  Biso   1.000  Cu
  Cu15     1.0000 0.21836  0.85597  0.24556  Biso   1.000  Cu
  Cu16     1.0000 0.28164  0.64403  0.24556  Biso   1.000  Cu
  Cu17     1.0000 0.66985  0.88363  0.25077  Biso   1.000  Cu
  Cu18     1.0000 0.33015  0.11637  0.25077  Biso   1.000  Cu
  Cu19     1.0000 0.91985  0.36637  0.50077  Biso   1.000  Cu
  Cu20     1.0000 0.58015  0.13363  0.50077  Biso   1.000  Cu
  Cu21     1.0000 0.66985  0.38363  0.75077  Biso   1.000  Cu
  Cu22     1.0000 0.33015  0.61637  0.75077  Biso   1.000  Cu
  Cu23     1.0000 0.91985  0.86637  0.00077  Biso   1.000  Cu
  Cu24     1.0000 0.58015  0.63363  0.00077  Biso   1.000  Cu
  Cu25     1.0000 0.16985  0.88363  0.75077  Biso   1.000  Cu
  Cu26     1.0000 0.83015  0.11637  0.75077  Biso   1.000  Cu
  Cu27     1.0000 0.41985  0.36637  0.00077  Biso   1.000  Cu
  Cu28     1.0000 0.08015  0.13363  0.00077  Biso   1.000  Cu
  Cu29     1.0000 0.16985  0.38363  0.25077  Biso   1.000  Cu
  Cu30     1.0000 0.83015  0.61637  0.25077  Biso   1.000  Cu
  Cu31     1.0000 0.41985  0.86637  0.50077  Biso   1.000  Cu
  Cu32     1.0000 0.08015  0.63363  0.50077  Biso   1.000  Cu
  P1       1.0000 0.49217  0.86529  0.76420  Biso   1.000  P
  P2       1.0000 0.50783  0.13471  0.76420  Biso   1.000  P
  P3       1.0000 0.74217  0.38471  0.01420  Biso   1.000  P
  P4       1.0000 0.75783  0.11529  0.01420  Biso   1.000  P
  P5       1.0000 0.49217  0.36529  0.26420  Biso   1.000  P
  P6       1.0000 0.50783  0.63471  0.26420  Biso   1.000  P
  P7       1.0000 0.74217  0.88471  0.51420  Biso   1.000  P
  P8       1.0000 0.75783  0.61529  0.51420  Biso   1.000  P
  P9       1.0000 0.99217  0.86529  0.26420  Biso   1.000  P
  P10      1.0000 0.00783  0.13471  0.26420  Biso   1.000  P
  P11      1.0000 0.24217  0.38471  0.51420  Biso   1.000  P
  P12      1.0000 0.25783  0.11529  0.51420  Biso   1.000  P
  P13      1.0000 0.99217  0.36529  0.76420  Biso   1.000  P
  P14      1.0000 0.00783  0.63471  0.76420  Biso   1.000  P
  P15      1.0000 0.24217  0.88471  0.01420  Biso   1.000  P
  P16      1.0000 0.25783  0.61529  0.01420  Biso   1.000  P
  P17      1.0000 0.72055  0.88265  0.97890  Biso   1.000  P
  P18      1.0000 0.27945  0.11735  0.97890  Biso   1.000  P
  P19      1.0000 0.97055  0.36735  0.22890  Biso   1.000  P
  P20      1.0000 0.52945  0.13265  0.22890  Biso   1.000  P
  P21      1.0000 0.72055  0.38265  0.47890  Biso   1.000  P
  P22      1.0000 0.27945  0.61735  0.47890  Biso   1.000  P
  P23      1.0000 0.97055  0.86735  0.72890  Biso   1.000  P
  P24      1.0000 0.52945  0.63265  0.72890  Biso   1.000  P
  P25      1.0000 0.22055  0.88265  0.47890  Biso   1.000  P
  P26      1.0000 0.77945  0.11735  0.47890  Biso   1.000  P
  P27      1.0000 0.47055  0.36735  0.72890  Biso   1.000  P
  P28      1.0000 0.02945  0.13265  0.72890  Biso   1.000  P
  P29      1.0000 0.22055  0.38265  0.97890  Biso   1.000  P
  P30      1.0000 0.77945  0.61735  0.97890  Biso   1.000  P
  P31      1.0000 0.47055  0.86735  0.22890  Biso   1.000  P
  P32      1.0000 0.02945  0.63265  0.22890  Biso   1.000  P
  N1       1.0000 0.49480  0.85591  0.00120  Biso   1.000  N
  N2       1.0000 0.50520  0.14409  0.00120  Biso   1.000  N
  N3       1.0000 0.74480  0.39409  0.25120  Biso   1.000  N
  N4       1.0000 0.75520  0.10591  0.25120  Biso   1.000  N
  N5       1.0000 0.49480  0.35591  0.50120  Biso   1.000  N
  N6       1.0000 0.50520  0.64409  0.50120  Biso   1.000  N
  N7       1.0000 0.74480  0.89409  0.75120  Biso   1.000  N
  N8       1.0000 0.75520  0.60591  0.75120  Biso   1.000  N
  N9       1.0000 0.99480  0.85591  0.50120  Biso   1.000  N
  N10      1.0000 0.00520  0.14409  0.50120  Biso   1.000  N
  N11      1.0000 0.24480  0.39409  0.75120  Biso   1.000  N
  N12      1.0000 0.25520  0.10591  0.75120  Biso   1.000  N
  N13      1.0000 0.99480  0.35591  0.00120  Biso   1.000  N
  N14      1.0000 0.00520  0.64409  0.00120  Biso   1.000  N
  N15      1.0000 0.24480  0.89409  0.25120  Biso   1.000  N
  N16      1.0000 0.25520  0.60591  0.25120  Biso   1.000  N
  H1       1.0000 0.55330  0.85420  0.00840  Biso   1.000  H
  H2       1.0000 0.44670  0.14580  0.00840  Biso   1.000  H
  H3       1.0000 0.80330  0.39580  0.25840  Biso   1.000  H
  H4       1.0000 0.69670  0.10420  0.25840  Biso   1.000  H
  H5       1.0000 0.55330  0.35420  0.50840  Biso   1.000  H
  H6       1.0000 0.44670  0.64580  0.50840  Biso   1.000  H
  H7       1.0000 0.80330  0.89580  0.75840  Biso   1.000  H
  H8       1.0000 0.69670  0.60420  0.75840  Biso   1.000  H
  H9       1.0000 0.05330  0.85420  0.50840  Biso   1.000  H
  H10      1.0000 0.94670  0.14580  0.50840  Biso   1.000  H
  H11      1.0000 0.30330  0.39580  0.75840  Biso   1.000  H
  H12      1.0000 0.19670  0.10420  0.75840  Biso   1.000  H
  H13      1.0000 0.05330  0.35420  0.00840  Biso   1.000  H
  H14      1.0000 0.94670  0.64580  0.00840  Biso   1.000  H
  H15      1.0000 0.30330  0.89580  0.25840  Biso   1.000  H
  H16      1.0000 0.19670  0.60420  0.25840  Biso   1.000  H
  N17      1.0000 0.72700  0.81766  0.74460  Biso   1.000  N
  N18      1.0000 0.27300  0.18234  0.74460  Biso   1.000  N
  N19      1.0000 0.97700  0.43234  0.99460  Biso   1.000  N
  N20      1.0000 0.52300  0.06766  0.99460  Biso   1.000  N
  N21      1.0000 0.72700  0.31766  0.24460  Biso   1.000  N
  N22      1.0000 0.27300  0.68234  0.24460  Biso   1.000  N
  N23      1.0000 0.97700  0.93234  0.49460  Biso   1.000  N
  N24      1.0000 0.52300  0.56766  0.49460  Biso   1.000  N
  N25      1.0000 0.22700  0.81766  0.24460  Biso   1.000  N
  N26      1.0000 0.77300  0.18234  0.24460  Biso   1.000  N
  N27      1.0000 0.47700  0.43234  0.49460  Biso   1.000  N
  N28      1.0000 0.02300  0.06766  0.49460  Biso   1.000  N
  N29      1.0000 0.22700  0.31766  0.74460  Biso   1.000  N
  N30      1.0000 0.77300  0.68234  0.74460  Biso   1.000  N
  N31      1.0000 0.47700  0.93234  0.99460  Biso   1.000  N
  N32      1.0000 0.02300  0.56766  0.99460  Biso   1.000  N
  C1       1.0000 0.46840  0.84330  0.88570  Biso   1.000  C
  C2       1.0000 0.53160  0.15670  0.88570  Biso   1.000  C
  C3       1.0000 0.71840  0.40670  0.13570  Biso   1.000  C
  C4       1.0000 0.78160  0.09330  0.13570  Biso   1.000  C
  C5       1.0000 0.46840  0.34330  0.38570  Biso   1.000  C
  C6       1.0000 0.53160  0.65670  0.38570  Biso   1.000  C
  C7       1.0000 0.71840  0.90670  0.63570  Biso   1.000  C
  C8       1.0000 0.78160  0.59330  0.63570  Biso   1.000  C
  C9       1.0000 0.96840  0.84330  0.38570  Biso   1.000  C
  C10      1.0000 0.03160  0.15670  0.38570  Biso   1.000  C
  C11      1.0000 0.21840  0.40670  0.63570  Biso   1.000  C
  C12      1.0000 0.28160  0.09330  0.63570  Biso   1.000  C
  C13      1.0000 0.96840  0.34330  0.88570  Biso   1.000  C
  C14      1.0000 0.03160  0.65670  0.88570  Biso   1.000  C
  C15      1.0000 0.21840  0.90670  0.13570  Biso   1.000  C
  C16      1.0000 0.28160  0.59330  0.13570  Biso   1.000  C
  H17      1.0000 0.65700  0.91060  0.63710  Biso   1.000  H
  H18      1.0000 0.34300  0.08940  0.63710  Biso   1.000  H
  H19      1.0000 0.90700  0.33940  0.88710  Biso   1.000  H
  H20      1.0000 0.59300  0.16060  0.88710  Biso   1.000  H
  H21      1.0000 0.65700  0.41060  0.13710  Biso   1.000  H
  H22      1.0000 0.34300  0.58940  0.13710  Biso   1.000  H
  H23      1.0000 0.90700  0.83940  0.38710  Biso   1.000  H
  H24      1.0000 0.59300  0.66060  0.38710  Biso   1.000  H
  H25      1.0000 0.15700  0.91060  0.13710  Biso   1.000  H
  H26      1.0000 0.84300  0.08940  0.13710  Biso   1.000  H
  H27      1.0000 0.40700  0.33940  0.38710  Biso   1.000  H
  H28      1.0000 0.09300  0.16060  0.38710  Biso   1.000  H
  H29      1.0000 0.15700  0.41060  0.63710  Biso   1.000  H
  H30      1.0000 0.84300  0.58940  0.63710  Biso   1.000  H
  H31      1.0000 0.40700  0.83940  0.88710  Biso   1.000  H
  H32      1.0000 0.09300  0.66060  0.88710  Biso   1.000  H
  H33      1.0000 0.75010  0.92260  0.62490  Biso   1.000  H
  H34      1.0000 0.24990  0.07740  0.62490  Biso   1.000  H
  H35      1.0000 0.00010  0.32740  0.87490  Biso   1.000  H
  H36      1.0000 0.49990  0.17260  0.87490  Biso   1.000  H
  H37      1.0000 0.75010  0.42260  0.12490  Biso   1.000  H
  H38      1.0000 0.24990  0.57740  0.12490  Biso   1.000  H
  H39      1.0000 0.00010  0.82740  0.37490  Biso   1.000  H
  H40      1.0000 0.49990  0.67260  0.37490  Biso   1.000  H
  H41      1.0000 0.25010  0.92260  0.12490  Biso   1.000  H
  H42      1.0000 0.74990  0.07740  0.12490  Biso   1.000  H
  H43      1.0000 0.50010  0.32740  0.37490  Biso   1.000  H
  H44      1.0000 0.99990  0.17260  0.37490  Biso   1.000  H
  H45      1.0000 0.25010  0.42260  0.62490  Biso   1.000  H
  H46      1.0000 0.74990  0.57740  0.62490  Biso   1.000  H
  H47      1.0000 0.50010  0.82740  0.87490  Biso   1.000  H
  H48      1.0000 0.99990  0.67260  0.87490  Biso   1.000  H
  C17      1.0000 0.70520  0.90530  0.85840  Biso   1.000  C
  C18      1.0000 0.29480  0.09470  0.85840  Biso   1.000  C
  C19      1.0000 0.95520  0.34470  0.10840  Biso   1.000  C
  C20      1.0000 0.54480  0.15530  0.10840  Biso   1.000  C
  C21      1.0000 0.70520  0.40530  0.35840  Biso   1.000  C
  C22      1.0000 0.29480  0.59470  0.35840  Biso   1.000  C
  C23      1.0000 0.95520  0.84470  0.60840  Biso   1.000  C
  C24      1.0000 0.54480  0.65530  0.60840  Biso   1.000  C
  C25      1.0000 0.20520  0.90530  0.35840  Biso   1.000  C
  C26      1.0000 0.79480  0.09470  0.35840  Biso   1.000  C
  C27      1.0000 0.45520  0.34470  0.60840  Biso   1.000  C
  C28      1.0000 0.04480  0.15530  0.60840  Biso   1.000  C
  C29      1.0000 0.20520  0.40530  0.85840  Biso   1.000  C
  C30      1.0000 0.79480  0.59470  0.85840  Biso   1.000  C
  C31      1.0000 0.45520  0.84470  0.10840  Biso   1.000  C
  C32      1.0000 0.04480  0.65530  0.10840  Biso   1.000  C
  H49      1.0000 0.73270  0.92160  0.87750  Biso   1.000  H
  H50      1.0000 0.26730  0.07840  0.87750  Biso   1.000  H
  H51      1.0000 0.98270  0.32840  0.12750  Biso   1.000  H
  H52      1.0000 0.51730  0.17160  0.12750  Biso   1.000  H
  H53      1.0000 0.73270  0.42160  0.37750  Biso   1.000  H
  H54      1.0000 0.26730  0.57840  0.37750  Biso   1.000  H
  H55      1.0000 0.98270  0.82840  0.62750  Biso   1.000  H
  H56      1.0000 0.51730  0.67160  0.62750  Biso   1.000  H
  H57      1.0000 0.23270  0.92160  0.37750  Biso   1.000  H
  H58      1.0000 0.76730  0.07840  0.37750  Biso   1.000  H
  H59      1.0000 0.48270  0.32840  0.62750  Biso   1.000  H
  H60      1.0000 0.01730  0.17160  0.62750  Biso   1.000  H
  H61      1.0000 0.23270  0.42160  0.87750  Biso   1.000  H
  H62      1.0000 0.76730  0.57840  0.87750  Biso   1.000  H
  H63      1.0000 0.48270  0.82840  0.12750  Biso   1.000  H
  H64      1.0000 0.01730  0.67160  0.12750  Biso   1.000  H
  H65      1.0000 0.64400  0.90840  0.84530  Biso   1.000  H
  H66      1.0000 0.35600  0.09160  0.84530  Biso   1.000  H
  H67      1.0000 0.89400  0.34160  0.09530  Biso   1.000  H
  H68      1.0000 0.60600  0.15840  0.09530  Biso   1.000  H
  H69      1.0000 0.64400  0.40840  0.34530  Biso   1.000  H
  H70      1.0000 0.35600  0.59160  0.34530  Biso   1.000  H
  H71      1.0000 0.89400  0.84160  0.59530  Biso   1.000  H
  H72      1.0000 0.60600  0.65840  0.59530  Biso   1.000  H
  H73      1.0000 0.14400  0.90840  0.34530  Biso   1.000  H
  H74      1.0000 0.85600  0.09160  0.34530  Biso   1.000  H
  H75      1.0000 0.39400  0.34160  0.59530  Biso   1.000  H
  H76      1.0000 0.10600  0.15840  0.59530  Biso   1.000  H
  H77      1.0000 0.14400  0.40840  0.84530  Biso   1.000  H
  H78      1.0000 0.85600  0.59160  0.84530  Biso   1.000  H
  H79      1.0000 0.39400  0.84160  0.09530  Biso   1.000  H
  H80      1.0000 0.10600  0.65840  0.09530  Biso   1.000  H
  C33      1.0000 0.66220  0.80240  0.71290  Biso   1.000  C
  C34      1.0000 0.33780  0.19760  0.71290  Biso   1.000  C
  C35      1.0000 0.91220  0.44760  0.96290  Biso   1.000  C
  C36      1.0000 0.58780  0.05240  0.96290  Biso   1.000  C
  C37      1.0000 0.66220  0.30240  0.21290  Biso   1.000  C
  C38      1.0000 0.33780  0.69760  0.21290  Biso   1.000  C
  C39      1.0000 0.91220  0.94760  0.46290  Biso   1.000  C
  C40      1.0000 0.58780  0.55240  0.46290  Biso   1.000  C
  C41      1.0000 0.16220  0.80240  0.21290  Biso   1.000  C
  C42      1.0000 0.83780  0.19760  0.21290  Biso   1.000  C
  C43      1.0000 0.41220  0.44760  0.46290  Biso   1.000  C
  C44      1.0000 0.08780  0.05240  0.46290  Biso   1.000  C
  C45      1.0000 0.16220  0.30240  0.71290  Biso   1.000  C
  C46      1.0000 0.83780  0.69760  0.71290  Biso   1.000  C
  C47      1.0000 0.41220  0.94760  0.96290  Biso   1.000  C
  C48      1.0000 0.08780  0.55240  0.96290  Biso   1.000  C
  H81      1.0000 0.60940  0.80970  0.69200  Biso   1.000  H
  H82      1.0000 0.39060  0.19030  0.69200  Biso   1.000  H
  H83      1.0000 0.85940  0.44030  0.94200  Biso   1.000  H
  H84      1.0000 0.64060  0.05970  0.94200  Biso   1.000  H
  H85      1.0000 0.60940  0.30970  0.19200  Biso   1.000  H
  H86      1.0000 0.39060  0.69030  0.19200  Biso   1.000  H
  H87      1.0000 0.85940  0.94030  0.44200  Biso   1.000  H
  H88      1.0000 0.64060  0.55970  0.44200  Biso   1.000  H
  H89      1.0000 0.10940  0.80970  0.19200  Biso   1.000  H
  H90      1.0000 0.89060  0.19030  0.19200  Biso   1.000  H
  H91      1.0000 0.35940  0.44030  0.44200  Biso   1.000  H
  H92      1.0000 0.14060  0.05970  0.44200  Biso   1.000  H
  H93      1.0000 0.10940  0.30970  0.69200  Biso   1.000  H
  H94      1.0000 0.89060  0.69030  0.69200  Biso   1.000  H
  H95      1.0000 0.35940  0.94030  0.94200  Biso   1.000  H
  H96      1.0000 0.14060  0.55970  0.94200  Biso   1.000  H
  C49      1.0000 0.67030  0.77590  0.71000  Biso   1.000  C
  C50      1.0000 0.32970  0.22410  0.71000  Biso   1.000  C
  C51      1.0000 0.92030  0.47410  0.96000  Biso   1.000  C
  C52      1.0000 0.57970  0.02590  0.96000  Biso   1.000  C
  C53      1.0000 0.67030  0.27590  0.21000  Biso   1.000  C
  C54      1.0000 0.32970  0.72410  0.21000  Biso   1.000  C
  C55      1.0000 0.92030  0.97410  0.46000  Biso   1.000  C
  C56      1.0000 0.57970  0.52590  0.46000  Biso   1.000  C
  C57      1.0000 0.17030  0.77590  0.21000  Biso   1.000  C
  C58      1.0000 0.82970  0.22410  0.21000  Biso   1.000  C
  C59      1.0000 0.42030  0.47410  0.46000  Biso   1.000  C
  C60      1.0000 0.07970  0.02590  0.46000  Biso   1.000  C
  C61      1.0000 0.17030  0.27590  0.71000  Biso   1.000  C
  C62      1.0000 0.82970  0.72410  0.71000  Biso   1.000  C
  C63      1.0000 0.42030  0.97410  0.96000  Biso   1.000  C
  C64      1.0000 0.07970  0.52590  0.96000  Biso   1.000  C
  H97      1.0000 0.62490  0.76580  0.68210  Biso   1.000  H
  H98      1.0000 0.37510  0.23420  0.68210  Biso   1.000  H
  H99      1.0000 0.87490  0.48420  0.93210  Biso   1.000  H
  H100     1.0000 0.62510  0.01580  0.93210  Biso   1.000  H
  H101     1.0000 0.62490  0.26580  0.18210  Biso   1.000  H
  H102     1.0000 0.37510  0.73420  0.18210  Biso   1.000  H
  H103     1.0000 0.87490  0.98420  0.43210  Biso   1.000  H
  H104     1.0000 0.62510  0.51580  0.43210  Biso   1.000  H
  H105     1.0000 0.12490  0.76580  0.18210  Biso   1.000  H
  H106     1.0000 0.87510  0.23420  0.18210  Biso   1.000  H
  H107     1.0000 0.37490  0.48420  0.43210  Biso   1.000  H
  H108     1.0000 0.12510  0.01580  0.43210  Biso   1.000  H
  H109     1.0000 0.12490  0.26580  0.68210  Biso   1.000  H
  H110     1.0000 0.87510  0.73420  0.68210  Biso   1.000  H
  H111     1.0000 0.37490  0.98420  0.93210  Biso   1.000  H
  H112     1.0000 0.12510  0.51580  0.93210  Biso   1.000  H
  C65      1.0000 0.74530  0.76456  0.74820  Biso   1.000  C
  C66      1.0000 0.25470  0.23544  0.74820  Biso   1.000  C
  C67      1.0000 0.99530  0.48544  0.99820  Biso   1.000  C
  C68      1.0000 0.50470  0.01456  0.99820  Biso   1.000  C
  C69      1.0000 0.74530  0.26456  0.24820  Biso   1.000  C
  C70      1.0000 0.25470  0.73544  0.24820  Biso   1.000  C
  C71      1.0000 0.99530  0.98544  0.49820  Biso   1.000  C
  C72      1.0000 0.50470  0.51456  0.49820  Biso   1.000  C
  C73      1.0000 0.24530  0.76456  0.24820  Biso   1.000  C
  C74      1.0000 0.75470  0.23544  0.24820  Biso   1.000  C
  C75      1.0000 0.49530  0.48544  0.49820  Biso   1.000  C
  C76      1.0000 0.00470  0.01456  0.49820  Biso   1.000  C
  C77      1.0000 0.24530  0.26456  0.74820  Biso   1.000  C
  C78      1.0000 0.75470  0.73544  0.74820  Biso   1.000  C
  C79      1.0000 0.49530  0.98544  0.99820  Biso   1.000  C
  C80      1.0000 0.00470  0.51456  0.99820  Biso   1.000  C
  C81      1.0000 0.68880  0.71970  0.78400  Biso   1.000  C
  C82      1.0000 0.31120  0.28030  0.78400  Biso   1.000  C
  C83      1.0000 0.93880  0.53030  0.03400  Biso   1.000  C
  C84      1.0000 0.56120  0.96970  0.03400  Biso   1.000  C
  C85      1.0000 0.68880  0.21970  0.28400  Biso   1.000  C
  C86      1.0000 0.31120  0.78030  0.28400  Biso   1.000  C
  C87      1.0000 0.93880  0.03030  0.53400  Biso   1.000  C
  C88      1.0000 0.56120  0.46970  0.53400  Biso   1.000  C
  C89      1.0000 0.18880  0.71970  0.28400  Biso   1.000  C
  C90      1.0000 0.81120  0.28030  0.28400  Biso   1.000  C
  C91      1.0000 0.43880  0.53030  0.53400  Biso   1.000  C
  C92      1.0000 0.06120  0.96970  0.53400  Biso   1.000  C
  C93      1.0000 0.18880  0.21970  0.78400  Biso   1.000  C
  C94      1.0000 0.81120  0.78030  0.78400  Biso   1.000  C
  C95      1.0000 0.43880  0.03030  0.03400  Biso   1.000  C
  C96      1.0000 0.06120  0.46970  0.03400  Biso   1.000  C
  H113     1.0000 0.63690  0.72680  0.81020  Biso   1.000  H
  H114     1.0000 0.36310  0.27320  0.81020  Biso   1.000  H
  H115     1.0000 0.88690  0.52320  0.06020  Biso   1.000  H
  H116     1.0000 0.61310  0.97680  0.06020  Biso   1.000  H
  H117     1.0000 0.63690  0.22680  0.31020  Biso   1.000  H
  H118     1.0000 0.36310  0.77320  0.31020  Biso   1.000  H
  H119     1.0000 0.88690  0.02320  0.56020  Biso   1.000  H
  H120     1.0000 0.61310  0.47680  0.56020  Biso   1.000  H
  H121     1.0000 0.13690  0.72680  0.31020  Biso   1.000  H
  H122     1.0000 0.86310  0.27320  0.31020  Biso   1.000  H
  H123     1.0000 0.38690  0.52320  0.56020  Biso   1.000  H
  H124     1.0000 0.11310  0.97680  0.56020  Biso   1.000  H
  H125     1.0000 0.13690  0.22680  0.81020  Biso   1.000  H
  H126     1.0000 0.86310  0.77320  0.81020  Biso   1.000  H
  H127     1.0000 0.38690  0.02320  0.06020  Biso   1.000  H
  H128     1.0000 0.11310  0.47680  0.06020  Biso   1.000  H
  C97      1.0000 0.69850  0.69360  0.78140  Biso   1.000  C
  C98      1.0000 0.30150  0.30640  0.78140  Biso   1.000  C
  C99      1.0000 0.94850  0.55640  0.03140  Biso   1.000  C
  C100     1.0000 0.55150  0.94360  0.03140  Biso   1.000  C
  C101     1.0000 0.69850  0.19360  0.28140  Biso   1.000  C
  C102     1.0000 0.30150  0.80640  0.28140  Biso   1.000  C
  C103     1.0000 0.94850  0.05640  0.53140  Biso   1.000  C
  C104     1.0000 0.55150  0.44360  0.53140  Biso   1.000  C
  C105     1.0000 0.19850  0.69360  0.28140  Biso   1.000  C
  C106     1.0000 0.80150  0.30640  0.28140  Biso   1.000  C
  C107     1.0000 0.44850  0.55640  0.53140  Biso   1.000  C
  C108     1.0000 0.05150  0.94360  0.53140  Biso   1.000  C
  C109     1.0000 0.19850  0.19360  0.78140  Biso   1.000  C
  C110     1.0000 0.80150  0.80640  0.78140  Biso   1.000  C
  C111     1.0000 0.44850  0.05640  0.03140  Biso   1.000  C
  C112     1.0000 0.05150  0.44360  0.03140  Biso   1.000  C
  H129     1.0000 0.65270  0.68330  0.80570  Biso   1.000  H
  H130     1.0000 0.34730  0.31670  0.80570  Biso   1.000  H
  H131     1.0000 0.90270  0.56670  0.05570  Biso   1.000  H
  H132     1.0000 0.59730  0.93330  0.05570  Biso   1.000  H
  H133     1.0000 0.65270  0.18330  0.30570  Biso   1.000  H
  H134     1.0000 0.34730  0.81670  0.30570  Biso   1.000  H
  H135     1.0000 0.90270  0.06670  0.55570  Biso   1.000  H
  H136     1.0000 0.59730  0.43330  0.55570  Biso   1.000  H
  H137     1.0000 0.15270  0.68330  0.30570  Biso   1.000  H
  H138     1.0000 0.84730  0.31670  0.30570  Biso   1.000  H
  H139     1.0000 0.40270  0.56670  0.55570  Biso   1.000  H
  H140     1.0000 0.09730  0.93330  0.55570  Biso   1.000  H
  H141     1.0000 0.15270  0.18330  0.80570  Biso   1.000  H
  H142     1.0000 0.84730  0.81670  0.80570  Biso   1.000  H
  H143     1.0000 0.40270  0.06670  0.05570  Biso   1.000  H
  H144     1.0000 0.09730  0.43330  0.05570  Biso   1.000  H
  O1       1.0000 0.57760  0.85869  0.70780  Biso   1.000  O
  O2       1.0000 0.42240  0.14131  0.70780  Biso   1.000  O
  O3       1.0000 0.82760  0.39131  0.95780  Biso   1.000  O
  O4       1.0000 0.67240  0.10869  0.95780  Biso   1.000  O
  O5       1.0000 0.57760  0.35869  0.20780  Biso   1.000  O
  O6       1.0000 0.42240  0.64131  0.20780  Biso   1.000  O
  O7       1.0000 0.82760  0.89131  0.45780  Biso   1.000  O
  O8       1.0000 0.67240  0.60869  0.45780  Biso   1.000  O
  O9       1.0000 0.07760  0.85869  0.20780  Biso   1.000  O
  O10      1.0000 0.92240  0.14131  0.20780  Biso   1.000  O
  O11      1.0000 0.32760  0.39131  0.45780  Biso   1.000  O
  O12      1.0000 0.17240  0.10869  0.45780  Biso   1.000  O
  O13      1.0000 0.07760  0.35869  0.70780  Biso   1.000  O
  O14      1.0000 0.92240  0.64131  0.70780  Biso   1.000  O
  O15      1.0000 0.32760  0.89131  0.95780  Biso   1.000  O
  O16      1.0000 0.17240  0.60869  0.95780  Biso   1.000  O
  O17      1.0000 0.74110  0.85815  0.57390  Biso   1.000  O
  O18      1.0000 0.25890  0.14185  0.57390  Biso   1.000  O
  O19      1.0000 0.99110  0.39185  0.82390  Biso   1.000  O
  O20      1.0000 0.50890  0.10815  0.82390  Biso   1.000  O
  O21      1.0000 0.74110  0.35815  0.07390  Biso   1.000  O
  O22      1.0000 0.25890  0.64185  0.07390  Biso   1.000  O
  O23      1.0000 0.99110  0.89185  0.32390  Biso   1.000  O
  O24      1.0000 0.50890  0.60815  0.32390  Biso   1.000  O
  O25      1.0000 0.24110  0.85815  0.07390  Biso   1.000  O
  O26      1.0000 0.75890  0.14185  0.07390  Biso   1.000  O
  O27      1.0000 0.49110  0.39185  0.32390  Biso   1.000  O
  O28      1.0000 0.00890  0.10815  0.32390  Biso   1.000  O
  O29      1.0000 0.24110  0.35815  0.57390  Biso   1.000  O
  O30      1.0000 0.75890  0.64185  0.57390  Biso   1.000  O
  O31      1.0000 0.49110  0.89185  0.82390  Biso   1.000  O
  O32      1.0000 0.00890  0.60815  0.82390  Biso   1.000  O
  O33      1.0000 0.66840  0.88823  0.42500  Biso   1.000  O
  O34      1.0000 0.33160  0.11177  0.42500  Biso   1.000  O
  O35      1.0000 0.91840  0.36177  0.67500  Biso   1.000  O
  O36      1.0000 0.58160  0.13823  0.67500  Biso   1.000  O
  O37      1.0000 0.66840  0.38823  0.92500  Biso   1.000  O
  O38      1.0000 0.33160  0.61177  0.92500  Biso   1.000  O
  O39      1.0000 0.91840  0.86177  0.17500  Biso   1.000  O
  O40      1.0000 0.58160  0.63823  0.17500  Biso   1.000  O
  O41      1.0000 0.16840  0.88823  0.92500  Biso   1.000  O
  O42      1.0000 0.83160  0.11177  0.92500  Biso   1.000  O
  O43      1.0000 0.41840  0.36177  0.17500  Biso   1.000  O
  O44      1.0000 0.08160  0.13823  0.17500  Biso   1.000  O
  O45      1.0000 0.16840  0.38823  0.42500  Biso   1.000  O
  O46      1.0000 0.83160  0.61177  0.42500  Biso   1.000  O
  O47      1.0000 0.41840  0.86177  0.67500  Biso   1.000  O
  O48      1.0000 0.08160  0.63823  0.67500  Biso   1.000  O
  O49      1.0000 0.81430  0.88539  0.02220  Biso   1.000  O
  O50      1.0000 0.18570  0.11461  0.02220  Biso   1.000  O
  O51      1.0000 0.06430  0.36461  0.27220  Biso   1.000  O
  O52      1.0000 0.43570  0.13539  0.27220  Biso   1.000  O
  O53      1.0000 0.81430  0.38539  0.52220  Biso   1.000  O
  O54      1.0000 0.18570  0.61461  0.52220  Biso   1.000  O
  O55      1.0000 0.06430  0.86461  0.77220  Biso   1.000  O
  O56      1.0000 0.43570  0.63539  0.77220  Biso   1.000  O
  O57      1.0000 0.31430  0.88539  0.52220  Biso   1.000  O
  O58      1.0000 0.68570  0.11461  0.52220  Biso   1.000  O
  O59      1.0000 0.56430  0.36461  0.77220  Biso   1.000  O
  O60      1.0000 0.93570  0.13539  0.77220  Biso   1.000  O
  O61      1.0000 0.31430  0.38539  0.02220  Biso   1.000  O
  O62      1.0000 0.68570  0.61461  0.02220  Biso   1.000  O
  O63      1.0000 0.56430  0.86461  0.27220  Biso   1.000  O
  O64      1.0000 0.93570  0.63539  0.27220  Biso   1.000  O
  O65      1.0000 0.65590  0.88837  0.07850  Biso   1.000  O
  O66      1.0000 0.34410  0.11163  0.07850  Biso   1.000  O
  O67      1.0000 0.90590  0.36163  0.32850  Biso   1.000  O
  O68      1.0000 0.59410  0.13837  0.32850  Biso   1.000  O
  O69      1.0000 0.65590  0.38837  0.57850  Biso   1.000  O
  O70      1.0000 0.34410  0.61163  0.57850  Biso   1.000  O
  O71      1.0000 0.90590  0.86163  0.82850  Biso   1.000  O
  O72      1.0000 0.59410  0.63837  0.82850  Biso   1.000  O
  O73      1.0000 0.15590  0.88837  0.57850  Biso   1.000  O
  O74      1.0000 0.84410  0.11163  0.57850  Biso   1.000  O
  O75      1.0000 0.40590  0.36163  0.82850  Biso   1.000  O
  O76      1.0000 0.09410  0.13837  0.82850  Biso   1.000  O
  O77      1.0000 0.15590  0.38837  0.07850  Biso   1.000  O
  O78      1.0000 0.84410  0.61163  0.07850  Biso   1.000  O
  O79      1.0000 0.40590  0.86163  0.32850  Biso   1.000  O
  O80      1.0000 0.09410  0.63837  0.32850  Biso   1.000  O
  O81      1.0000 0.70370  0.85661  0.92110  Biso   1.000  O
  O82      1.0000 0.29630  0.14339  0.92110  Biso   1.000  O
  O83      1.0000 0.95370  0.39339  0.17110  Biso   1.000  O
  O84      1.0000 0.54630  0.10661  0.17110  Biso   1.000  O
  O85      1.0000 0.70370  0.35661  0.42110  Biso   1.000  O
  O86      1.0000 0.29630  0.64339  0.42110  Biso   1.000  O
  O87      1.0000 0.95370  0.89339  0.67110  Biso   1.000  O
  O88      1.0000 0.54630  0.60661  0.67110  Biso   1.000  O
  O89      1.0000 0.20370  0.85661  0.42110  Biso   1.000  O
  O90      1.0000 0.79630  0.14339  0.42110  Biso   1.000  O
  O91      1.0000 0.45370  0.39339  0.67110  Biso   1.000  O
  O92      1.0000 0.04630  0.10661  0.67110  Biso   1.000  O
  O93      1.0000 0.20370  0.35661  0.92110  Biso   1.000  O
  O94      1.0000 0.79630  0.64339  0.92110  Biso   1.000  O
  O95      1.0000 0.45370  0.89339  0.17110  Biso   1.000  O
  O96      1.0000 0.04630  0.60661  0.17110  Biso   1.000  O
  O97      1.0000 0.50120  0.90402  0.48520  Biso   1.000  O
  O98      1.0000 0.49880  0.09598  0.48520  Biso   1.000  O
  O99      1.0000 0.75120  0.34598  0.73520  Biso   1.000  O
  O100     1.0000 0.74880  0.15402  0.73520  Biso   1.000  O
  O101     1.0000 0.50120  0.40402  0.98520  Biso   1.000  O
  O102     1.0000 0.49880  0.59598  0.98520  Biso   1.000  O
  O103     1.0000 0.75120  0.84598  0.23520  Biso   1.000  O
  O104     1.0000 0.74880  0.65402  0.23520  Biso   1.000  O
  O105     1.0000 0.00120  0.90402  0.98520  Biso   1.000  O
  O106     1.0000 0.99880  0.09598  0.98520  Biso   1.000  O
  O107     1.0000 0.25120  0.34598  0.23520  Biso   1.000  O
  O108     1.0000 0.24880  0.15402  0.23520  Biso   1.000  O
  O109     1.0000 0.00120  0.40402  0.48520  Biso   1.000  O
  O110     1.0000 0.99880  0.59598  0.48520  Biso   1.000  O
  O111     1.0000 0.25120  0.84598  0.73520  Biso   1.000  O
  O112     1.0000 0.24880  0.65402  0.73520  Biso   1.000  O
  O113     1.0000 0.53000  0.84611  0.49360  Biso   1.000  O
  O114     1.0000 0.47000  0.15389  0.49360  Biso   1.000  O
  O115     1.0000 0.78000  0.40389  0.74360  Biso   1.000  O
  O116     1.0000 0.72000  0.09611  0.74360  Biso   1.000  O
  O117     1.0000 0.53000  0.34611  0.99360  Biso   1.000  O
  O118     1.0000 0.47000  0.65389  0.99360  Biso   1.000  O
  O119     1.0000 0.78000  0.90389  0.24360  Biso   1.000  O
  O120     1.0000 0.72000  0.59611  0.24360  Biso   1.000  O
  O121     1.0000 0.03000  0.84611  0.99360  Biso   1.000  O
  O122     1.0000 0.97000  0.15389  0.99360  Biso   1.000  O
  O123     1.0000 0.28000  0.40389  0.24360  Biso   1.000  O
  O124     1.0000 0.22000  0.09611  0.24360  Biso   1.000  O
  O125     1.0000 0.03000  0.34611  0.49360  Biso   1.000  O
  O126     1.0000 0.97000  0.65389  0.49360  Biso   1.000  O
  O127     1.0000 0.28000  0.90389  0.74360  Biso   1.000  O
  O128     1.0000 0.22000  0.59611  0.74360  Biso   1.000  O
  O129     1.0000 0.06960  0.06330  0.80590  Biso   1.000  O
  O130     1.0000 0.93040  0.93670  0.80590  Biso   1.000  O
  O131     1.0000 0.31960  0.18670  0.05590  Biso   1.000  O
  O132     1.0000 0.18040  0.31330  0.05590  Biso   1.000  O
  O133     1.0000 0.06960  0.56330  0.30590  Biso   1.000  O
  O134     1.0000 0.93040  0.43670  0.30590  Biso   1.000  O
  O135     1.0000 0.31960  0.68670  0.55590  Biso   1.000  O
  O136     1.0000 0.18040  0.81330  0.55590  Biso   1.000  O
  O137     1.0000 0.56960  0.06330  0.30590  Biso   1.000  O
  O138     1.0000 0.43040  0.93670  0.30590  Biso   1.000  O
  O139     1.0000 0.81960  0.18670  0.55590  Biso   1.000  O
  O140     1.0000 0.68040  0.31330  0.55590  Biso   1.000  O
  O141     1.0000 0.56960  0.56330  0.80590  Biso   1.000  O
  O142     1.0000 0.43040  0.43670  0.80590  Biso   1.000  O
  O143     1.0000 0.81960  0.68670  0.05590  Biso   1.000  O
  O144     1.0000 0.68040  0.81330  0.05590  Biso   1.000  O
  O145     1.0000 0.01360  0.06460  0.18410  Biso   1.000  O
  O146     1.0000 0.98640  0.93540  0.18410  Biso   1.000  O
  O147     1.0000 0.26360  0.18540  0.43410  Biso   1.000  O
  O148     1.0000 0.23640  0.31460  0.43410  Biso   1.000  O
  O149     1.0000 0.01360  0.56460  0.68410  Biso   1.000  O
  O150     1.0000 0.98640  0.43540  0.68410  Biso   1.000  O
  O151     1.0000 0.26360  0.68540  0.93410  Biso   1.000  O
  O152     1.0000 0.23640  0.81460  0.93410  Biso   1.000  O
  O153     1.0000 0.51360  0.06460  0.68410  Biso   1.000  O
  O154     1.0000 0.48640  0.93540  0.68410  Biso   1.000  O
  O155     1.0000 0.76360  0.18540  0.93410  Biso   1.000  O
  O156     1.0000 0.73640  0.31460  0.93410  Biso   1.000  O
  O157     1.0000 0.51360  0.56460  0.18410  Biso   1.000  O
  O158     1.0000 0.48640  0.43540  0.18410  Biso   1.000  O
  O159     1.0000 0.76360  0.68540  0.43410  Biso   1.000  O
  O160     1.0000 0.73640  0.81460  0.43410  Biso   1.000  O
  O161     1.0000 0.87100  0.02660  0.20200  Biso   1.000  O
  O162     1.0000 0.12900  0.97340  0.20200  Biso   1.000  O
  O163     1.0000 0.12100  0.22340  0.45200  Biso   1.000  O
  O164     1.0000 0.37900  0.27660  0.45200  Biso   1.000  O
  O165     1.0000 0.87100  0.52660  0.70200  Biso   1.000  O
  O166     1.0000 0.12900  0.47340  0.70200  Biso   1.000  O
  O167     1.0000 0.12100  0.72340  0.95200  Biso   1.000  O
  O168     1.0000 0.37900  0.77660  0.95200  Biso   1.000  O
  O169     1.0000 0.37100  0.02660  0.70200  Biso   1.000  O
  O170     1.0000 0.62900  0.97340  0.70200  Biso   1.000  O
  O171     1.0000 0.62100  0.22340  0.95200  Biso   1.000  O
  O172     1.0000 0.87900  0.27660  0.95200  Biso   1.000  O
  O173     1.0000 0.37100  0.52660  0.20200  Biso   1.000  O
  O174     1.0000 0.62900  0.47340  0.20200  Biso   1.000  O
  O175     1.0000 0.62100  0.72340  0.45200  Biso   1.000  O
  O176     1.0000 0.87900  0.77660  0.45200  Biso   1.000  O
  O177     1.0000 0.27100  0.04400  0.22700  Biso   1.000  O
  O178     1.0000 0.72900  0.95600  0.22700  Biso   1.000  O
  O179     1.0000 0.52100  0.20600  0.47700  Biso   1.000  O
  O180     1.0000 0.97900  0.29400  0.47700  Biso   1.000  O
  O181     1.0000 0.27100  0.54400  0.72700  Biso   1.000  O
  O182     1.0000 0.72900  0.45600  0.72700  Biso   1.000  O
  O183     1.0000 0.52100  0.70600  0.97700  Biso   1.000  O
  O184     1.0000 0.97900  0.79400  0.97700  Biso   1.000  O
  O185     1.0000 0.77100  0.04400  0.72700  Biso   1.000  O
  O186     1.0000 0.22900  0.95600  0.72700  Biso   1.000  O
  O187     1.0000 0.02100  0.20600  0.97700  Biso   1.000  O
  O188     1.0000 0.47900  0.29400  0.97700  Biso   1.000  O
  O189     1.0000 0.77100  0.54400  0.22700  Biso   1.000  O
  O190     1.0000 0.22900  0.45600  0.22700  Biso   1.000  O
  O191     1.0000 0.02100  0.70600  0.47700  Biso   1.000  O
  O192     1.0000 0.47900  0.79400  0.47700  Biso   1.000  O
  O193     1.0000 0.15700  0.03000  0.14500  Biso   1.000  O
  O194     1.0000 0.84300  0.97000  0.14500  Biso   1.000  O
  O195     1.0000 0.40700  0.22000  0.39500  Biso   1.000  O
  O196     1.0000 0.09300  0.28000  0.39500  Biso   1.000  O
  O197     1.0000 0.15700  0.53000  0.64500  Biso   1.000  O
  O198     1.0000 0.84300  0.47000  0.64500  Biso   1.000  O
  O199     1.0000 0.40700  0.72000  0.89500  Biso   1.000  O
  O200     1.0000 0.09300  0.78000  0.89500  Biso   1.000  O
  O201     1.0000 0.65700  0.03000  0.64500  Biso   1.000  O
  O202     1.0000 0.34300  0.97000  0.64500  Biso   1.000  O
  O203     1.0000 0.90700  0.22000  0.89500  Biso   1.000  O
  O204     1.0000 0.59300  0.28000  0.89500  Biso   1.000  O
  O205     1.0000 0.65700  0.53000  0.14500  Biso   1.000  O
  O206     1.0000 0.34300  0.47000  0.14500  Biso   1.000  O
  O207     1.0000 0.90700  0.72000  0.39500  Biso   1.000  O
  O208     1.0000 0.59300  0.78000  0.39500  Biso   1.000  O
  O209     1.0000 0.96200  0.01950  0.86300  Biso   1.000  O
  O210     1.0000 0.03800  0.98050  0.86300  Biso   1.000  O
  O211     1.0000 0.21200  0.23050  0.11300  Biso   1.000  O
  O212     1.0000 0.28800  0.26950  0.11300  Biso   1.000  O
  O213     1.0000 0.96200  0.51950  0.36300  Biso   1.000  O
  O214     1.0000 0.03800  0.48050  0.36300  Biso   1.000  O
  O215     1.0000 0.21200  0.73050  0.61300  Biso   1.000  O
  O216     1.0000 0.28800  0.76950  0.61300  Biso   1.000  O
  O217     1.0000 0.46200  0.01950  0.36300  Biso   1.000  O
  O218     1.0000 0.53800  0.98050  0.36300  Biso   1.000  O
  O219     1.0000 0.71200  0.23050  0.61300  Biso   1.000  O
  O220     1.0000 0.78800  0.26950  0.61300  Biso   1.000  O
  O221     1.0000 0.46200  0.51950  0.86300  Biso   1.000  O
  O222     1.0000 0.53800  0.48050  0.86300  Biso   1.000  O
  O223     1.0000 0.71200  0.73050  0.11300  Biso   1.000  O
  O224     1.0000 0.78800  0.76950  0.11300  Biso   1.000  O
  O225     1.0000 0.21700  0.02520  0.83800  Biso   1.000  O
  O226     1.0000 0.78300  0.97480  0.83800  Biso   1.000  O
  O227     1.0000 0.46700  0.22480  0.08800  Biso   1.000  O
  O228     1.0000 0.03300  0.27520  0.08800  Biso   1.000  O
  O229     1.0000 0.21700  0.52520  0.33800  Biso   1.000  O
  O230     1.0000 0.78300  0.47480  0.33800  Biso   1.000  O
  O231     1.0000 0.46700  0.72480  0.58800  Biso   1.000  O
  O232     1.0000 0.03300  0.77520  0.58800  Biso   1.000  O
  O233     1.0000 0.71700  0.02520  0.33800  Biso   1.000  O
  O234     1.0000 0.28300  0.97480  0.33800  Biso   1.000  O
  O235     1.0000 0.96700  0.22480  0.58800  Biso   1.000  O
  O236     1.0000 0.53300  0.27520  0.58800  Biso   1.000  O
  O237     1.0000 0.71700  0.52520  0.83800  Biso   1.000  O
  O238     1.0000 0.28300  0.47480  0.83800  Biso   1.000  O
  O239     1.0000 0.96700  0.72480  0.08800  Biso   1.000  O
  O240     1.0000 0.53300  0.77520  0.08800  Biso   1.000  O
