data_image0
_cell_length_a       20.9474
_cell_length_b       8.1081
_cell_length_c       13.7728
_cell_angle_alpha    90
_cell_angle_beta     90
_cell_angle_gamma    90

_symmetry_space_group_name_H-M    "P 1"
_symmetry_int_tables_number       1

loop_
  _symmetry_equiv_pos_as_xyz
  'x, y, z'

loop_
  _atom_site_label
  _atom_site_occupancy
  _atom_site_fract_x
  _atom_site_fract_y
  _atom_site_fract_z
  _atom_site_thermal_displace_type
  _atom_site_B_iso_or_equiv
  _atom_site_type_symbol
  Cu1      1.0000 0.25000  0.00000  0.58126  Biso   1.000  Cu
  Cu2      1.0000 0.75000  0.00000  0.91874  Biso   1.000  Cu
  Cu3      1.0000 0.75000  0.00000  0.41874  Biso   1.000  Cu
  Cu4      1.0000 0.25000  0.00000  0.08126  Biso   1.000  Cu
  O1       1.0000 0.32100  0.77130  0.58535  Biso   1.000  O
  O2       1.0000 0.17900  0.22870  0.58535  Biso   1.000  O
  O3       1.0000 0.67900  0.77130  0.91465  Biso   1.000  O
  O4       1.0000 0.82100  0.22870  0.91465  Biso   1.000  O
  O5       1.0000 0.67900  0.22870  0.41465  Biso   1.000  O
  O6       1.0000 0.82100  0.77130  0.41465  Biso   1.000  O
  O7       1.0000 0.32100  0.22870  0.08535  Biso   1.000  O
  O8       1.0000 0.17900  0.77130  0.08535  Biso   1.000  O
  H1       1.0000 0.30110  0.69030  0.55360  Biso   1.000  H
  H2       1.0000 0.19890  0.30970  0.55360  Biso   1.000  H
  H3       1.0000 0.69890  0.69030  0.94640  Biso   1.000  H
  H4       1.0000 0.80110  0.30970  0.94640  Biso   1.000  H
  H5       1.0000 0.69890  0.30970  0.44640  Biso   1.000  H
  H6       1.0000 0.80110  0.69030  0.44640  Biso   1.000  H
  H7       1.0000 0.30110  0.30970  0.05360  Biso   1.000  H
  H8       1.0000 0.19890  0.69030  0.05360  Biso   1.000  H
  N1       1.0000 0.17834  0.83630  0.57799  Biso   1.000  N
  N2       1.0000 0.32166  0.16370  0.57799  Biso   1.000  N
  N3       1.0000 0.82166  0.83630  0.92201  Biso   1.000  N
  N4       1.0000 0.67834  0.16370  0.92201  Biso   1.000  N
  N5       1.0000 0.82166  0.16370  0.42201  Biso   1.000  N
  N6       1.0000 0.67834  0.83630  0.42201  Biso   1.000  N
  N7       1.0000 0.17834  0.16370  0.07799  Biso   1.000  N
  N8       1.0000 0.32166  0.83630  0.07799  Biso   1.000  N
  N9       1.0000 0.13951  0.94680  0.43074  Biso   1.000  N
  N10      1.0000 0.36049  0.05320  0.43074  Biso   1.000  N
  N11      1.0000 0.86049  0.94680  0.06926  Biso   1.000  N
  N12      1.0000 0.63951  0.05320  0.06926  Biso   1.000  N
  N13      1.0000 0.86049  0.05320  0.56926  Biso   1.000  N
  N14      1.0000 0.63951  0.94680  0.56926  Biso   1.000  N
  N15      1.0000 0.13951  0.05320  0.93074  Biso   1.000  N
  N16      1.0000 0.36049  0.94680  0.93074  Biso   1.000  N
  H9       1.0000 0.10530  0.99330  0.40580  Biso   1.000  H
  H10      1.0000 0.39470  0.00670  0.40580  Biso   1.000  H
  H11      1.0000 0.89470  0.99330  0.09420  Biso   1.000  H
  H12      1.0000 0.60530  0.00670  0.09420  Biso   1.000  H
  H13      1.0000 0.89470  0.00670  0.59420  Biso   1.000  H
  H14      1.0000 0.60530  0.99330  0.59420  Biso   1.000  H
  H15      1.0000 0.10530  0.00670  0.90580  Biso   1.000  H
  H16      1.0000 0.39470  0.99330  0.90580  Biso   1.000  H
  N17      1.0000 0.25000  0.00000  0.43500  Biso   1.000  N
  N18      1.0000 0.75000  0.00000  0.06500  Biso   1.000  N
  N19      1.0000 0.75000  0.00000  0.56500  Biso   1.000  N
  N20      1.0000 0.25000  0.00000  0.93500  Biso   1.000  N
  N21      1.0000 0.25000  0.00000  0.23280  Biso   1.000  N
  N22      1.0000 0.75000  0.00000  0.26720  Biso   1.000  N
  N23      1.0000 0.75000  0.00000  0.76720  Biso   1.000  N
  N24      1.0000 0.25000  0.00000  0.73280  Biso   1.000  N
  C1       1.0000 0.16975  0.72460  0.65024  Biso   1.000  C
  C2       1.0000 0.33025  0.27540  0.65024  Biso   1.000  C
  C3       1.0000 0.83025  0.72460  0.84976  Biso   1.000  C
  C4       1.0000 0.66975  0.27540  0.84976  Biso   1.000  C
  C5       1.0000 0.83025  0.27540  0.34976  Biso   1.000  C
  C6       1.0000 0.66975  0.72460  0.34976  Biso   1.000  C
  C7       1.0000 0.16975  0.27540  0.15024  Biso   1.000  C
  C8       1.0000 0.33025  0.72460  0.15024  Biso   1.000  C
  H17      1.0000 0.20430  0.70360  0.69310  Biso   1.000  H
  H18      1.0000 0.29570  0.29640  0.69310  Biso   1.000  H
  H19      1.0000 0.79570  0.70360  0.80690  Biso   1.000  H
  H20      1.0000 0.70430  0.29640  0.80690  Biso   1.000  H
  H21      1.0000 0.79570  0.29640  0.30690  Biso   1.000  H
  H22      1.0000 0.70430  0.70360  0.30690  Biso   1.000  H
  H23      1.0000 0.20430  0.29640  0.19310  Biso   1.000  H
  H24      1.0000 0.29570  0.70360  0.19310  Biso   1.000  H
  C9       1.0000 0.11405  0.64090  0.66440  Biso   1.000  C
  C10      1.0000 0.38595  0.35910  0.66440  Biso   1.000  C
  C11      1.0000 0.88595  0.64090  0.83560  Biso   1.000  C
  C12      1.0000 0.61405  0.35910  0.83560  Biso   1.000  C
  C13      1.0000 0.88595  0.35910  0.33560  Biso   1.000  C
  C14      1.0000 0.61405  0.64090  0.33560  Biso   1.000  C
  C15      1.0000 0.11405  0.35910  0.16440  Biso   1.000  C
  C16      1.0000 0.38595  0.64090  0.16440  Biso   1.000  C
  H25      1.0000 0.11060  0.56250  0.71540  Biso   1.000  H
  H26      1.0000 0.38940  0.43750  0.71540  Biso   1.000  H
  H27      1.0000 0.88940  0.56250  0.78460  Biso   1.000  H
  H28      1.0000 0.61060  0.43750  0.78460  Biso   1.000  H
  H29      1.0000 0.88940  0.43750  0.28460  Biso   1.000  H
  H30      1.0000 0.61060  0.56250  0.28460  Biso   1.000  H
  H31      1.0000 0.11060  0.43750  0.21540  Biso   1.000  H
  H32      1.0000 0.38940  0.56250  0.21540  Biso   1.000  H
  C17      1.0000 0.06199  0.67140  0.60350  Biso   1.000  C
  C18      1.0000 0.43801  0.32860  0.60350  Biso   1.000  C
  C19      1.0000 0.93801  0.67140  0.89650  Biso   1.000  C
  C20      1.0000 0.56199  0.32860  0.89650  Biso   1.000  C
  C21      1.0000 0.93801  0.32860  0.39650  Biso   1.000  C
  C22      1.0000 0.56199  0.67140  0.39650  Biso   1.000  C
  C23      1.0000 0.06199  0.32860  0.10350  Biso   1.000  C
  C24      1.0000 0.43801  0.67140  0.10350  Biso   1.000  C
  C25      1.0000 0.07170  0.77570  0.52620  Biso   1.000  C
  C26      1.0000 0.42830  0.22430  0.52620  Biso   1.000  C
  C27      1.0000 0.92830  0.77570  0.97380  Biso   1.000  C
  C28      1.0000 0.57170  0.22430  0.97380  Biso   1.000  C
  C29      1.0000 0.92830  0.22430  0.47380  Biso   1.000  C
  C30      1.0000 0.57170  0.77570  0.47380  Biso   1.000  C
  C31      1.0000 0.07170  0.22430  0.02620  Biso   1.000  C
  C32      1.0000 0.42830  0.77570  0.02620  Biso   1.000  C
  H33      1.0000 0.03820  0.79560  0.48130  Biso   1.000  H
  H34      1.0000 0.46180  0.20440  0.48130  Biso   1.000  H
  H35      1.0000 0.96180  0.79560  0.01870  Biso   1.000  H
  H36      1.0000 0.53820  0.20440  0.01870  Biso   1.000  H
  H37      1.0000 0.96180  0.20440  0.51870  Biso   1.000  H
  H38      1.0000 0.53820  0.79560  0.51870  Biso   1.000  H
  H39      1.0000 0.03820  0.20440  0.98130  Biso   1.000  H
  H40      1.0000 0.46180  0.79560  0.98130  Biso   1.000  H
  C33      1.0000 0.13059  0.85230  0.51383  Biso   1.000  C
  C34      1.0000 0.36941  0.14770  0.51383  Biso   1.000  C
  C35      1.0000 0.86941  0.85230  0.98617  Biso   1.000  C
  C36      1.0000 0.63059  0.14770  0.98617  Biso   1.000  C
  C37      1.0000 0.86941  0.14770  0.48617  Biso   1.000  C
  C38      1.0000 0.63059  0.85230  0.48617  Biso   1.000  C
  C39      1.0000 0.13059  0.14770  0.01383  Biso   1.000  C
  C40      1.0000 0.36941  0.85230  0.01383  Biso   1.000  C
  C41      1.0000 0.19618  0.97520  0.38370  Biso   1.000  C
  C42      1.0000 0.30382  0.02480  0.38370  Biso   1.000  C
  C43      1.0000 0.80382  0.97520  0.11630  Biso   1.000  C
  C44      1.0000 0.69618  0.02480  0.11630  Biso   1.000  C
  C45      1.0000 0.80382  0.02480  0.61630  Biso   1.000  C
  C46      1.0000 0.69618  0.97520  0.61630  Biso   1.000  C
  C47      1.0000 0.19618  0.02480  0.88370  Biso   1.000  C
  C48      1.0000 0.30382  0.97520  0.88370  Biso   1.000  C
  C49      1.0000 0.30371  0.02440  0.28250  Biso   1.000  C
  C50      1.0000 0.19629  0.97560  0.28250  Biso   1.000  C
  C51      1.0000 0.69629  0.02440  0.21750  Biso   1.000  C
  C52      1.0000 0.80371  0.97560  0.21750  Biso   1.000  C
  C53      1.0000 0.69629  0.97560  0.71750  Biso   1.000  C
  C54      1.0000 0.80371  0.02440  0.71750  Biso   1.000  C
  C55      1.0000 0.30371  0.97560  0.78250  Biso   1.000  C
  C56      1.0000 0.19629  0.02440  0.78250  Biso   1.000  C
  H41      1.0000 0.15740  0.95820  0.24850  Biso   1.000  H
  H42      1.0000 0.34260  0.04180  0.24850  Biso   1.000  H
  H43      1.0000 0.84260  0.95820  0.25150  Biso   1.000  H
  H44      1.0000 0.65740  0.04180  0.25150  Biso   1.000  H
  H45      1.0000 0.84260  0.04180  0.75150  Biso   1.000  H
  H46      1.0000 0.65740  0.95820  0.75150  Biso   1.000  H
  H47      1.0000 0.15740  0.04180  0.74850  Biso   1.000  H
  H48      1.0000 0.34260  0.95820  0.74850  Biso   1.000  H
  C57      1.0000 0.99780  0.59410  0.62120  Biso   1.000  C
  C58      1.0000 0.50220  0.40590  0.62120  Biso   1.000  C
  C59      1.0000 0.00220  0.59410  0.87880  Biso   1.000  C
  C60      1.0000 0.49780  0.40590  0.87880  Biso   1.000  C
  C61      1.0000 0.00220  0.40590  0.37880  Biso   1.000  C
  C62      1.0000 0.49780  0.59410  0.37880  Biso   1.000  C
  C63      1.0000 0.99780  0.40590  0.12120  Biso   1.000  C
  C64      1.0000 0.50220  0.59410  0.12120  Biso   1.000  C
  H49      1.0000 0.97550  0.57960  0.55920  Biso   1.000  H
  H50      1.0000 0.52450  0.42040  0.55920  Biso   1.000  H
  H51      1.0000 0.02450  0.57960  0.94080  Biso   1.000  H
  H52      1.0000 0.47550  0.42040  0.94080  Biso   1.000  H
  H53      1.0000 0.02450  0.42040  0.44080  Biso   1.000  H
  H54      1.0000 0.47550  0.57960  0.44080  Biso   1.000  H
  H55      1.0000 0.97550  0.42040  0.05920  Biso   1.000  H
  H56      1.0000 0.52450  0.57960  0.05920  Biso   1.000  H
  H57      1.0000 0.97250  0.66580  0.66360  Biso   1.000  H
  H58      1.0000 0.52750  0.33420  0.66360  Biso   1.000  H
  H59      1.0000 0.02750  0.66580  0.83640  Biso   1.000  H
  H60      1.0000 0.47250  0.33420  0.83640  Biso   1.000  H
  H61      1.0000 0.02750  0.33420  0.33640  Biso   1.000  H
  H62      1.0000 0.47250  0.66580  0.33640  Biso   1.000  H
  H63      1.0000 0.97250  0.33420  0.16360  Biso   1.000  H
  H64      1.0000 0.52750  0.66580  0.16360  Biso   1.000  H
  H65      1.0000 0.00350  0.48650  0.65240  Biso   1.000  H
  H66      1.0000 0.49650  0.51350  0.65240  Biso   1.000  H
  H67      1.0000 0.99650  0.48650  0.84760  Biso   1.000  H
  H68      1.0000 0.50350  0.51350  0.84760  Biso   1.000  H
  H69      1.0000 0.99650  0.51350  0.34760  Biso   1.000  H
  H70      1.0000 0.50350  0.48650  0.34760  Biso   1.000  H
  H71      1.0000 0.00350  0.51350  0.15240  Biso   1.000  H
  H72      1.0000 0.49650  0.48650  0.15240  Biso   1.000  H
  C65      1.0000 0.38010  0.74600  0.56590  Biso   1.000  C
  C66      1.0000 0.11990  0.25400  0.56590  Biso   1.000  C
  C67      1.0000 0.61990  0.74600  0.93410  Biso   1.000  C
  C68      1.0000 0.88010  0.25400  0.93410  Biso   1.000  C
  C69      1.0000 0.61990  0.25400  0.43410  Biso   1.000  C
  C70      1.0000 0.88010  0.74600  0.43410  Biso   1.000  C
  C71      1.0000 0.38010  0.25400  0.06590  Biso   1.000  C
  C72      1.0000 0.11990  0.74600  0.06590  Biso   1.000  C
  H73      1.0000 0.39230  0.63540  0.58780  Biso   1.000  H
  H74      1.0000 0.10770  0.36460  0.58780  Biso   1.000  H
  H75      1.0000 0.60770  0.63540  0.91220  Biso   1.000  H
  H76      1.0000 0.89230  0.36460  0.91220  Biso   1.000  H
  H77      1.0000 0.60770  0.36460  0.41220  Biso   1.000  H
  H78      1.0000 0.89230  0.63540  0.41220  Biso   1.000  H
  H79      1.0000 0.39230  0.36460  0.08780  Biso   1.000  H
  H80      1.0000 0.10770  0.63540  0.08780  Biso   1.000  H
  H81      1.0000 0.40630  0.82840  0.59950  Biso   1.000  H
  H82      1.0000 0.09370  0.17160  0.59950  Biso   1.000  H
  H83      1.0000 0.59370  0.82840  0.90050  Biso   1.000  H
  H84      1.0000 0.90630  0.17160  0.90050  Biso   1.000  H
  H85      1.0000 0.59370  0.17160  0.40050  Biso   1.000  H
  H86      1.0000 0.90630  0.82840  0.40050  Biso   1.000  H
  H87      1.0000 0.40630  0.17160  0.09950  Biso   1.000  H
  H88      1.0000 0.09370  0.82840  0.09950  Biso   1.000  H
  H89      1.0000 0.38690  0.75500  0.49570  Biso   1.000  H
  H90      1.0000 0.11310  0.24500  0.49570  Biso   1.000  H
  H91      1.0000 0.61310  0.75500  0.00430  Biso   1.000  H
  H92      1.0000 0.88690  0.24500  0.00430  Biso   1.000  H
  H93      1.0000 0.61310  0.24500  0.50430  Biso   1.000  H
  H94      1.0000 0.88690  0.75500  0.50430  Biso   1.000  H
  H95      1.0000 0.38690  0.24500  0.99570  Biso   1.000  H
  H96      1.0000 0.11310  0.75500  0.99570  Biso   1.000  H
  Cl1      1.0000 0.50000  0.89920  0.75000  Biso   1.000  Cl
  Cl2      1.0000 0.00000  0.10080  0.75000  Biso   1.000  Cl
  Cl3      1.0000 0.50000  0.10080  0.25000  Biso   1.000  Cl
  Cl4      1.0000 0.00000  0.89920  0.25000  Biso   1.000  Cl
  O9       1.0000 0.51760  0.97900  0.67470  Biso   1.000  O
  O10      1.0000 0.98240  0.02100  0.67470  Biso   1.000  O
  O11      1.0000 0.48240  0.97900  0.82530  Biso   1.000  O
  O12      1.0000 0.01760  0.02100  0.82530  Biso   1.000  O
  O13      1.0000 0.48240  0.02100  0.32530  Biso   1.000  O
  O14      1.0000 0.01760  0.97900  0.32530  Biso   1.000  O
  O15      1.0000 0.51760  0.02100  0.17470  Biso   1.000  O
  O16      1.0000 0.98240  0.97900  0.17470  Biso   1.000  O
  O17      1.0000 0.45990  0.02230  0.80050  Biso   1.000  O
  O18      1.0000 0.04010  0.97770  0.80050  Biso   1.000  O
  O19      1.0000 0.54010  0.02230  0.69950  Biso   1.000  O
  O20      1.0000 0.95990  0.97770  0.69950  Biso   1.000  O
  O21      1.0000 0.54010  0.97770  0.19950  Biso   1.000  O
  O22      1.0000 0.95990  0.02230  0.19950  Biso   1.000  O
  O23      1.0000 0.45990  0.97770  0.30050  Biso   1.000  O
  O24      1.0000 0.04010  0.02230  0.30050  Biso   1.000  O
  O25      1.0000 0.45580  0.77860  0.76680  Biso   1.000  O
  O26      1.0000 0.04420  0.22140  0.76680  Biso   1.000  O
  O27      1.0000 0.54420  0.77860  0.73320  Biso   1.000  O
  O28      1.0000 0.95580  0.22140  0.73320  Biso   1.000  O
  O29      1.0000 0.54420  0.22140  0.23320  Biso   1.000  O
  O30      1.0000 0.95580  0.77860  0.23320  Biso   1.000  O
  O31      1.0000 0.45580  0.22140  0.26680  Biso   1.000  O
  O32      1.0000 0.04420  0.77860  0.26680  Biso   1.000  O
  O33      1.0000 0.55220  0.84940  0.83160  Biso   1.000  O
  O34      1.0000 0.94780  0.15060  0.83160  Biso   1.000  O
  O35      1.0000 0.44780  0.84940  0.66840  Biso   1.000  O
  O36      1.0000 0.05220  0.15060  0.66840  Biso   1.000  O
  O37      1.0000 0.44780  0.15060  0.16840  Biso   1.000  O
  O38      1.0000 0.05220  0.84940  0.16840  Biso   1.000  O
  O39      1.0000 0.55220  0.15060  0.33160  Biso   1.000  O
  O40      1.0000 0.94780  0.84940  0.33160  Biso   1.000  O
  Cl5      1.0000 0.25000  0.50000  0.39161  Biso   1.000  Cl
  Cl6      1.0000 0.75000  0.50000  0.10839  Biso   1.000  Cl
  Cl7      1.0000 0.75000  0.50000  0.60839  Biso   1.000  Cl
  Cl8      1.0000 0.25000  0.50000  0.89161  Biso   1.000  Cl
  O41      1.0000 0.25000  0.50000  0.49520  Biso   1.000  O
  O42      1.0000 0.75000  0.50000  0.00480  Biso   1.000  O
  O43      1.0000 0.75000  0.50000  0.50480  Biso   1.000  O
  O44      1.0000 0.25000  0.50000  0.99520  Biso   1.000  O
  O45      1.0000 0.30620  0.41900  0.35200  Biso   1.000  O
  O46      1.0000 0.19380  0.58100  0.35200  Biso   1.000  O
  O47      1.0000 0.69380  0.41900  0.14800  Biso   1.000  O
  O48      1.0000 0.80620  0.58100  0.14800  Biso   1.000  O
  O49      1.0000 0.69380  0.58100  0.64800  Biso   1.000  O
  O50      1.0000 0.80620  0.41900  0.64800  Biso   1.000  O
  O51      1.0000 0.30620  0.58100  0.85200  Biso   1.000  O
  O52      1.0000 0.19380  0.41900  0.85200  Biso   1.000  O
  O53      1.0000 0.23520  0.63710  0.34940  Biso   1.000  O
  O54      1.0000 0.26480  0.36290  0.34940  Biso   1.000  O
  O55      1.0000 0.76480  0.63710  0.15060  Biso   1.000  O
  O56      1.0000 0.73520  0.36290  0.15060  Biso   1.000  O
  O57      1.0000 0.76480  0.36290  0.65060  Biso   1.000  O
  O58      1.0000 0.73520  0.63710  0.65060  Biso   1.000  O
  O59      1.0000 0.23520  0.36290  0.84940  Biso   1.000  O
  O60      1.0000 0.26480  0.63710  0.84940  Biso   1.000  O
  O61      1.0000 0.20100  0.36800  0.37730  Biso   1.000  O
  O62      1.0000 0.29900  0.63200  0.37730  Biso   1.000  O
  O63      1.0000 0.79900  0.36800  0.12270  Biso   1.000  O
  O64      1.0000 0.70100  0.63200  0.12270  Biso   1.000  O
  O65      1.0000 0.79900  0.63200  0.62270  Biso   1.000  O
  O66      1.0000 0.70100  0.36800  0.62270  Biso   1.000  O
  O67      1.0000 0.20100  0.63200  0.87730  Biso   1.000  O
  O68      1.0000 0.29900  0.36800  0.87730  Biso   1.000  O
