data_image0
_cell_length_a       10.6949
_cell_length_b       18.1913
_cell_length_c       21.1585
_cell_angle_alpha    90
_cell_angle_beta     90
_cell_angle_gamma    90

_symmetry_space_group_name_H-M    "P 1"
_symmetry_int_tables_number       1

loop_
  _symmetry_equiv_pos_as_xyz
  'x, y, z'

loop_
  _atom_site_label
  _atom_site_occupancy
  _atom_site_fract_x
  _atom_site_fract_y
  _atom_site_fract_z
  _atom_site_thermal_displace_type
  _atom_site_B_iso_or_equiv
  _atom_site_type_symbol
  Cu1      1.0000 0.02664  0.04668  0.14205  Biso   1.000  Cu
  Cu2      1.0000 0.47336  0.95332  0.64205  Biso   1.000  Cu
  Cu3      1.0000 0.97336  0.54668  0.35795  Biso   1.000  Cu
  Cu4      1.0000 0.52664  0.45332  0.85795  Biso   1.000  Cu
  Cu5      1.0000 0.97336  0.95332  0.85795  Biso   1.000  Cu
  Cu6      1.0000 0.52664  0.04668  0.35795  Biso   1.000  Cu
  Cu7      1.0000 0.02664  0.45332  0.64205  Biso   1.000  Cu
  Cu8      1.0000 0.47336  0.54668  0.14205  Biso   1.000  Cu
  O1       1.0000 0.02124  0.15437  0.16121  Biso   1.000  O
  O2       1.0000 0.47876  0.84563  0.66121  Biso   1.000  O
  O3       1.0000 0.97876  0.65437  0.33879  Biso   1.000  O
  O4       1.0000 0.52124  0.34563  0.83879  Biso   1.000  O
  O5       1.0000 0.97876  0.84563  0.83879  Biso   1.000  O
  O6       1.0000 0.52124  0.15437  0.33879  Biso   1.000  O
  O7       1.0000 0.02124  0.34563  0.66121  Biso   1.000  O
  O8       1.0000 0.47876  0.65437  0.16121  Biso   1.000  O
  H1       1.0000 0.06210  0.17420  0.18400  Biso   1.000  H
  H2       1.0000 0.43790  0.82580  0.68400  Biso   1.000  H
  H3       1.0000 0.93790  0.67420  0.31600  Biso   1.000  H
  H4       1.0000 0.56210  0.32580  0.81600  Biso   1.000  H
  H5       1.0000 0.93790  0.82580  0.81600  Biso   1.000  H
  H6       1.0000 0.56210  0.17420  0.31600  Biso   1.000  H
  H7       1.0000 0.06210  0.32580  0.68400  Biso   1.000  H
  H8       1.0000 0.43790  0.67420  0.18400  Biso   1.000  H
  H9       1.0000 0.96920  0.17270  0.15160  Biso   1.000  H
  H10      1.0000 0.53080  0.82730  0.65160  Biso   1.000  H
  H11      1.0000 0.03080  0.67270  0.34840  Biso   1.000  H
  H12      1.0000 0.46920  0.32730  0.84840  Biso   1.000  H
  H13      1.0000 0.03080  0.82730  0.84840  Biso   1.000  H
  H14      1.0000 0.46920  0.17270  0.34840  Biso   1.000  H
  H15      1.0000 0.96920  0.32730  0.65160  Biso   1.000  H
  H16      1.0000 0.53080  0.67270  0.15160  Biso   1.000  H
  N1       1.0000 0.13681  0.06447  0.06773  Biso   1.000  N
  N2       1.0000 0.36319  0.93553  0.56773  Biso   1.000  N
  N3       1.0000 0.86319  0.56447  0.43227  Biso   1.000  N
  N4       1.0000 0.63681  0.43553  0.93227  Biso   1.000  N
  N5       1.0000 0.86319  0.93553  0.93227  Biso   1.000  N
  N6       1.0000 0.63681  0.06447  0.43227  Biso   1.000  N
  N7       1.0000 0.13681  0.43553  0.56773  Biso   1.000  N
  N8       1.0000 0.36319  0.56447  0.06773  Biso   1.000  N
  N9       1.0000 0.21753  0.94487  0.07721  Biso   1.000  N
  N10      1.0000 0.28247  0.05513  0.57721  Biso   1.000  N
  N11      1.0000 0.78247  0.44487  0.42279  Biso   1.000  N
  N12      1.0000 0.71753  0.55513  0.92279  Biso   1.000  N
  N13      1.0000 0.78247  0.05513  0.92279  Biso   1.000  N
  N14      1.0000 0.71753  0.94487  0.42279  Biso   1.000  N
  N15      1.0000 0.21753  0.55513  0.57721  Biso   1.000  N
  N16      1.0000 0.28247  0.44487  0.07721  Biso   1.000  N
  H17      1.0000 0.28890  0.92120  0.08140  Biso   1.000  H
  H18      1.0000 0.21110  0.07880  0.58140  Biso   1.000  H
  H19      1.0000 0.71110  0.42120  0.41860  Biso   1.000  H
  H20      1.0000 0.78890  0.57880  0.91860  Biso   1.000  H
  H21      1.0000 0.71110  0.07880  0.91860  Biso   1.000  H
  H22      1.0000 0.78890  0.92120  0.41860  Biso   1.000  H
  H23      1.0000 0.28890  0.57880  0.58140  Biso   1.000  H
  H24      1.0000 0.21110  0.42120  0.08140  Biso   1.000  H
  N17      1.0000 0.01345  0.94068  0.11976  Biso   1.000  N
  N18      1.0000 0.48655  0.05932  0.61976  Biso   1.000  N
  N19      1.0000 0.98655  0.44068  0.38024  Biso   1.000  N
  N20      1.0000 0.51345  0.55932  0.88024  Biso   1.000  N
  N21      1.0000 0.98655  0.05932  0.88024  Biso   1.000  N
  N22      1.0000 0.51345  0.94068  0.38024  Biso   1.000  N
  N23      1.0000 0.01345  0.55932  0.61976  Biso   1.000  N
  N24      1.0000 0.48655  0.44068  0.11976  Biso   1.000  N
  N25      1.0000 0.80790  0.93346  0.16106  Biso   1.000  N
  N26      1.0000 0.69210  0.06654  0.66106  Biso   1.000  N
  N27      1.0000 0.19210  0.43346  0.33894  Biso   1.000  N
  N28      1.0000 0.30790  0.56654  0.83894  Biso   1.000  N
  N29      1.0000 0.19210  0.06654  0.83894  Biso   1.000  N
  N30      1.0000 0.30790  0.93346  0.33894  Biso   1.000  N
  N31      1.0000 0.80790  0.56654  0.66106  Biso   1.000  N
  N32      1.0000 0.69210  0.43346  0.16106  Biso   1.000  N
  H25      1.0000 0.73400  0.91960  0.14730  Biso   1.000  H
  H26      1.0000 0.76600  0.08040  0.64730  Biso   1.000  H
  H27      1.0000 0.26600  0.41960  0.35270  Biso   1.000  H
  H28      1.0000 0.23400  0.58040  0.85270  Biso   1.000  H
  H29      1.0000 0.26600  0.08040  0.85270  Biso   1.000  H
  H30      1.0000 0.23400  0.91960  0.35270  Biso   1.000  H
  H31      1.0000 0.73400  0.58040  0.64730  Biso   1.000  H
  H32      1.0000 0.76600  0.41960  0.14730  Biso   1.000  H
  N33      1.0000 0.90830  0.03010  0.21419  Biso   1.000  N
  N34      1.0000 0.59170  0.96990  0.71419  Biso   1.000  N
  N35      1.0000 0.09170  0.53010  0.28581  Biso   1.000  N
  N36      1.0000 0.40830  0.46990  0.78581  Biso   1.000  N
  N37      1.0000 0.09170  0.96990  0.78581  Biso   1.000  N
  N38      1.0000 0.40830  0.03010  0.28581  Biso   1.000  N
  N39      1.0000 0.90830  0.46990  0.71419  Biso   1.000  N
  N40      1.0000 0.59170  0.53010  0.21419  Biso   1.000  N
  N41      1.0000 0.70425  0.03806  0.29538  Biso   1.000  N
  N42      1.0000 0.79575  0.96194  0.79538  Biso   1.000  N
  N43      1.0000 0.29575  0.53806  0.20462  Biso   1.000  N
  N44      1.0000 0.20425  0.46194  0.70462  Biso   1.000  N
  N45      1.0000 0.29575  0.96194  0.70462  Biso   1.000  N
  N46      1.0000 0.20425  0.03806  0.20462  Biso   1.000  N
  N47      1.0000 0.70425  0.46194  0.79538  Biso   1.000  N
  N48      1.0000 0.79575  0.53806  0.29538  Biso   1.000  N
  C1       1.0000 0.14750  0.13286  0.04255  Biso   1.000  C
  C2       1.0000 0.35250  0.86714  0.54255  Biso   1.000  C
  C3       1.0000 0.85250  0.63286  0.45745  Biso   1.000  C
  C4       1.0000 0.64750  0.36714  0.95745  Biso   1.000  C
  C5       1.0000 0.85250  0.86714  0.95745  Biso   1.000  C
  C6       1.0000 0.64750  0.13286  0.45745  Biso   1.000  C
  C7       1.0000 0.14750  0.36714  0.54255  Biso   1.000  C
  C8       1.0000 0.35250  0.63286  0.04255  Biso   1.000  C
  H33      1.0000 0.08120  0.16680  0.04880  Biso   1.000  H
  H34      1.0000 0.41880  0.83320  0.54880  Biso   1.000  H
  H35      1.0000 0.91880  0.66680  0.45120  Biso   1.000  H
  H36      1.0000 0.58120  0.33320  0.95120  Biso   1.000  H
  H37      1.0000 0.91880  0.83320  0.95120  Biso   1.000  H
  H38      1.0000 0.58120  0.16680  0.45120  Biso   1.000  H
  H39      1.0000 0.08120  0.33320  0.54880  Biso   1.000  H
  H40      1.0000 0.41880  0.66680  0.04880  Biso   1.000  H
  C9       1.0000 0.24980  0.15510  0.00845  Biso   1.000  C
  C10      1.0000 0.25020  0.84490  0.50845  Biso   1.000  C
  C11      1.0000 0.75020  0.65510  0.49155  Biso   1.000  C
  C12      1.0000 0.74980  0.34490  0.99155  Biso   1.000  C
  C13      1.0000 0.75020  0.84490  0.99155  Biso   1.000  C
  C14      1.0000 0.74980  0.15510  0.49155  Biso   1.000  C
  C15      1.0000 0.24980  0.34490  0.50845  Biso   1.000  C
  C16      1.0000 0.25020  0.65510  0.00845  Biso   1.000  C
  H41      1.0000 0.25460  0.20340  0.99160  Biso   1.000  H
  H42      1.0000 0.24540  0.79660  0.49160  Biso   1.000  H
  H43      1.0000 0.74540  0.70340  0.50840  Biso   1.000  H
  H44      1.0000 0.75460  0.29660  0.00840  Biso   1.000  H
  H45      1.0000 0.74540  0.79660  0.00840  Biso   1.000  H
  H46      1.0000 0.75460  0.20340  0.50840  Biso   1.000  H
  H47      1.0000 0.25460  0.29660  0.49160  Biso   1.000  H
  H48      1.0000 0.24540  0.70340  0.99160  Biso   1.000  H
  C17      1.0000 0.34620  0.10507  0.99911  Biso   1.000  C
  C18      1.0000 0.15380  0.89493  0.49911  Biso   1.000  C
  C19      1.0000 0.65380  0.60507  0.50089  Biso   1.000  C
  C20      1.0000 0.84620  0.39493  0.00089  Biso   1.000  C
  C21      1.0000 0.65380  0.89493  0.00089  Biso   1.000  C
  C22      1.0000 0.84620  0.10507  0.50089  Biso   1.000  C
  C23      1.0000 0.34620  0.39493  0.49911  Biso   1.000  C
  C24      1.0000 0.15380  0.60507  0.99911  Biso   1.000  C
  H49      1.0000 0.41980  0.11960  0.97730  Biso   1.000  H
  H50      1.0000 0.08020  0.88040  0.47730  Biso   1.000  H
  H51      1.0000 0.58020  0.61960  0.52270  Biso   1.000  H
  H52      1.0000 0.91980  0.38040  0.02270  Biso   1.000  H
  H53      1.0000 0.58020  0.88040  0.02270  Biso   1.000  H
  H54      1.0000 0.91980  0.11960  0.52270  Biso   1.000  H
  H55      1.0000 0.41980  0.38040  0.47730  Biso   1.000  H
  H56      1.0000 0.08020  0.61960  0.97730  Biso   1.000  H
  C25      1.0000 0.33480  0.03495  0.02142  Biso   1.000  C
  C26      1.0000 0.16520  0.96505  0.52142  Biso   1.000  C
  C27      1.0000 0.66520  0.53495  0.47858  Biso   1.000  C
  C28      1.0000 0.83480  0.46505  0.97858  Biso   1.000  C
  C29      1.0000 0.66520  0.96505  0.97858  Biso   1.000  C
  C30      1.0000 0.83480  0.03495  0.47858  Biso   1.000  C
  C31      1.0000 0.33480  0.46505  0.52142  Biso   1.000  C
  C32      1.0000 0.16520  0.53495  0.02142  Biso   1.000  C
  H57      1.0000 0.39890  0.99980  0.01420  Biso   1.000  H
  H58      1.0000 0.10110  0.00020  0.51420  Biso   1.000  H
  H59      1.0000 0.60110  0.49980  0.48580  Biso   1.000  H
  H60      1.0000 0.89890  0.50020  0.98580  Biso   1.000  H
  H61      1.0000 0.60110  0.00020  0.98580  Biso   1.000  H
  H62      1.0000 0.89890  0.99980  0.48580  Biso   1.000  H
  H63      1.0000 0.39890  0.50020  0.51420  Biso   1.000  H
  H64      1.0000 0.10110  0.49980  0.01420  Biso   1.000  H
  C33      1.0000 0.22710  0.01571  0.05516  Biso   1.000  C
  C34      1.0000 0.27290  0.98429  0.55516  Biso   1.000  C
  C35      1.0000 0.77290  0.51571  0.44484  Biso   1.000  C
  C36      1.0000 0.72710  0.48429  0.94484  Biso   1.000  C
  C37      1.0000 0.77290  0.98429  0.94484  Biso   1.000  C
  C38      1.0000 0.72710  0.01571  0.44484  Biso   1.000  C
  C39      1.0000 0.22710  0.48429  0.55516  Biso   1.000  C
  C40      1.0000 0.27290  0.51571  0.05516  Biso   1.000  C
  C41      1.0000 0.11210  0.90530  0.09382  Biso   1.000  C
  C42      1.0000 0.38790  0.09470  0.59382  Biso   1.000  C
  C43      1.0000 0.88790  0.40530  0.40618  Biso   1.000  C
  C44      1.0000 0.61210  0.59470  0.90618  Biso   1.000  C
  C45      1.0000 0.88790  0.09470  0.90618  Biso   1.000  C
  C46      1.0000 0.61210  0.90530  0.40618  Biso   1.000  C
  C47      1.0000 0.11210  0.59470  0.59382  Biso   1.000  C
  C48      1.0000 0.38790  0.40530  0.09382  Biso   1.000  C
  C49      1.0000 0.11340  0.82977  0.08366  Biso   1.000  C
  C50      1.0000 0.38660  0.17023  0.58366  Biso   1.000  C
  C51      1.0000 0.88660  0.32977  0.41634  Biso   1.000  C
  C52      1.0000 0.61340  0.67023  0.91634  Biso   1.000  C
  C53      1.0000 0.88660  0.17023  0.91634  Biso   1.000  C
  C54      1.0000 0.61340  0.82977  0.41634  Biso   1.000  C
  C55      1.0000 0.11340  0.67023  0.58366  Biso   1.000  C
  C56      1.0000 0.38660  0.32977  0.08366  Biso   1.000  C
  H65      1.0000 0.18570  0.80630  0.06720  Biso   1.000  H
  H66      1.0000 0.31430  0.19370  0.56720  Biso   1.000  H
  H67      1.0000 0.81430  0.30630  0.43280  Biso   1.000  H
  H68      1.0000 0.68570  0.69370  0.93280  Biso   1.000  H
  H69      1.0000 0.81430  0.19370  0.93280  Biso   1.000  H
  H70      1.0000 0.68570  0.80630  0.43280  Biso   1.000  H
  H71      1.0000 0.18570  0.69370  0.56720  Biso   1.000  H
  H72      1.0000 0.31430  0.30630  0.06720  Biso   1.000  H
  C57      1.0000 0.00800  0.78979  0.09802  Biso   1.000  C
  C58      1.0000 0.49200  0.21021  0.59802  Biso   1.000  C
  C59      1.0000 0.99200  0.28979  0.40198  Biso   1.000  C
  C60      1.0000 0.50800  0.71021  0.90198  Biso   1.000  C
  C61      1.0000 0.99200  0.21021  0.90198  Biso   1.000  C
  C62      1.0000 0.50800  0.78979  0.40198  Biso   1.000  C
  C63      1.0000 0.00800  0.71021  0.59802  Biso   1.000  C
  C64      1.0000 0.49200  0.28979  0.09802  Biso   1.000  C
  H73      1.0000 0.00620  0.73820  0.09080  Biso   1.000  H
  H74      1.0000 0.49380  0.26180  0.59080  Biso   1.000  H
  H75      1.0000 0.99380  0.23820  0.40920  Biso   1.000  H
  H76      1.0000 0.50620  0.76180  0.90920  Biso   1.000  H
  H77      1.0000 0.99380  0.26180  0.90920  Biso   1.000  H
  H78      1.0000 0.50620  0.73820  0.40920  Biso   1.000  H
  H79      1.0000 0.00620  0.76180  0.59080  Biso   1.000  H
  H80      1.0000 0.49380  0.23820  0.09080  Biso   1.000  H
  C65      1.0000 0.90480  0.82492  0.12288  Biso   1.000  C
  C66      1.0000 0.59520  0.17508  0.62288  Biso   1.000  C
  C67      1.0000 0.09520  0.32492  0.37712  Biso   1.000  C
  C68      1.0000 0.40480  0.67508  0.87712  Biso   1.000  C
  C69      1.0000 0.09520  0.17508  0.87712  Biso   1.000  C
  C70      1.0000 0.40480  0.82492  0.37712  Biso   1.000  C
  C71      1.0000 0.90480  0.67508  0.62288  Biso   1.000  C
  C72      1.0000 0.59520  0.32492  0.12288  Biso   1.000  C
  H81      1.0000 0.83060  0.79830  0.13220  Biso   1.000  H
  H82      1.0000 0.66940  0.20170  0.63220  Biso   1.000  H
  H83      1.0000 0.16940  0.29830  0.36780  Biso   1.000  H
  H84      1.0000 0.33060  0.70170  0.86780  Biso   1.000  H
  H85      1.0000 0.16940  0.20170  0.86780  Biso   1.000  H
  H86      1.0000 0.33060  0.79830  0.36780  Biso   1.000  H
  H87      1.0000 0.83060  0.70170  0.63220  Biso   1.000  H
  H88      1.0000 0.66940  0.29830  0.13220  Biso   1.000  H
  C73      1.0000 0.91140  0.89980  0.13400  Biso   1.000  C
  C74      1.0000 0.58860  0.10020  0.63400  Biso   1.000  C
  C75      1.0000 0.08860  0.39980  0.36600  Biso   1.000  C
  C76      1.0000 0.41140  0.60020  0.86600  Biso   1.000  C
  C77      1.0000 0.08860  0.10020  0.86600  Biso   1.000  C
  C78      1.0000 0.41140  0.89980  0.36600  Biso   1.000  C
  C79      1.0000 0.91140  0.60020  0.63400  Biso   1.000  C
  C80      1.0000 0.58860  0.39980  0.13400  Biso   1.000  C
  C81      1.0000 0.81010  0.98605  0.20704  Biso   1.000  C
  C82      1.0000 0.68990  0.01395  0.70704  Biso   1.000  C
  C83      1.0000 0.18990  0.48605  0.29296  Biso   1.000  C
  C84      1.0000 0.31010  0.51395  0.79296  Biso   1.000  C
  C85      1.0000 0.18990  0.01395  0.79296  Biso   1.000  C
  C86      1.0000 0.31010  0.98605  0.29296  Biso   1.000  C
  C87      1.0000 0.81010  0.51395  0.70704  Biso   1.000  C
  C88      1.0000 0.68990  0.48605  0.20704  Biso   1.000  C
  C89      1.0000 0.70570  0.99236  0.24748  Biso   1.000  C
  C90      1.0000 0.79430  0.00764  0.74748  Biso   1.000  C
  C91      1.0000 0.29430  0.49236  0.25252  Biso   1.000  C
  C92      1.0000 0.20570  0.50764  0.75252  Biso   1.000  C
  C93      1.0000 0.29430  0.00764  0.75252  Biso   1.000  C
  C94      1.0000 0.20570  0.99236  0.25252  Biso   1.000  C
  C95      1.0000 0.70570  0.50764  0.74748  Biso   1.000  C
  C96      1.0000 0.79430  0.49236  0.24748  Biso   1.000  C
  H89      1.0000 0.63440  0.96260  0.23980  Biso   1.000  H
  H90      1.0000 0.86560  0.03740  0.73980  Biso   1.000  H
  H91      1.0000 0.36560  0.46260  0.26020  Biso   1.000  H
  H92      1.0000 0.13440  0.53740  0.76020  Biso   1.000  H
  H93      1.0000 0.36560  0.03740  0.76020  Biso   1.000  H
  H94      1.0000 0.13440  0.96260  0.26020  Biso   1.000  H
  H95      1.0000 0.63440  0.53740  0.73980  Biso   1.000  H
  H96      1.0000 0.86560  0.46260  0.23980  Biso   1.000  H
  C97      1.0000 0.80940  0.07872  0.30572  Biso   1.000  C
  C98      1.0000 0.69060  0.92128  0.80572  Biso   1.000  C
  C99      1.0000 0.19060  0.57872  0.19428  Biso   1.000  C
  C100     1.0000 0.30940  0.42128  0.69428  Biso   1.000  C
  C101     1.0000 0.19060  0.92128  0.69428  Biso   1.000  C
  C102     1.0000 0.30940  0.07872  0.19428  Biso   1.000  C
  C103     1.0000 0.80940  0.42128  0.80572  Biso   1.000  C
  C104     1.0000 0.69060  0.57872  0.30572  Biso   1.000  C
  H97      1.0000 0.81370  0.11010  0.34150  Biso   1.000  H
  H98      1.0000 0.68630  0.88990  0.84150  Biso   1.000  H
  H99      1.0000 0.18630  0.61010  0.15850  Biso   1.000  H
  H100     1.0000 0.31370  0.38990  0.65850  Biso   1.000  H
  H101     1.0000 0.18630  0.88990  0.65850  Biso   1.000  H
  H102     1.0000 0.31370  0.11010  0.15850  Biso   1.000  H
  H103     1.0000 0.81370  0.38990  0.84150  Biso   1.000  H
  H104     1.0000 0.68630  0.61010  0.34150  Biso   1.000  H
  C105     1.0000 0.90800  0.07488  0.26541  Biso   1.000  C
  C106     1.0000 0.59200  0.92512  0.76541  Biso   1.000  C
  C107     1.0000 0.09200  0.57488  0.23459  Biso   1.000  C
  C108     1.0000 0.40800  0.42512  0.73459  Biso   1.000  C
  C109     1.0000 0.09200  0.92512  0.73459  Biso   1.000  C
  C110     1.0000 0.40800  0.07488  0.23459  Biso   1.000  C
  C111     1.0000 0.90800  0.42512  0.76541  Biso   1.000  C
  C112     1.0000 0.59200  0.57488  0.26541  Biso   1.000  C
  H105     1.0000 0.97930  0.10460  0.27340  Biso   1.000  H
  H106     1.0000 0.52070  0.89540  0.77340  Biso   1.000  H
  H107     1.0000 0.02070  0.60460  0.22660  Biso   1.000  H
  H108     1.0000 0.47930  0.39540  0.72660  Biso   1.000  H
  H109     1.0000 0.02070  0.89540  0.72660  Biso   1.000  H
  H110     1.0000 0.47930  0.10460  0.22660  Biso   1.000  H
  H111     1.0000 0.97930  0.39540  0.77340  Biso   1.000  H
  H112     1.0000 0.52070  0.60460  0.27340  Biso   1.000  H
  Cl1      1.0000 0.74016  0.13242  0.08698  Biso   1.000  Cl
  Cl2      1.0000 0.75984  0.86758  0.58698  Biso   1.000  Cl
  Cl3      1.0000 0.25984  0.63242  0.41302  Biso   1.000  Cl
  Cl4      1.0000 0.24016  0.36758  0.91302  Biso   1.000  Cl
  Cl5      1.0000 0.25984  0.86758  0.91302  Biso   1.000  Cl
  Cl6      1.0000 0.24016  0.13242  0.41302  Biso   1.000  Cl
  Cl7      1.0000 0.74016  0.36758  0.58698  Biso   1.000  Cl
  Cl8      1.0000 0.75984  0.63242  0.08698  Biso   1.000  Cl
  O9       1.0000 0.82950  0.07543  0.07554  Biso   1.000  O
  O10      1.0000 0.67050  0.92457  0.57554  Biso   1.000  O
  O11      1.0000 0.17050  0.57543  0.42446  Biso   1.000  O
  O12      1.0000 0.32950  0.42457  0.92446  Biso   1.000  O
  O13      1.0000 0.17050  0.92457  0.92446  Biso   1.000  O
  O14      1.0000 0.32950  0.07543  0.42446  Biso   1.000  O
  O15      1.0000 0.82950  0.42457  0.57554  Biso   1.000  O
  O16      1.0000 0.67050  0.57543  0.07554  Biso   1.000  O
  O17      1.0000 0.66369  0.14522  0.03381  Biso   1.000  O
  O18      1.0000 0.83631  0.85478  0.53381  Biso   1.000  O
  O19      1.0000 0.33631  0.64522  0.46619  Biso   1.000  O
  O20      1.0000 0.16369  0.35478  0.96619  Biso   1.000  O
  O21      1.0000 0.33631  0.85478  0.96619  Biso   1.000  O
  O22      1.0000 0.16369  0.14522  0.46619  Biso   1.000  O
  O23      1.0000 0.66369  0.35478  0.53381  Biso   1.000  O
  O24      1.0000 0.83631  0.64522  0.03381  Biso   1.000  O
  O25      1.0000 0.81820  0.20210  0.08950  Biso   1.000  O
  O26      1.0000 0.68180  0.79790  0.58950  Biso   1.000  O
  O27      1.0000 0.18180  0.70210  0.41050  Biso   1.000  O
  O28      1.0000 0.31820  0.29790  0.91050  Biso   1.000  O
  O29      1.0000 0.18180  0.79790  0.91050  Biso   1.000  O
  O30      1.0000 0.31820  0.20210  0.41050  Biso   1.000  O
  O31      1.0000 0.81820  0.29790  0.58950  Biso   1.000  O
  O32      1.0000 0.68180  0.70210  0.08950  Biso   1.000  O
  O33      1.0000 0.68020  0.12710  0.14460  Biso   1.000  O
  O34      1.0000 0.81980  0.87290  0.64460  Biso   1.000  O
  O35      1.0000 0.31980  0.62710  0.35540  Biso   1.000  O
  O36      1.0000 0.18020  0.37290  0.85540  Biso   1.000  O
  O37      1.0000 0.31980  0.87290  0.85540  Biso   1.000  O
  O38      1.0000 0.18020  0.12710  0.35540  Biso   1.000  O
  O39      1.0000 0.68020  0.37290  0.64460  Biso   1.000  O
  O40      1.0000 0.81980  0.62710  0.14460  Biso   1.000  O
  O41      1.0000 0.77310  0.18480  0.12900  Biso   1.000  O
  O42      1.0000 0.72690  0.81520  0.62900  Biso   1.000  O
  O43      1.0000 0.22690  0.68480  0.37100  Biso   1.000  O
  O44      1.0000 0.27310  0.31520  0.87100  Biso   1.000  O
  O45      1.0000 0.22690  0.81520  0.87100  Biso   1.000  O
  O46      1.0000 0.27310  0.18480  0.37100  Biso   1.000  O
  O47      1.0000 0.77310  0.31520  0.62900  Biso   1.000  O
  O48      1.0000 0.72690  0.68480  0.12900  Biso   1.000  O
  O49      1.0000 0.63620  0.08660  0.12390  Biso   1.000  O
  O50      1.0000 0.86380  0.91340  0.62390  Biso   1.000  O
  O51      1.0000 0.36380  0.58660  0.37610  Biso   1.000  O
  O52      1.0000 0.13620  0.41340  0.87610  Biso   1.000  O
  O53      1.0000 0.36380  0.91340  0.87610  Biso   1.000  O
  O54      1.0000 0.13620  0.08660  0.37610  Biso   1.000  O
  O55      1.0000 0.63620  0.41340  0.62390  Biso   1.000  O
  O56      1.0000 0.86380  0.58660  0.12390  Biso   1.000  O
  Cl9      1.0000 0.02520  0.36342  0.15898  Biso   1.000  Cl
  Cl10     1.0000 0.47480  0.63658  0.65898  Biso   1.000  Cl
  Cl11     1.0000 0.97480  0.86342  0.34102  Biso   1.000  Cl
  Cl12     1.0000 0.52520  0.13658  0.84102  Biso   1.000  Cl
  Cl13     1.0000 0.97480  0.63658  0.84102  Biso   1.000  Cl
  Cl14     1.0000 0.52520  0.36342  0.34102  Biso   1.000  Cl
  Cl15     1.0000 0.02520  0.13658  0.65898  Biso   1.000  Cl
  Cl16     1.0000 0.47480  0.86342  0.15898  Biso   1.000  Cl
  O57      1.0000 0.00220  0.43759  0.13880  Biso   1.000  O
  O58      1.0000 0.49780  0.56241  0.63880  Biso   1.000  O
  O59      1.0000 0.99780  0.93759  0.36120  Biso   1.000  O
  O60      1.0000 0.50220  0.06241  0.86120  Biso   1.000  O
  O61      1.0000 0.99780  0.56241  0.86120  Biso   1.000  O
  O62      1.0000 0.50220  0.43759  0.36120  Biso   1.000  O
  O63      1.0000 0.00220  0.06241  0.63880  Biso   1.000  O
  O64      1.0000 0.49780  0.93759  0.13880  Biso   1.000  O
  O65      1.0000 0.10720  0.36497  0.21236  Biso   1.000  O
  O66      1.0000 0.39280  0.63503  0.71236  Biso   1.000  O
  O67      1.0000 0.89280  0.86497  0.28764  Biso   1.000  O
  O68      1.0000 0.60720  0.13503  0.78764  Biso   1.000  O
  O69      1.0000 0.89280  0.63503  0.78764  Biso   1.000  O
  O70      1.0000 0.60720  0.36497  0.28764  Biso   1.000  O
  O71      1.0000 0.10720  0.13503  0.71236  Biso   1.000  O
  O72      1.0000 0.39280  0.86497  0.21236  Biso   1.000  O
  O73      1.0000 0.90795  0.33030  0.17617  Biso   1.000  O
  O74      1.0000 0.59205  0.66970  0.67617  Biso   1.000  O
  O75      1.0000 0.09205  0.83030  0.32383  Biso   1.000  O
  O76      1.0000 0.40795  0.16970  0.82383  Biso   1.000  O
  O77      1.0000 0.09205  0.66970  0.82383  Biso   1.000  O
  O78      1.0000 0.40795  0.33030  0.32383  Biso   1.000  O
  O79      1.0000 0.90795  0.16970  0.67617  Biso   1.000  O
  O80      1.0000 0.59205  0.83030  0.17617  Biso   1.000  O
  O81      1.0000 0.08061  0.32269  0.10856  Biso   1.000  O
  O82      1.0000 0.41939  0.67731  0.60856  Biso   1.000  O
  O83      1.0000 0.91939  0.82269  0.39144  Biso   1.000  O
  O84      1.0000 0.58061  0.17731  0.89144  Biso   1.000  O
  O85      1.0000 0.91939  0.67731  0.89144  Biso   1.000  O
  O86      1.0000 0.58061  0.32269  0.39144  Biso   1.000  O
  O87      1.0000 0.08061  0.17731  0.60856  Biso   1.000  O
  O88      1.0000 0.41939  0.82269  0.10856  Biso   1.000  O
  O89      1.0000 0.17750  0.21801  0.24037  Biso   1.000  O
  O90      1.0000 0.32250  0.78199  0.74037  Biso   1.000  O
  O91      1.0000 0.82250  0.71801  0.25963  Biso   1.000  O
  O92      1.0000 0.67750  0.28199  0.75963  Biso   1.000  O
  O93      1.0000 0.82250  0.78199  0.75963  Biso   1.000  O
  O94      1.0000 0.67750  0.21801  0.25963  Biso   1.000  O
  O95      1.0000 0.17750  0.28199  0.74037  Biso   1.000  O
  O96      1.0000 0.32250  0.71801  0.24037  Biso   1.000  O
  H113     1.0000 0.15670  0.26580  0.23880  Biso   1.000  H
  H114     1.0000 0.34330  0.73420  0.73880  Biso   1.000  H
  H115     1.0000 0.84330  0.76580  0.26120  Biso   1.000  H
  H116     1.0000 0.65670  0.23420  0.76120  Biso   1.000  H
  H117     1.0000 0.84330  0.73420  0.76120  Biso   1.000  H
  H118     1.0000 0.65670  0.26580  0.26120  Biso   1.000  H
  H119     1.0000 0.15670  0.23420  0.73880  Biso   1.000  H
  H120     1.0000 0.34330  0.76580  0.23880  Biso   1.000  H
  H121     1.0000 0.18700  0.20130  0.28090  Biso   1.000  H
  H122     1.0000 0.31300  0.79870  0.78090  Biso   1.000  H
  H123     1.0000 0.81300  0.70130  0.21910  Biso   1.000  H
  H124     1.0000 0.68700  0.29870  0.71910  Biso   1.000  H
  H125     1.0000 0.81300  0.79870  0.71910  Biso   1.000  H
  H126     1.0000 0.68700  0.20130  0.21910  Biso   1.000  H
  H127     1.0000 0.18700  0.29870  0.78090  Biso   1.000  H
  H128     1.0000 0.31300  0.70130  0.28090  Biso   1.000  H
