data_image0
_cell_length_a       13.7508
_cell_length_b       8.015
_cell_length_c       19.3724
_cell_angle_alpha    90
_cell_angle_beta     90
_cell_angle_gamma    90

_symmetry_space_group_name_H-M    "P 1"
_symmetry_int_tables_number       1

loop_
  _symmetry_equiv_pos_as_xyz
  'x, y, z'

loop_
  _atom_site_label
  _atom_site_occupancy
  _atom_site_fract_x
  _atom_site_fract_y
  _atom_site_fract_z
  _atom_site_thermal_displace_type
  _atom_site_B_iso_or_equiv
  _atom_site_type_symbol
  Cu1      1.0000 0.28140  0.24708  0.09998  Biso   1.000  Cu
  Cu2      1.0000 0.71860  0.75292  0.59998  Biso   1.000  Cu
  Cu3      1.0000 0.78140  0.25292  0.09998  Biso   1.000  Cu
  Cu4      1.0000 0.21860  0.74708  0.59998  Biso   1.000  Cu
  Cl1      1.0000 0.43563  0.10068  0.85431  Biso   1.000  Cl
  Cl2      1.0000 0.56437  0.89932  0.35431  Biso   1.000  Cl
  Cl3      1.0000 0.93563  0.39932  0.85431  Biso   1.000  Cl
  Cl4      1.0000 0.06437  0.60068  0.35431  Biso   1.000  Cl
  Cl5      1.0000 0.58954  0.73558  0.08659  Biso   1.000  Cl
  Cl6      1.0000 0.41046  0.26442  0.58659  Biso   1.000  Cl
  Cl7      1.0000 0.08954  0.76442  0.08659  Biso   1.000  Cl
  Cl8      1.0000 0.91046  0.23558  0.58659  Biso   1.000  Cl
  O1       1.0000 0.27600  0.45310  0.18290  Biso   1.000  O
  O2       1.0000 0.72400  0.54690  0.68290  Biso   1.000  O
  O3       1.0000 0.77600  0.04690  0.18290  Biso   1.000  O
  O4       1.0000 0.22400  0.95310  0.68290  Biso   1.000  O
  H1       1.0000 0.24670  0.54900  0.17080  Biso   1.000  H
  H2       1.0000 0.75330  0.45100  0.67080  Biso   1.000  H
  H3       1.0000 0.74670  0.95100  0.17080  Biso   1.000  H
  H4       1.0000 0.25330  0.04900  0.67080  Biso   1.000  H
  H5       1.0000 0.27470  0.44720  0.22940  Biso   1.000  H
  H6       1.0000 0.72530  0.55280  0.72940  Biso   1.000  H
  H7       1.0000 0.77470  0.05280  0.22940  Biso   1.000  H
  H8       1.0000 0.22530  0.94720  0.72940  Biso   1.000  H
  O5       1.0000 0.28610  0.03820  0.01710  Biso   1.000  O
  O6       1.0000 0.71390  0.96180  0.51710  Biso   1.000  O
  O7       1.0000 0.78610  0.46180  0.01710  Biso   1.000  O
  O8       1.0000 0.21390  0.53820  0.51710  Biso   1.000  O
  H9       1.0000 0.30110  0.04340  0.97190  Biso   1.000  H
  H10      1.0000 0.69890  0.95660  0.47190  Biso   1.000  H
  H11      1.0000 0.80110  0.45660  0.97190  Biso   1.000  H
  H12      1.0000 0.19890  0.54340  0.47190  Biso   1.000  H
  H13      1.0000 0.23320  0.97220  0.02090  Biso   1.000  H
  H14      1.0000 0.76680  0.02780  0.52090  Biso   1.000  H
  H15      1.0000 0.73320  0.52780  0.02090  Biso   1.000  H
  H16      1.0000 0.26680  0.47220  0.52090  Biso   1.000  H
  O9       1.0000 0.47180  0.96040  0.89390  Biso   1.000  O
  O10      1.0000 0.52820  0.03960  0.39390  Biso   1.000  O
  O11      1.0000 0.97180  0.53960  0.89390  Biso   1.000  O
  O12      1.0000 0.02820  0.46040  0.39390  Biso   1.000  O
  O13      1.0000 0.41610  0.05530  0.78490  Biso   1.000  O
  O14      1.0000 0.58390  0.94470  0.28490  Biso   1.000  O
  O15      1.0000 0.91610  0.44470  0.78490  Biso   1.000  O
  O16      1.0000 0.08390  0.55530  0.28490  Biso   1.000  O
  O17      1.0000 0.34690  0.15890  0.88700  Biso   1.000  O
  O18      1.0000 0.65310  0.84110  0.38700  Biso   1.000  O
  O19      1.0000 0.84690  0.34110  0.88700  Biso   1.000  O
  O20      1.0000 0.15310  0.65890  0.38700  Biso   1.000  O
  O21      1.0000 0.50840  0.22990  0.85700  Biso   1.000  O
  O22      1.0000 0.49160  0.77010  0.35700  Biso   1.000  O
  O23      1.0000 0.00840  0.27010  0.85700  Biso   1.000  O
  O24      1.0000 0.99160  0.72990  0.35700  Biso   1.000  O
  O25      1.0000 0.54240  0.88620  0.06670  Biso   1.000  O
  O26      1.0000 0.45760  0.11380  0.56670  Biso   1.000  O
  O27      1.0000 0.04240  0.61380  0.06670  Biso   1.000  O
  O28      1.0000 0.95760  0.38620  0.56670  Biso   1.000  O
  O29      1.0000 0.68320  0.76700  0.11560  Biso   1.000  O
  O30      1.0000 0.31680  0.23300  0.61560  Biso   1.000  O
  O31      1.0000 0.18320  0.73300  0.11560  Biso   1.000  O
  O32      1.0000 0.81680  0.26700  0.61560  Biso   1.000  O
  O33      1.0000 0.60250  0.63120  0.02620  Biso   1.000  O
  O34      1.0000 0.39750  0.36880  0.52620  Biso   1.000  O
  O35      1.0000 0.10250  0.86880  0.02620  Biso   1.000  O
  O36      1.0000 0.89750  0.13120  0.52620  Biso   1.000  O
  O37      1.0000 0.53010  0.64730  0.13490  Biso   1.000  O
  O38      1.0000 0.46990  0.35270  0.63490  Biso   1.000  O
  O39      1.0000 0.03010  0.85270  0.13490  Biso   1.000  O
  O40      1.0000 0.96990  0.14730  0.63490  Biso   1.000  O
  O41      1.0000 0.69340  0.55750  0.82810  Biso   1.000  O
  O42      1.0000 0.30660  0.44250  0.32810  Biso   1.000  O
  O43      1.0000 0.19340  0.94250  0.82810  Biso   1.000  O
  O44      1.0000 0.80660  0.05750  0.32810  Biso   1.000  O
  H17      1.0000 0.64770  0.61140  0.85300  Biso   1.000  H
  H18      1.0000 0.35230  0.38860  0.35300  Biso   1.000  H
  H19      1.0000 0.14770  0.88860  0.85300  Biso   1.000  H
  H20      1.0000 0.85230  0.11140  0.35300  Biso   1.000  H
  H21      1.0000 0.69620  0.45680  0.83710  Biso   1.000  H
  H22      1.0000 0.30380  0.54320  0.33710  Biso   1.000  H
  H23      1.0000 0.19620  0.04320  0.83710  Biso   1.000  H
  H24      1.0000 0.80380  0.95680  0.33710  Biso   1.000  H
  O45      1.0000 0.49310  0.63900  0.82820  Biso   1.000  O
  O46      1.0000 0.50690  0.36100  0.32820  Biso   1.000  O
  O47      1.0000 0.99310  0.86100  0.82820  Biso   1.000  O
  O48      1.0000 0.00690  0.13900  0.32820  Biso   1.000  O
  H25      1.0000 0.49590  0.75100  0.82420  Biso   1.000  H
  H26      1.0000 0.50410  0.24900  0.32420  Biso   1.000  H
  H27      1.0000 0.99590  0.74900  0.82420  Biso   1.000  H
  H28      1.0000 0.00410  0.25100  0.32420  Biso   1.000  H
  H29      1.0000 0.48850  0.60510  0.87250  Biso   1.000  H
  H30      1.0000 0.51150  0.39490  0.37250  Biso   1.000  H
  H31      1.0000 0.98850  0.89490  0.87250  Biso   1.000  H
  H32      1.0000 0.01150  0.10510  0.37250  Biso   1.000  H
  N1       1.0000 0.27580  0.42640  0.02800  Biso   1.000  N
  N2       1.0000 0.72420  0.57360  0.52800  Biso   1.000  N
  N3       1.0000 0.77580  0.07360  0.02800  Biso   1.000  N
  N4       1.0000 0.22420  0.92640  0.52800  Biso   1.000  N
  N5       1.0000 0.13040  0.31590  0.98170  Biso   1.000  N
  N6       1.0000 0.86960  0.68410  0.48170  Biso   1.000  N
  N7       1.0000 0.63040  0.18410  0.98170  Biso   1.000  N
  N8       1.0000 0.36960  0.81590  0.48170  Biso   1.000  N
  H33      1.0000 0.11110  0.27040  0.94270  Biso   1.000  H
  H34      1.0000 0.88890  0.72960  0.44270  Biso   1.000  H
  H35      1.0000 0.61110  0.22960  0.94270  Biso   1.000  H
  H36      1.0000 0.38890  0.77040  0.44270  Biso   1.000  H
  N9       1.0000 0.13390  0.23980  0.09940  Biso   1.000  N
  N10      1.0000 0.86610  0.76020  0.59940  Biso   1.000  N
  N11      1.0000 0.63390  0.26020  0.09940  Biso   1.000  N
  N12      1.0000 0.36610  0.73980  0.59940  Biso   1.000  N
  N13      1.0000 0.12890  0.15260  0.21600  Biso   1.000  N
  N14      1.0000 0.87110  0.84740  0.71600  Biso   1.000  N
  N15      1.0000 0.62890  0.34740  0.21600  Biso   1.000  N
  N16      1.0000 0.37110  0.65260  0.71600  Biso   1.000  N
  H37      1.0000 0.10460  0.18590  0.25570  Biso   1.000  H
  H38      1.0000 0.89540  0.81410  0.75570  Biso   1.000  H
  H39      1.0000 0.60460  0.31410  0.25570  Biso   1.000  H
  H40      1.0000 0.39540  0.68590  0.75570  Biso   1.000  H
  N17      1.0000 0.28040  0.06240  0.17070  Biso   1.000  N
  N18      1.0000 0.71960  0.93760  0.67070  Biso   1.000  N
  N19      1.0000 0.78040  0.43760  0.17070  Biso   1.000  N
  N20      1.0000 0.21960  0.56240  0.67070  Biso   1.000  N
  N21      1.0000 0.27660  0.66700  0.92320  Biso   1.000  N
  N22      1.0000 0.72340  0.33300  0.42320  Biso   1.000  N
  N23      1.0000 0.77660  0.83300  0.92320  Biso   1.000  N
  N24      1.0000 0.22340  0.16700  0.42320  Biso   1.000  N
  N25      1.0000 0.93190  0.24310  0.10060  Biso   1.000  N
  N26      1.0000 0.06810  0.75690  0.60060  Biso   1.000  N
  N27      1.0000 0.43190  0.25690  0.10060  Biso   1.000  N
  N28      1.0000 0.56810  0.74310  0.60060  Biso   1.000  N
  N29      1.0000 0.28910  0.82250  0.27480  Biso   1.000  N
  N30      1.0000 0.71090  0.17750  0.77480  Biso   1.000  N
  N31      1.0000 0.78910  0.67750  0.27480  Biso   1.000  N
  N32      1.0000 0.21090  0.32250  0.77480  Biso   1.000  N
  C1       1.0000 0.34350  0.55250  0.02540  Biso   1.000  C
  C2       1.0000 0.65650  0.44750  0.52540  Biso   1.000  C
  C3       1.0000 0.84350  0.94750  0.02540  Biso   1.000  C
  C4       1.0000 0.15650  0.05250  0.52540  Biso   1.000  C
  H41      1.0000 0.39110  0.56040  0.06080  Biso   1.000  H
  H42      1.0000 0.60890  0.43960  0.56080  Biso   1.000  H
  H43      1.0000 0.89110  0.93960  0.06080  Biso   1.000  H
  H44      1.0000 0.10890  0.06040  0.56080  Biso   1.000  H
  C5       1.0000 0.34380  0.66700  0.97300  Biso   1.000  C
  C6       1.0000 0.65620  0.33300  0.47300  Biso   1.000  C
  C7       1.0000 0.84380  0.83300  0.97300  Biso   1.000  C
  C8       1.0000 0.15620  0.16700  0.47300  Biso   1.000  C
  H45      1.0000 0.39350  0.74920  0.97190  Biso   1.000  H
  H46      1.0000 0.60650  0.25080  0.47190  Biso   1.000  H
  H47      1.0000 0.89350  0.75080  0.97190  Biso   1.000  H
  H48      1.0000 0.10650  0.24920  0.47190  Biso   1.000  H
  C9       1.0000 0.20810  0.55020  0.92690  Biso   1.000  C
  C10      1.0000 0.79190  0.44980  0.42690  Biso   1.000  C
  C11      1.0000 0.70810  0.94980  0.92690  Biso   1.000  C
  C12      1.0000 0.29190  0.05020  0.42690  Biso   1.000  C
  H49      1.0000 0.15820  0.54840  0.89300  Biso   1.000  H
  H50      1.0000 0.84180  0.45160  0.39300  Biso   1.000  H
  H51      1.0000 0.65820  0.95160  0.89300  Biso   1.000  H
  H52      1.0000 0.34180  0.04840  0.39300  Biso   1.000  H
  C13      1.0000 0.20690  0.42920  0.97950  Biso   1.000  C
  C14      1.0000 0.79310  0.57080  0.47950  Biso   1.000  C
  C15      1.0000 0.70690  0.07080  0.97950  Biso   1.000  C
  C16      1.0000 0.29310  0.92920  0.47950  Biso   1.000  C
  C17      1.0000 0.08300  0.27070  0.04170  Biso   1.000  C
  C18      1.0000 0.91700  0.72930  0.54170  Biso   1.000  C
  C19      1.0000 0.58300  0.22930  0.04170  Biso   1.000  C
  C20      1.0000 0.41700  0.77070  0.54170  Biso   1.000  C
  C21      1.0000 0.98210  0.26770  0.04130  Biso   1.000  C
  C22      1.0000 0.01790  0.73230  0.54130  Biso   1.000  C
  C23      1.0000 0.48210  0.23230  0.04130  Biso   1.000  C
  C24      1.0000 0.51790  0.76770  0.54130  Biso   1.000  C
  H53      1.0000 0.94800  0.28300  0.99910  Biso   1.000  H
  H54      1.0000 0.05200  0.71700  0.49910  Biso   1.000  H
  H55      1.0000 0.44800  0.21700  0.99910  Biso   1.000  H
  H56      1.0000 0.55200  0.78300  0.49910  Biso   1.000  H
  C25      1.0000 0.98040  0.21400  0.15770  Biso   1.000  C
  C26      1.0000 0.01960  0.78600  0.65770  Biso   1.000  C
  C27      1.0000 0.48040  0.28600  0.15770  Biso   1.000  C
  C28      1.0000 0.51960  0.71400  0.65770  Biso   1.000  C
  H57      1.0000 0.94630  0.19840  0.19990  Biso   1.000  H
  H58      1.0000 0.05370  0.80160  0.69990  Biso   1.000  H
  H59      1.0000 0.44630  0.30160  0.19990  Biso   1.000  H
  H60      1.0000 0.55370  0.69840  0.69990  Biso   1.000  H
  C29      1.0000 0.08260  0.20600  0.15700  Biso   1.000  C
  C30      1.0000 0.91740  0.79400  0.65700  Biso   1.000  C
  C31      1.0000 0.58260  0.29400  0.15700  Biso   1.000  C
  C32      1.0000 0.41740  0.70600  0.65700  Biso   1.000  C
  C33      1.0000 0.21050  0.05080  0.21830  Biso   1.000  C
  C34      1.0000 0.78950  0.94920  0.71830  Biso   1.000  C
  C35      1.0000 0.71050  0.44920  0.21830  Biso   1.000  C
  C36      1.0000 0.28950  0.55080  0.71830  Biso   1.000  C
  C37      1.0000 0.21650  0.93050  0.27080  Biso   1.000  C
  C38      1.0000 0.78350  0.06950  0.77080  Biso   1.000  C
  C39      1.0000 0.71650  0.56950  0.27080  Biso   1.000  C
  C40      1.0000 0.28350  0.43050  0.77080  Biso   1.000  C
  H61      1.0000 0.16660  0.92660  0.30480  Biso   1.000  H
  H62      1.0000 0.83340  0.07340  0.80480  Biso   1.000  H
  H63      1.0000 0.66660  0.57340  0.30480  Biso   1.000  H
  H64      1.0000 0.33340  0.42660  0.80480  Biso   1.000  H
  C41      1.0000 0.35660  0.83200  0.22520  Biso   1.000  C
  C42      1.0000 0.64340  0.16800  0.72520  Biso   1.000  C
  C43      1.0000 0.85660  0.66800  0.22520  Biso   1.000  C
  C44      1.0000 0.14340  0.33200  0.72520  Biso   1.000  C
  H65      1.0000 0.40900  0.75470  0.22570  Biso   1.000  H
  H66      1.0000 0.59100  0.24530  0.72570  Biso   1.000  H
  H67      1.0000 0.90900  0.74530  0.22570  Biso   1.000  H
  H68      1.0000 0.09100  0.25470  0.72570  Biso   1.000  H
  C45      1.0000 0.35320  0.94820  0.17390  Biso   1.000  C
  C46      1.0000 0.64680  0.05180  0.67390  Biso   1.000  C
  C47      1.0000 0.85320  0.55180  0.17390  Biso   1.000  C
  C48      1.0000 0.14680  0.44820  0.67390  Biso   1.000  C
  H69      1.0000 0.40270  0.94940  0.13970  Biso   1.000  H
  H70      1.0000 0.59730  0.05060  0.63970  Biso   1.000  H
  H71      1.0000 0.90270  0.55060  0.13970  Biso   1.000  H
  H72      1.0000 0.09730  0.44940  0.63970  Biso   1.000  H
