data_image0
_cell_length_a       14.5271
_cell_length_b       14.3046
_cell_length_c       23.1894
_cell_angle_alpha    90
_cell_angle_beta     107.242
_cell_angle_gamma    90

_symmetry_space_group_name_H-M    "P 1"
_symmetry_int_tables_number       1

loop_
  _symmetry_equiv_pos_as_xyz
  'x, y, z'

loop_
  _atom_site_label
  _atom_site_occupancy
  _atom_site_fract_x
  _atom_site_fract_y
  _atom_site_fract_z
  _atom_site_thermal_displace_type
  _atom_site_B_iso_or_equiv
  _atom_site_type_symbol
  Cu1      1.0000 0.25694  0.48225  0.25572  Biso   1.000  Cu
  Cu2      1.0000 0.74306  0.98225  0.24428  Biso   1.000  Cu
  Cu3      1.0000 0.74306  0.51775  0.74428  Biso   1.000  Cu
  Cu4      1.0000 0.25694  0.01775  0.75572  Biso   1.000  Cu
  Cu5      1.0000 0.75647  0.48411  0.25456  Biso   1.000  Cu
  Cu6      1.0000 0.24353  0.98411  0.24544  Biso   1.000  Cu
  Cu7      1.0000 0.24353  0.51589  0.74544  Biso   1.000  Cu
  Cu8      1.0000 0.75647  0.01589  0.75456  Biso   1.000  Cu
  O1       1.0000 0.21490  0.48200  0.16470  Biso   1.000  O
  O2       1.0000 0.78510  0.98200  0.33530  Biso   1.000  O
  O3       1.0000 0.78510  0.51800  0.83530  Biso   1.000  O
  O4       1.0000 0.21490  0.01800  0.66470  Biso   1.000  O
  H1       1.0000 0.21130  0.43480  0.15650  Biso   1.000  H
  H2       1.0000 0.78870  0.93480  0.34350  Biso   1.000  H
  H3       1.0000 0.78870  0.56520  0.84350  Biso   1.000  H
  H4       1.0000 0.21130  0.06520  0.65650  Biso   1.000  H
  H5       1.0000 0.13780  0.49610  0.14790  Biso   1.000  H
  H6       1.0000 0.86220  0.99610  0.35210  Biso   1.000  H
  H7       1.0000 0.86220  0.50390  0.85210  Biso   1.000  H
  H8       1.0000 0.13780  0.00390  0.64790  Biso   1.000  H
  O5       1.0000 0.71510  0.48290  0.16400  Biso   1.000  O
  O6       1.0000 0.28490  0.98290  0.33600  Biso   1.000  O
  O7       1.0000 0.28490  0.51710  0.83600  Biso   1.000  O
  O8       1.0000 0.71510  0.01710  0.66400  Biso   1.000  O
  H9       1.0000 0.68540  0.45100  0.14410  Biso   1.000  H
  H10      1.0000 0.31460  0.95100  0.35590  Biso   1.000  H
  H11      1.0000 0.31460  0.54900  0.85590  Biso   1.000  H
  H12      1.0000 0.68540  0.04900  0.64410  Biso   1.000  H
  H13      1.0000 0.73100  0.53240  0.14200  Biso   1.000  H
  H14      1.0000 0.26900  0.03240  0.35800  Biso   1.000  H
  H15      1.0000 0.26900  0.46760  0.85800  Biso   1.000  H
  H16      1.0000 0.73100  0.96760  0.64200  Biso   1.000  H
  N1       1.0000 0.39620  0.47170  0.25780  Biso   1.000  N
  N2       1.0000 0.60380  0.97170  0.24220  Biso   1.000  N
  N3       1.0000 0.60380  0.52830  0.74220  Biso   1.000  N
  N4       1.0000 0.39620  0.02830  0.75780  Biso   1.000  N
  N5       1.0000 0.44410  0.56560  0.34470  Biso   1.000  N
  N6       1.0000 0.55590  0.06560  0.15530  Biso   1.000  N
  N7       1.0000 0.55590  0.43440  0.65530  Biso   1.000  N
  N8       1.0000 0.44410  0.93440  0.84470  Biso   1.000  N
  H17      1.0000 0.47300  0.61960  0.35560  Biso   1.000  H
  H18      1.0000 0.52700  0.11960  0.14440  Biso   1.000  H
  H19      1.0000 0.52700  0.38040  0.64440  Biso   1.000  H
  H20      1.0000 0.47300  0.88040  0.85560  Biso   1.000  H
  N9       1.0000 0.29980  0.48930  0.34590  Biso   1.000  N
  N10      1.0000 0.70020  0.98930  0.15410  Biso   1.000  N
  N11      1.0000 0.70020  0.51070  0.65410  Biso   1.000  N
  N12      1.0000 0.29980  0.01070  0.84590  Biso   1.000  N
  N13      1.0000 0.15830  0.41250  0.34950  Biso   1.000  N
  N14      1.0000 0.84170  0.91250  0.15050  Biso   1.000  N
  N15      1.0000 0.84170  0.58750  0.65050  Biso   1.000  N
  N16      1.0000 0.15830  0.08750  0.84950  Biso   1.000  N
  H21      1.0000 0.14390  0.35910  0.36360  Biso   1.000  H
  H22      1.0000 0.85610  0.85910  0.13640  Biso   1.000  H
  H23      1.0000 0.85610  0.64090  0.63640  Biso   1.000  H
  H24      1.0000 0.14390  0.14090  0.86360  Biso   1.000  H
  N17      1.0000 0.11990  0.49390  0.25770  Biso   1.000  N
  N18      1.0000 0.88010  0.99390  0.24230  Biso   1.000  N
  N19      1.0000 0.88010  0.50610  0.74230  Biso   1.000  N
  N20      1.0000 0.11990  0.00610  0.75770  Biso   1.000  N
  N21      1.0000 0.58380  0.47880  0.25010  Biso   1.000  N
  N22      1.0000 0.41620  0.97880  0.24990  Biso   1.000  N
  N23      1.0000 0.41620  0.52120  0.74990  Biso   1.000  N
  N24      1.0000 0.58380  0.02120  0.75010  Biso   1.000  N
  N25      1.0000 0.92550  0.48620  0.25150  Biso   1.000  N
  N26      1.0000 0.07450  0.98620  0.24850  Biso   1.000  N
  N27      1.0000 0.07450  0.51380  0.74850  Biso   1.000  N
  N28      1.0000 0.92550  0.01380  0.75150  Biso   1.000  N
  N29      1.0000 0.23790  0.84520  0.24240  Biso   1.000  N
  N30      1.0000 0.76210  0.34520  0.25760  Biso   1.000  N
  N31      1.0000 0.76210  0.15480  0.75760  Biso   1.000  N
  N32      1.0000 0.23790  0.65480  0.74240  Biso   1.000  N
  N33      1.0000 0.27790  0.84330  0.15130  Biso   1.000  N
  N34      1.0000 0.72210  0.34330  0.34870  Biso   1.000  N
  N35      1.0000 0.72210  0.15670  0.84870  Biso   1.000  N
  N36      1.0000 0.27790  0.65670  0.65130  Biso   1.000  N
  H25      1.0000 0.32390  0.82330  0.13680  Biso   1.000  H
  H26      1.0000 0.67610  0.32330  0.36320  Biso   1.000  H
  H27      1.0000 0.67610  0.17670  0.86320  Biso   1.000  H
  H28      1.0000 0.32390  0.67670  0.63680  Biso   1.000  H
  N37      1.0000 0.19940  0.98670  0.15500  Biso   1.000  N
  N38      1.0000 0.80060  0.48670  0.34500  Biso   1.000  N
  N39      1.0000 0.80060  0.01330  0.84500  Biso   1.000  N
  N40      1.0000 0.19940  0.51330  0.65500  Biso   1.000  N
  N41      1.0000 0.12060  0.12970  0.15660  Biso   1.000  N
  N42      1.0000 0.87940  0.62970  0.34340  Biso   1.000  N
  N43      1.0000 0.87940  0.87030  0.84340  Biso   1.000  N
  N44      1.0000 0.12060  0.37030  0.65660  Biso   1.000  N
  H29      1.0000 0.06110  0.15100  0.14440  Biso   1.000  H
  H30      1.0000 0.93890  0.65100  0.35560  Biso   1.000  H
  H31      1.0000 0.93890  0.84900  0.85560  Biso   1.000  H
  H32      1.0000 0.06110  0.34900  0.64440  Biso   1.000  H
  N45      1.0000 0.24990  0.12260  0.24610  Biso   1.000  N
  N46      1.0000 0.75010  0.62260  0.25390  Biso   1.000  N
  N47      1.0000 0.75010  0.87740  0.75390  Biso   1.000  N
  N48      1.0000 0.24990  0.37740  0.74610  Biso   1.000  N
  N49      1.0000 0.26460  0.65230  0.25060  Biso   1.000  N
  N50      1.0000 0.73540  0.15230  0.24940  Biso   1.000  N
  N51      1.0000 0.73540  0.34770  0.74940  Biso   1.000  N
  N52      1.0000 0.26460  0.84770  0.75060  Biso   1.000  N
  N53      1.0000 0.23990  0.31700  0.25530  Biso   1.000  N
  N54      1.0000 0.76010  0.81700  0.24470  Biso   1.000  N
  N55      1.0000 0.76010  0.68300  0.74470  Biso   1.000  N
  N56      1.0000 0.23990  0.18300  0.75530  Biso   1.000  N
  C1       1.0000 0.42340  0.42170  0.21590  Biso   1.000  C
  C2       1.0000 0.57660  0.92170  0.28410  Biso   1.000  C
  C3       1.0000 0.57660  0.57830  0.78410  Biso   1.000  C
  C4       1.0000 0.42340  0.07830  0.71590  Biso   1.000  C
  H33      1.0000 0.37710  0.38380  0.18820  Biso   1.000  H
  H34      1.0000 0.62290  0.88380  0.31180  Biso   1.000  H
  H35      1.0000 0.62290  0.61620  0.81180  Biso   1.000  H
  H36      1.0000 0.37710  0.11620  0.68820  Biso   1.000  H
  C5       1.0000 0.51570  0.42450  0.21230  Biso   1.000  C
  C6       1.0000 0.48430  0.92450  0.28770  Biso   1.000  C
  C7       1.0000 0.48430  0.57550  0.78770  Biso   1.000  C
  C8       1.0000 0.51570  0.07550  0.71230  Biso   1.000  C
  H37      1.0000 0.53230  0.38770  0.18270  Biso   1.000  H
  H38      1.0000 0.46770  0.88770  0.31730  Biso   1.000  H
  H39      1.0000 0.46770  0.61230  0.81730  Biso   1.000  H
  H40      1.0000 0.53230  0.11230  0.68270  Biso   1.000  H
  C9       1.0000 0.55770  0.52470  0.29220  Biso   1.000  C
  C10      1.0000 0.44230  0.02470  0.20780  Biso   1.000  C
  C11      1.0000 0.44230  0.47530  0.70780  Biso   1.000  C
  C12      1.0000 0.55770  0.97530  0.79220  Biso   1.000  C
  H41      1.0000 0.60410  0.56260  0.31980  Biso   1.000  H
  H42      1.0000 0.39590  0.06260  0.18020  Biso   1.000  H
  H43      1.0000 0.39590  0.43740  0.68020  Biso   1.000  H
  H44      1.0000 0.60410  0.93740  0.81980  Biso   1.000  H
  C13      1.0000 0.46390  0.51990  0.29770  Biso   1.000  C
  C14      1.0000 0.53610  0.01990  0.20230  Biso   1.000  C
  C15      1.0000 0.53610  0.48010  0.70230  Biso   1.000  C
  C16      1.0000 0.46390  0.98010  0.79770  Biso   1.000  C
  C17      1.0000 0.38270  0.53480  0.37670  Biso   1.000  C
  C18      1.0000 0.61730  0.03480  0.12330  Biso   1.000  C
  C19      1.0000 0.61730  0.46520  0.62330  Biso   1.000  C
  C20      1.0000 0.38270  0.96520  0.87670  Biso   1.000  C
  C21      1.0000 0.40890  0.55070  0.43790  Biso   1.000  C
  C22      1.0000 0.59110  0.05070  0.06210  Biso   1.000  C
  C23      1.0000 0.59110  0.44930  0.56210  Biso   1.000  C
  C24      1.0000 0.40890  0.94930  0.93790  Biso   1.000  C
  H45      1.0000 0.46260  0.58910  0.45720  Biso   1.000  H
  H46      1.0000 0.53740  0.08910  0.04280  Biso   1.000  H
  H47      1.0000 0.53740  0.41090  0.54280  Biso   1.000  H
  H48      1.0000 0.46260  0.91090  0.95720  Biso   1.000  H
  C25      1.0000 0.35380  0.50830  0.47070  Biso   1.000  C
  C26      1.0000 0.64620  0.00830  0.02930  Biso   1.000  C
  C27      1.0000 0.64620  0.49170  0.52930  Biso   1.000  C
  C28      1.0000 0.35380  0.99170  0.97070  Biso   1.000  C
  H49      1.0000 0.37030  0.51650  0.51320  Biso   1.000  H
  H50      1.0000 0.62970  0.01650  0.98680  Biso   1.000  H
  H51      1.0000 0.62970  0.48350  0.48680  Biso   1.000  H
  H52      1.0000 0.37030  0.98350  0.01320  Biso   1.000  H
  C29      1.0000 0.27600  0.45510  0.44130  Biso   1.000  C
  C30      1.0000 0.72400  0.95510  0.05870  Biso   1.000  C
  C31      1.0000 0.72400  0.54490  0.55870  Biso   1.000  C
  C32      1.0000 0.27600  0.04490  0.94130  Biso   1.000  C
  H53      1.0000 0.24230  0.42040  0.46360  Biso   1.000  H
  H54      1.0000 0.75770  0.92040  0.03640  Biso   1.000  H
  H55      1.0000 0.75770  0.57960  0.53640  Biso   1.000  H
  H56      1.0000 0.24230  0.07960  0.96360  Biso   1.000  H
  C33      1.0000 0.24670  0.45200  0.37920  Biso   1.000  C
  C34      1.0000 0.75330  0.95200  0.12080  Biso   1.000  C
  C35      1.0000 0.75330  0.54800  0.62080  Biso   1.000  C
  C36      1.0000 0.24670  0.04800  0.87920  Biso   1.000  C
  C37      1.0000 0.09040  0.45000  0.29920  Biso   1.000  C
  C38      1.0000 0.90960  0.95000  0.20080  Biso   1.000  C
  C39      1.0000 0.90960  0.55000  0.70080  Biso   1.000  C
  C40      1.0000 0.09040  0.05000  0.79920  Biso   1.000  C
  C41      1.0000 0.99270  0.44490  0.29490  Biso   1.000  C
  C42      1.0000 0.00730  0.94490  0.20510  Biso   1.000  C
  C43      1.0000 0.00730  0.55510  0.70510  Biso   1.000  C
  C44      1.0000 0.99270  0.05510  0.79490  Biso   1.000  C
  H57      1.0000 0.97380  0.41030  0.32450  Biso   1.000  H
  H58      1.0000 0.02620  0.91030  0.17550  Biso   1.000  H
  H59      1.0000 0.02620  0.58970  0.67550  Biso   1.000  H
  H60      1.0000 0.97380  0.08970  0.82450  Biso   1.000  H
  C45      1.0000 0.95610  0.53400  0.21040  Biso   1.000  C
  C46      1.0000 0.04390  0.03400  0.28960  Biso   1.000  C
  C47      1.0000 0.04390  0.46600  0.78960  Biso   1.000  C
  C48      1.0000 0.95610  0.96600  0.71040  Biso   1.000  C
  H61      1.0000 0.91050  0.56600  0.17860  Biso   1.000  H
  H62      1.0000 0.08950  0.06600  0.32140  Biso   1.000  H
  H63      1.0000 0.08950  0.43400  0.82140  Biso   1.000  H
  H64      1.0000 0.91050  0.93400  0.67860  Biso   1.000  H
  C49      1.0000 0.05110  0.53710  0.21370  Biso   1.000  C
  C50      1.0000 0.94890  0.03710  0.28630  Biso   1.000  C
  C51      1.0000 0.94890  0.46290  0.78630  Biso   1.000  C
  C52      1.0000 0.05110  0.96290  0.71370  Biso   1.000  C
  H65      1.0000 0.06980  0.57120  0.18380  Biso   1.000  H
  H66      1.0000 0.93020  0.07120  0.31620  Biso   1.000  H
  H67      1.0000 0.93020  0.42880  0.81620  Biso   1.000  H
  H68      1.0000 0.06980  0.92880  0.68380  Biso   1.000  H
  C53      1.0000 0.21660  0.79490  0.28590  Biso   1.000  C
  C54      1.0000 0.78340  0.29490  0.21410  Biso   1.000  C
  C55      1.0000 0.78340  0.20510  0.71410  Biso   1.000  C
  C56      1.0000 0.21660  0.70510  0.78590  Biso   1.000  C
  H69      1.0000 0.19290  0.82600  0.31480  Biso   1.000  H
  H70      1.0000 0.80710  0.32600  0.18520  Biso   1.000  H
  H71      1.0000 0.80710  0.17400  0.68520  Biso   1.000  H
  H72      1.0000 0.19290  0.67400  0.81480  Biso   1.000  H
  C57      1.0000 0.22850  0.69980  0.28930  Biso   1.000  C
  C58      1.0000 0.77150  0.19980  0.21070  Biso   1.000  C
  C59      1.0000 0.77150  0.30020  0.71070  Biso   1.000  C
  C60      1.0000 0.22850  0.80020  0.78930  Biso   1.000  C
  H73      1.0000 0.21080  0.66630  0.31980  Biso   1.000  H
  H74      1.0000 0.78920  0.16630  0.18020  Biso   1.000  H
  H75      1.0000 0.78920  0.33370  0.68020  Biso   1.000  H
  H76      1.0000 0.21080  0.83370  0.81980  Biso   1.000  H
  C61      1.0000 0.28440  0.70090  0.20770  Biso   1.000  C
  C62      1.0000 0.71560  0.20090  0.29230  Biso   1.000  C
  C63      1.0000 0.71560  0.29910  0.79230  Biso   1.000  C
  C64      1.0000 0.28440  0.79910  0.70770  Biso   1.000  C
  H77      1.0000 0.31100  0.66970  0.18020  Biso   1.000  H
  H78      1.0000 0.68900  0.16970  0.31980  Biso   1.000  H
  H79      1.0000 0.68900  0.33030  0.81980  Biso   1.000  H
  H80      1.0000 0.31100  0.83030  0.68020  Biso   1.000  H
  C65      1.0000 0.26740  0.79870  0.20130  Biso   1.000  C
  C66      1.0000 0.73260  0.29870  0.29870  Biso   1.000  C
  C67      1.0000 0.73260  0.20130  0.79870  Biso   1.000  C
  C68      1.0000 0.26740  0.70130  0.70130  Biso   1.000  C
  C69      1.0000 0.22080  0.91840  0.12120  Biso   1.000  C
  C70      1.0000 0.77920  0.41840  0.37880  Biso   1.000  C
  C71      1.0000 0.77920  0.08160  0.87880  Biso   1.000  C
  C72      1.0000 0.22080  0.58160  0.62120  Biso   1.000  C
  C73      1.0000 0.19070  0.91690  0.05940  Biso   1.000  C
  C74      1.0000 0.80930  0.41690  0.44060  Biso   1.000  C
  C75      1.0000 0.80930  0.08310  0.94060  Biso   1.000  C
  C76      1.0000 0.19070  0.58310  0.55940  Biso   1.000  C
  H81      1.0000 0.21070  0.86890  0.03740  Biso   1.000  H
  H82      1.0000 0.78930  0.36890  0.46260  Biso   1.000  H
  H83      1.0000 0.78930  0.13110  0.96260  Biso   1.000  H
  H84      1.0000 0.21070  0.63110  0.53740  Biso   1.000  H
  C77      1.0000 0.12920  0.98910  0.02980  Biso   1.000  C
  C78      1.0000 0.87080  0.48910  0.47020  Biso   1.000  C
  C79      1.0000 0.87080  0.01090  0.97020  Biso   1.000  C
  C80      1.0000 0.12920  0.51090  0.52980  Biso   1.000  C
  H85      1.0000 0.10450  0.98920  0.98700  Biso   1.000  H
  H86      1.0000 0.89550  0.48920  0.51300  Biso   1.000  H
  H87      1.0000 0.89550  0.01080  0.01300  Biso   1.000  H
  H88      1.0000 0.10450  0.51080  0.48700  Biso   1.000  H
  C81      1.0000 0.10510  0.05870  0.06230  Biso   1.000  C
  C82      1.0000 0.89490  0.55870  0.43770  Biso   1.000  C
  C83      1.0000 0.89490  0.94130  0.93770  Biso   1.000  C
  C84      1.0000 0.10510  0.44130  0.56230  Biso   1.000  C
  H89      1.0000 0.06310  0.10770  0.04300  Biso   1.000  H
  H90      1.0000 0.93690  0.60770  0.45700  Biso   1.000  H
  H91      1.0000 0.93690  0.89230  0.95700  Biso   1.000  H
  H92      1.0000 0.06310  0.39230  0.54300  Biso   1.000  H
  C85      1.0000 0.14300  0.05620  0.12380  Biso   1.000  C
  C86      1.0000 0.85700  0.55620  0.37620  Biso   1.000  C
  C87      1.0000 0.85700  0.94380  0.87620  Biso   1.000  C
  C88      1.0000 0.14300  0.44380  0.62380  Biso   1.000  C
  C89      1.0000 0.18150  0.17190  0.20570  Biso   1.000  C
  C90      1.0000 0.81850  0.67190  0.29430  Biso   1.000  C
  C91      1.0000 0.81850  0.82810  0.79430  Biso   1.000  C
  C92      1.0000 0.18150  0.32810  0.70570  Biso   1.000  C
  C93      1.0000 0.17580  0.27050  0.21410  Biso   1.000  C
  C94      1.0000 0.82420  0.77050  0.28590  Biso   1.000  C
  C95      1.0000 0.82420  0.72950  0.78590  Biso   1.000  C
  C96      1.0000 0.17580  0.22950  0.71410  Biso   1.000  C
  H93      1.0000 0.12270  0.30370  0.18840  Biso   1.000  H
  H94      1.0000 0.87730  0.80370  0.31160  Biso   1.000  H
  H95      1.0000 0.87730  0.69630  0.81160  Biso   1.000  H
  H96      1.0000 0.12270  0.19630  0.68840  Biso   1.000  H
  C97      1.0000 0.31150  0.26640  0.29270  Biso   1.000  C
  C98      1.0000 0.68850  0.76640  0.20730  Biso   1.000  C
  C99      1.0000 0.68850  0.73360  0.70730  Biso   1.000  C
  C100     1.0000 0.31150  0.23360  0.79270  Biso   1.000  C
  H97      1.0000 0.36060  0.29780  0.32280  Biso   1.000  H
  H98      1.0000 0.63940  0.79780  0.17720  Biso   1.000  H
  H99      1.0000 0.63940  0.70220  0.67720  Biso   1.000  H
  H100     1.0000 0.36060  0.20220  0.82280  Biso   1.000  H
  C101     1.0000 0.31550  0.17140  0.28870  Biso   1.000  C
  C102     1.0000 0.68450  0.67140  0.21130  Biso   1.000  C
  C103     1.0000 0.68450  0.82860  0.71130  Biso   1.000  C
  C104     1.0000 0.31550  0.32860  0.78870  Biso   1.000  C
  H101     1.0000 0.36620  0.13870  0.31680  Biso   1.000  H
  H102     1.0000 0.63380  0.63870  0.18320  Biso   1.000  H
  H103     1.0000 0.63380  0.86130  0.68320  Biso   1.000  H
  H104     1.0000 0.36620  0.36130  0.81680  Biso   1.000  H
  Cl1      1.0000 0.98450  0.73970  0.09498  Biso   1.000  Cl
  Cl2      1.0000 0.01550  0.23970  0.40502  Biso   1.000  Cl
  Cl3      1.0000 0.01550  0.26030  0.90502  Biso   1.000  Cl
  Cl4      1.0000 0.98450  0.76030  0.59498  Biso   1.000  Cl
  O9       1.0000 0.95350  0.83010  0.07210  Biso   1.000  O
  O10      1.0000 0.04650  0.33010  0.42790  Biso   1.000  O
  O11      1.0000 0.04650  0.16990  0.92790  Biso   1.000  O
  O12      1.0000 0.95350  0.66990  0.57210  Biso   1.000  O
  O13      1.0000 0.08060  0.72770  0.10810  Biso   1.000  O
  O14      1.0000 0.91940  0.22770  0.39190  Biso   1.000  O
  O15      1.0000 0.91940  0.27230  0.89190  Biso   1.000  O
  O16      1.0000 0.08060  0.77230  0.60810  Biso   1.000  O
  O17      1.0000 0.93590  0.66730  0.05920  Biso   1.000  O
  O18      1.0000 0.06410  0.16730  0.44080  Biso   1.000  O
  O19      1.0000 0.06410  0.33270  0.94080  Biso   1.000  O
  O20      1.0000 0.93590  0.83270  0.55920  Biso   1.000  O
  O21      1.0000 0.95960  0.73210  0.15030  Biso   1.000  O
  O22      1.0000 0.04040  0.23210  0.34970  Biso   1.000  O
  O23      1.0000 0.04040  0.26790  0.84970  Biso   1.000  O
  O24      1.0000 0.95960  0.76790  0.65030  Biso   1.000  O
  Cl5      1.0000 0.66170  0.77152  0.91105  Biso   1.000  Cl
  Cl6      1.0000 0.33830  0.27152  0.58895  Biso   1.000  Cl
  Cl7      1.0000 0.33830  0.22848  0.08895  Biso   1.000  Cl
  Cl8      1.0000 0.66170  0.72848  0.41105  Biso   1.000  Cl
  O25      1.0000 0.67740  0.77900  0.85210  Biso   1.000  O
  O26      1.0000 0.32260  0.27900  0.64790  Biso   1.000  O
  O27      1.0000 0.32260  0.22100  0.14790  Biso   1.000  O
  O28      1.0000 0.67740  0.72100  0.35210  Biso   1.000  O
  O29      1.0000 0.75160  0.75990  0.95590  Biso   1.000  O
  O30      1.0000 0.24840  0.25990  0.54410  Biso   1.000  O
  O31      1.0000 0.24840  0.24010  0.04410  Biso   1.000  O
  O32      1.0000 0.75160  0.74010  0.45590  Biso   1.000  O
  O33      1.0000 0.60670  0.69030  0.91110  Biso   1.000  O
  O34      1.0000 0.39330  0.19030  0.58890  Biso   1.000  O
  O35      1.0000 0.39330  0.30970  0.08890  Biso   1.000  O
  O36      1.0000 0.60670  0.80970  0.41110  Biso   1.000  O
  O37      1.0000 0.62110  0.85350  0.92430  Biso   1.000  O
  O38      1.0000 0.37890  0.35350  0.57570  Biso   1.000  O
  O39      1.0000 0.37890  0.14650  0.07570  Biso   1.000  O
  O40      1.0000 0.62110  0.64650  0.42430  Biso   1.000  O
  Cl9      1.0000 0.89060  0.21330  0.09581  Biso   1.000  Cl
  Cl10     1.0000 0.10940  0.71330  0.40419  Biso   1.000  Cl
  Cl11     1.0000 0.10940  0.78670  0.90419  Biso   1.000  Cl
  Cl12     1.0000 0.89060  0.28670  0.59581  Biso   1.000  Cl
  O41      1.0000 0.80090  0.26960  0.07630  Biso   1.000  O
  O42      1.0000 0.19910  0.76960  0.42370  Biso   1.000  O
  O43      1.0000 0.19910  0.73040  0.92370  Biso   1.000  O
  O44      1.0000 0.80090  0.23040  0.57630  Biso   1.000  O
  O45      1.0000 0.94400  0.26370  0.14840  Biso   1.000  O
  O46      1.0000 0.05600  0.76370  0.35160  Biso   1.000  O
  O47      1.0000 0.05600  0.73630  0.85160  Biso   1.000  O
  O48      1.0000 0.94400  0.23630  0.64840  Biso   1.000  O
  O49      1.0000 0.94770  0.21380  0.05780  Biso   1.000  O
  O50      1.0000 0.05230  0.71380  0.44220  Biso   1.000  O
  O51      1.0000 0.05230  0.78620  0.94220  Biso   1.000  O
  O52      1.0000 0.94770  0.28620  0.55780  Biso   1.000  O
  O53      1.0000 0.87110  0.12100  0.10520  Biso   1.000  O
  O54      1.0000 0.12890  0.62100  0.39480  Biso   1.000  O
  O55      1.0000 0.12890  0.87900  0.89480  Biso   1.000  O
  O56      1.0000 0.87110  0.37900  0.60520  Biso   1.000  O
  Cl13     1.0000 0.46300  0.77130  0.07070  Biso   1.000  Cl
  Cl14     1.0000 0.53700  0.27130  0.42930  Biso   1.000  Cl
  Cl15     1.0000 0.53700  0.22870  0.92930  Biso   1.000  Cl
  Cl16     1.0000 0.46300  0.72870  0.57070  Biso   1.000  Cl
  O57      1.0000 0.44920  0.71790  0.11950  Biso   1.000  O
  O58      1.0000 0.55080  0.21790  0.38050  Biso   1.000  O
  O59      1.0000 0.55080  0.28210  0.88050  Biso   1.000  O
  O60      1.0000 0.44920  0.78210  0.61950  Biso   1.000  O
  O61      1.0000 0.38910  0.76840  0.01610  Biso   1.000  O
  O62      1.0000 0.61090  0.26840  0.48390  Biso   1.000  O
  O63      1.0000 0.61090  0.23160  0.98390  Biso   1.000  O
  O64      1.0000 0.38910  0.73160  0.51610  Biso   1.000  O
  O65      1.0000 0.54160  0.73120  0.06230  Biso   1.000  O
  O66      1.0000 0.45840  0.23120  0.43770  Biso   1.000  O
  O67      1.0000 0.45840  0.26880  0.93770  Biso   1.000  O
  O68      1.0000 0.54160  0.76880  0.56230  Biso   1.000  O
  O69      1.0000 0.47960  0.86610  0.09650  Biso   1.000  O
  O70      1.0000 0.52040  0.36610  0.40350  Biso   1.000  O
  O71      1.0000 0.52040  0.13390  0.90350  Biso   1.000  O
  O72      1.0000 0.47960  0.63390  0.59650  Biso   1.000  O
  O73      1.0000 0.68500  0.05240  0.40170  Biso   1.000  O
  O74      1.0000 0.31500  0.55240  0.09830  Biso   1.000  O
  O75      1.0000 0.31500  0.94760  0.59830  Biso   1.000  O
  O76      1.0000 0.68500  0.44760  0.90170  Biso   1.000  O
  H105     1.0000 0.67030  0.01890  0.42740  Biso   1.000  H
  H106     1.0000 0.32970  0.51890  0.07260  Biso   1.000  H
  H107     1.0000 0.32970  0.98110  0.57260  Biso   1.000  H
  H108     1.0000 0.67030  0.48110  0.92740  Biso   1.000  H
  C105     1.0000 0.77520  0.10220  0.43060  Biso   1.000  C
  C106     1.0000 0.22480  0.60220  0.06940  Biso   1.000  C
  C107     1.0000 0.22480  0.89780  0.56940  Biso   1.000  C
  C108     1.0000 0.77520  0.39780  0.93060  Biso   1.000  C
  H109     1.0000 0.79220  0.09220  0.47490  Biso   1.000  H
  H110     1.0000 0.20780  0.59220  0.02510  Biso   1.000  H
  H111     1.0000 0.20780  0.90780  0.52510  Biso   1.000  H
  H112     1.0000 0.79220  0.40780  0.97490  Biso   1.000  H
  H113     1.0000 0.76610  0.16890  0.42230  Biso   1.000  H
  H114     1.0000 0.23390  0.66890  0.07770  Biso   1.000  H
  H115     1.0000 0.23390  0.83110  0.57770  Biso   1.000  H
  H116     1.0000 0.76610  0.33110  0.92230  Biso   1.000  H
  H117     1.0000 0.82640  0.07780  0.41590  Biso   1.000  H
  H118     1.0000 0.17360  0.57780  0.08410  Biso   1.000  H
  H119     1.0000 0.17360  0.92220  0.58410  Biso   1.000  H
  H120     1.0000 0.82640  0.42220  0.91590  Biso   1.000  H
  O77      1.0000 0.10020  0.37170  0.07980  Biso   1.000  O
  O78      1.0000 0.89980  0.87170  0.42020  Biso   1.000  O
  O79      1.0000 0.89980  0.62830  0.92020  Biso   1.000  O
  O80      1.0000 0.10020  0.12830  0.57980  Biso   1.000  O
  H121     1.0000 0.09430  0.43040  0.08680  Biso   1.000  H
  H122     1.0000 0.90570  0.93040  0.41320  Biso   1.000  H
  H123     1.0000 0.90570  0.56960  0.91320  Biso   1.000  H
  H124     1.0000 0.09430  0.06960  0.58680  Biso   1.000  H
  H125     1.0000 0.14410  0.37510  0.06210  Biso   1.000  H
  H126     1.0000 0.85590  0.87510  0.43790  Biso   1.000  H
  H127     1.0000 0.85590  0.62490  0.93790  Biso   1.000  H
  H128     1.0000 0.14410  0.12490  0.56210  Biso   1.000  H
  O81      1.0000 0.73730  0.62790  0.08630  Biso   1.000  O
  O82      1.0000 0.26270  0.12790  0.41370  Biso   1.000  O
  O83      1.0000 0.26270  0.37210  0.91370  Biso   1.000  O
  O84      1.0000 0.73730  0.87210  0.58630  Biso   1.000  O
  H129     1.0000 0.68890  0.65250  0.05700  Biso   1.000  H
  H130     1.0000 0.31110  0.15250  0.44300  Biso   1.000  H
  H131     1.0000 0.31110  0.34750  0.94300  Biso   1.000  H
  H132     1.0000 0.68890  0.84750  0.55700  Biso   1.000  H
  H133     1.0000 0.76170  0.58070  0.07790  Biso   1.000  H
  H134     1.0000 0.23830  0.08070  0.42210  Biso   1.000  H
  H135     1.0000 0.23830  0.41930  0.92210  Biso   1.000  H
  H136     1.0000 0.76170  0.91930  0.57790  Biso   1.000  H
  O85      1.0000 0.39860  0.85950  0.40970  Biso   1.000  O
  O86      1.0000 0.60140  0.35950  0.09030  Biso   1.000  O
  O87      1.0000 0.60140  0.14050  0.59030  Biso   1.000  O
  O88      1.0000 0.39860  0.64050  0.90970  Biso   1.000  O
  H137     1.0000 0.41570  0.83110  0.44850  Biso   1.000  H
  H138     1.0000 0.58430  0.33110  0.05150  Biso   1.000  H
  H139     1.0000 0.58430  0.16890  0.55150  Biso   1.000  H
  H140     1.0000 0.41570  0.66890  0.94850  Biso   1.000  H
  H141     1.0000 0.38590  0.79470  0.38920  Biso   1.000  H
  H142     1.0000 0.61410  0.29470  0.11080  Biso   1.000  H
  H143     1.0000 0.61410  0.20530  0.61080  Biso   1.000  H
  H144     1.0000 0.38590  0.70530  0.88920  Biso   1.000  H
  Cl17     1.0000 0.89470  0.28660  0.08500  Biso   1.000  Cl
  Cl18     1.0000 0.10530  0.78660  0.41500  Biso   1.000  Cl
  Cl19     1.0000 0.10530  0.71340  0.91500  Biso   1.000  Cl
  Cl20     1.0000 0.89470  0.21340  0.58500  Biso   1.000  Cl
  O89      1.0000 0.91000  0.36230  0.05000  Biso   1.000  O
  O90      1.0000 0.09000  0.86230  0.45000  Biso   1.000  O
  O91      1.0000 0.09000  0.63770  0.95000  Biso   1.000  O
  O92      1.0000 0.91000  0.13770  0.55000  Biso   1.000  O
  Cl21     1.0000 0.46020  0.76520  0.10400  Biso   1.000  Cl
  Cl22     1.0000 0.53980  0.26520  0.39600  Biso   1.000  Cl
  Cl23     1.0000 0.53980  0.23480  0.89600  Biso   1.000  Cl
  Cl24     1.0000 0.46020  0.73480  0.60400  Biso   1.000  Cl
  O93      1.0000 0.46920  0.78120  0.16820  Biso   1.000  O
  O94      1.0000 0.53080  0.28120  0.33180  Biso   1.000  O
  O95      1.0000 0.53080  0.21880  0.83180  Biso   1.000  O
  O96      1.0000 0.46920  0.71880  0.66820  Biso   1.000  O
  O97      1.0000 0.48960  0.67260  0.10470  Biso   1.000  O
  O98      1.0000 0.51040  0.17260  0.39530  Biso   1.000  O
  O99      1.0000 0.51040  0.32740  0.89530  Biso   1.000  O
  O100     1.0000 0.48960  0.82740  0.60470  Biso   1.000  O
  O101     1.0000 0.51790  0.82890  0.08370  Biso   1.000  O
  O102     1.0000 0.48210  0.32890  0.41630  Biso   1.000  O
  O103     1.0000 0.48210  0.17110  0.91630  Biso   1.000  O
  O104     1.0000 0.51790  0.67110  0.58370  Biso   1.000  O
  O105     1.0000 0.35880  0.77060  0.06650  Biso   1.000  O
  O106     1.0000 0.64120  0.27060  0.43350  Biso   1.000  O
  O107     1.0000 0.64120  0.22940  0.93350  Biso   1.000  O
  O108     1.0000 0.35880  0.72940  0.56650  Biso   1.000  O
  O109     1.0000 0.72760  0.04150  0.46510  Biso   1.000  O
  O110     1.0000 0.27240  0.54150  0.03490  Biso   1.000  O
  O111     1.0000 0.27240  0.95850  0.53490  Biso   1.000  O
  O112     1.0000 0.72760  0.45850  0.96510  Biso   1.000  O
  H145     1.0000 0.74070  0.98530  0.46050  Biso   1.000  H
  H146     1.0000 0.25930  0.48530  0.03950  Biso   1.000  H
  H147     1.0000 0.25930  0.01470  0.53950  Biso   1.000  H
  H148     1.0000 0.74070  0.51470  0.96050  Biso   1.000  H
  H149     1.0000 0.82290  0.14080  0.45960  Biso   1.000  H
  H150     1.0000 0.17710  0.64080  0.04040  Biso   1.000  H
  H151     1.0000 0.17710  0.85920  0.54040  Biso   1.000  H
  H152     1.0000 0.82290  0.35920  0.95960  Biso   1.000  H
  H153     1.0000 0.72670  0.14210  0.40370  Biso   1.000  H
  H154     1.0000 0.27330  0.64210  0.09630  Biso   1.000  H
  H155     1.0000 0.27330  0.85790  0.59630  Biso   1.000  H
  H156     1.0000 0.72670  0.35790  0.90370  Biso   1.000  H
  H157     1.0000 0.80660  0.06340  0.40770  Biso   1.000  H
  H158     1.0000 0.19340  0.56340  0.09230  Biso   1.000  H
  H159     1.0000 0.19340  0.93660  0.59230  Biso   1.000  H
  H160     1.0000 0.80660  0.43660  0.90770  Biso   1.000  H
