data_image0
_cell_length_a       11.0763
_cell_length_b       11.0763
_cell_length_c       27.4307
_cell_angle_alpha    90
_cell_angle_beta     90
_cell_angle_gamma    90

_symmetry_space_group_name_H-M    "P 1"
_symmetry_int_tables_number       1

loop_
  _symmetry_equiv_pos_as_xyz
  'x, y, z'

loop_
  _atom_site_label
  _atom_site_occupancy
  _atom_site_fract_x
  _atom_site_fract_y
  _atom_site_fract_z
  _atom_site_thermal_displace_type
  _atom_site_B_iso_or_equiv
  _atom_site_type_symbol
  Cu1      1.0000 0.51609  0.51609  0.00000  Biso   1.000  Cu
  Cu2      1.0000 0.48391  0.48391  0.50000  Biso   1.000  Cu
  Cu3      1.0000 0.98391  0.01609  0.75000  Biso   1.000  Cu
  Cu4      1.0000 0.01609  0.98391  0.25000  Biso   1.000  Cu
  Ni1      1.0000 0.52836  0.47164  0.75000  Biso   1.000  Ni
  Ni2      1.0000 0.47164  0.52836  0.25000  Biso   1.000  Ni
  Ni3      1.0000 0.02836  0.02836  0.50000  Biso   1.000  Ni
  Ni4      1.0000 0.97164  0.97164  0.00000  Biso   1.000  Ni
  O1       1.0000 0.38910  0.38910  0.00000  Biso   1.000  O
  O2       1.0000 0.61090  0.61090  0.50000  Biso   1.000  O
  O3       1.0000 0.11090  0.88910  0.75000  Biso   1.000  O
  O4       1.0000 0.88910  0.11090  0.25000  Biso   1.000  O
  H1       1.0000 0.39030  0.30000  0.00860  Biso   1.000  H
  H2       1.0000 0.60970  0.70000  0.50860  Biso   1.000  H
  H3       1.0000 0.20000  0.89030  0.75860  Biso   1.000  H
  H4       1.0000 0.80000  0.10970  0.25860  Biso   1.000  H
  H5       1.0000 0.10970  0.80000  0.74140  Biso   1.000  H
  H6       1.0000 0.89030  0.20000  0.24140  Biso   1.000  H
  H7       1.0000 0.30000  0.39030  0.99140  Biso   1.000  H
  H8       1.0000 0.70000  0.60970  0.49140  Biso   1.000  H
  O5       1.0000 0.36980  0.65620  0.99145  Biso   1.000  O
  O6       1.0000 0.63020  0.34380  0.49145  Biso   1.000  O
  O7       1.0000 0.84380  0.86980  0.74145  Biso   1.000  O
  O8       1.0000 0.15620  0.13020  0.24145  Biso   1.000  O
  O9       1.0000 0.13020  0.15620  0.75855  Biso   1.000  O
  O10      1.0000 0.86980  0.84380  0.25855  Biso   1.000  O
  O11      1.0000 0.65620  0.36980  0.00855  Biso   1.000  O
  O12      1.0000 0.34380  0.63020  0.50855  Biso   1.000  O
  H9       1.0000 0.30290  0.62670  0.97770  Biso   1.000  H
  H10      1.0000 0.69710  0.37330  0.47770  Biso   1.000  H
  H11      1.0000 0.87330  0.80290  0.72770  Biso   1.000  H
  H12      1.0000 0.12670  0.19710  0.22770  Biso   1.000  H
  H13      1.0000 0.19710  0.12670  0.77230  Biso   1.000  H
  H14      1.0000 0.80290  0.87330  0.27230  Biso   1.000  H
  H15      1.0000 0.62670  0.30290  0.02230  Biso   1.000  H
  H16      1.0000 0.37330  0.69710  0.52230  Biso   1.000  H
  H17      1.0000 0.35180  0.68380  0.02120  Biso   1.000  H
  H18      1.0000 0.64820  0.31620  0.52120  Biso   1.000  H
  H19      1.0000 0.81620  0.85180  0.77120  Biso   1.000  H
  H20      1.0000 0.18380  0.14820  0.27120  Biso   1.000  H
  H21      1.0000 0.14820  0.18380  0.72880  Biso   1.000  H
  H22      1.0000 0.85180  0.81620  0.22880  Biso   1.000  H
  H23      1.0000 0.68380  0.35180  0.97880  Biso   1.000  H
  H24      1.0000 0.31620  0.64820  0.47880  Biso   1.000  H
  O13      1.0000 0.38910  0.61090  0.75000  Biso   1.000  O
  O14      1.0000 0.61090  0.38910  0.25000  Biso   1.000  O
  O15      1.0000 0.88910  0.88910  0.50000  Biso   1.000  O
  O16      1.0000 0.11090  0.11090  0.00000  Biso   1.000  O
  H25      1.0000 0.34100  0.60570  0.78140  Biso   1.000  H
  H26      1.0000 0.65900  0.39430  0.28140  Biso   1.000  H
  H27      1.0000 0.89430  0.84100  0.53140  Biso   1.000  H
  H28      1.0000 0.10570  0.15900  0.03140  Biso   1.000  H
  H29      1.0000 0.15900  0.10570  0.96860  Biso   1.000  H
  H30      1.0000 0.84100  0.89430  0.46860  Biso   1.000  H
  H31      1.0000 0.60570  0.34100  0.21860  Biso   1.000  H
  H32      1.0000 0.39430  0.65900  0.71860  Biso   1.000  H
  O17      1.0000 0.65000  0.60280  0.74526  Biso   1.000  O
  O18      1.0000 0.35000  0.39720  0.24526  Biso   1.000  O
  O19      1.0000 0.89720  0.15000  0.49526  Biso   1.000  O
  O20      1.0000 0.10280  0.85000  0.99526  Biso   1.000  O
  O21      1.0000 0.85000  0.10280  0.00474  Biso   1.000  O
  O22      1.0000 0.15000  0.89720  0.50474  Biso   1.000  O
  O23      1.0000 0.60280  0.65000  0.25474  Biso   1.000  O
  O24      1.0000 0.39720  0.35000  0.75474  Biso   1.000  O
  H33      1.0000 0.71100  0.59800  0.75460  Biso   1.000  H
  H34      1.0000 0.28900  0.40200  0.25460  Biso   1.000  H
  H35      1.0000 0.90200  0.21100  0.50460  Biso   1.000  H
  H36      1.0000 0.09800  0.78900  0.00460  Biso   1.000  H
  H37      1.0000 0.78900  0.09800  0.99540  Biso   1.000  H
  H38      1.0000 0.21100  0.90200  0.49540  Biso   1.000  H
  H39      1.0000 0.59800  0.71100  0.24540  Biso   1.000  H
  H40      1.0000 0.40200  0.28900  0.74540  Biso   1.000  H
  H41      1.0000 0.63320  0.67940  0.73740  Biso   1.000  H
  H42      1.0000 0.36680  0.32060  0.23740  Biso   1.000  H
  H43      1.0000 0.82060  0.13320  0.48740  Biso   1.000  H
  H44      1.0000 0.17940  0.86680  0.98740  Biso   1.000  H
  H45      1.0000 0.86680  0.17940  0.01260  Biso   1.000  H
  H46      1.0000 0.13320  0.82060  0.51260  Biso   1.000  H
  H47      1.0000 0.67940  0.63320  0.26260  Biso   1.000  H
  H48      1.0000 0.32060  0.36680  0.76260  Biso   1.000  H
  N1       1.0000 0.53390  0.50280  0.92688  Biso   1.000  N
  N2       1.0000 0.46610  0.49720  0.42688  Biso   1.000  N
  N3       1.0000 0.99720  0.03390  0.67688  Biso   1.000  N
  N4       1.0000 0.00280  0.96610  0.17688  Biso   1.000  N
  N5       1.0000 0.96610  0.00280  0.82312  Biso   1.000  N
  N6       1.0000 0.03390  0.99720  0.32312  Biso   1.000  N
  N7       1.0000 0.50280  0.53390  0.07312  Biso   1.000  N
  N8       1.0000 0.49720  0.46610  0.57312  Biso   1.000  N
  N9       1.0000 0.59350  0.70630  0.91961  Biso   1.000  N
  N10      1.0000 0.40650  0.29370  0.41961  Biso   1.000  N
  N11      1.0000 0.79370  0.09350  0.66961  Biso   1.000  N
  N12      1.0000 0.20630  0.90650  0.16961  Biso   1.000  N
  N13      1.0000 0.90650  0.20630  0.83039  Biso   1.000  N
  N14      1.0000 0.09350  0.79370  0.33039  Biso   1.000  N
  N15      1.0000 0.70630  0.59350  0.08039  Biso   1.000  N
  N16      1.0000 0.29370  0.40650  0.58039  Biso   1.000  N
  N17      1.0000 0.64600  0.64600  0.00000  Biso   1.000  N
  N18      1.0000 0.35400  0.35400  0.50000  Biso   1.000  N
  N19      1.0000 0.85400  0.14600  0.75000  Biso   1.000  N
  N20      1.0000 0.14600  0.85400  0.25000  Biso   1.000  N
  N21      1.0000 0.53510  0.48460  0.82564  Biso   1.000  N
  N22      1.0000 0.46490  0.51540  0.32564  Biso   1.000  N
  N23      1.0000 0.01540  0.03510  0.57564  Biso   1.000  N
  N24      1.0000 0.98460  0.96490  0.07564  Biso   1.000  N
  N25      1.0000 0.96490  0.98460  0.92436  Biso   1.000  N
  N26      1.0000 0.03510  0.01540  0.42436  Biso   1.000  N
  N27      1.0000 0.48460  0.53510  0.17436  Biso   1.000  N
  N28      1.0000 0.51540  0.46490  0.67436  Biso   1.000  N
  N29      1.0000 0.82450  0.82450  0.00000  Biso   1.000  N
  N30      1.0000 0.17550  0.17550  0.50000  Biso   1.000  N
  N31      1.0000 0.67550  0.32450  0.75000  Biso   1.000  N
  N32      1.0000 0.32450  0.67550  0.25000  Biso   1.000  N
  C1       1.0000 0.51220  0.39680  0.90407  Biso   1.000  C
  C2       1.0000 0.48780  0.60320  0.40407  Biso   1.000  C
  C3       1.0000 0.10320  0.01220  0.65407  Biso   1.000  C
  C4       1.0000 0.89680  0.98780  0.15407  Biso   1.000  C
  C5       1.0000 0.98780  0.89680  0.84593  Biso   1.000  C
  C6       1.0000 0.01220  0.10320  0.34593  Biso   1.000  C
  C7       1.0000 0.39680  0.51220  0.09593  Biso   1.000  C
  C8       1.0000 0.60320  0.48780  0.59593  Biso   1.000  C
  H49      1.0000 0.49590  0.32700  0.92310  Biso   1.000  H
  H50      1.0000 0.50410  0.67300  0.42310  Biso   1.000  H
  H51      1.0000 0.17300  0.99590  0.67310  Biso   1.000  H
  H52      1.0000 0.82700  0.00410  0.17310  Biso   1.000  H
  H53      1.0000 0.00410  0.82700  0.82690  Biso   1.000  H
  H54      1.0000 0.99590  0.17300  0.32690  Biso   1.000  H
  H55      1.0000 0.32700  0.49590  0.07690  Biso   1.000  H
  H56      1.0000 0.67300  0.50410  0.57690  Biso   1.000  H
  C9       1.0000 0.51290  0.38720  0.85424  Biso   1.000  C
  C10      1.0000 0.48710  0.61280  0.35424  Biso   1.000  C
  C11      1.0000 0.11280  0.01290  0.60424  Biso   1.000  C
  C12      1.0000 0.88720  0.98710  0.10424  Biso   1.000  C
  C13      1.0000 0.98710  0.88720  0.89576  Biso   1.000  C
  C14      1.0000 0.01290  0.11280  0.39576  Biso   1.000  C
  C15      1.0000 0.38720  0.51290  0.14576  Biso   1.000  C
  C16      1.0000 0.61280  0.48710  0.64576  Biso   1.000  C
  H57      1.0000 0.49770  0.31110  0.83950  Biso   1.000  H
  H58      1.0000 0.50230  0.68890  0.33950  Biso   1.000  H
  H59      1.0000 0.18890  0.99770  0.58950  Biso   1.000  H
  H60      1.0000 0.81110  0.00230  0.08950  Biso   1.000  H
  H61      1.0000 0.00230  0.81110  0.91050  Biso   1.000  H
  H62      1.0000 0.99770  0.18890  0.41050  Biso   1.000  H
  H63      1.0000 0.31110  0.49770  0.16050  Biso   1.000  H
  H64      1.0000 0.68890  0.50230  0.66050  Biso   1.000  H
  C17      1.0000 0.55850  0.58840  0.84807  Biso   1.000  C
  C18      1.0000 0.44150  0.41160  0.34807  Biso   1.000  C
  C19      1.0000 0.91160  0.05850  0.59807  Biso   1.000  C
  C20      1.0000 0.08840  0.94150  0.09807  Biso   1.000  C
  C21      1.0000 0.94150  0.08840  0.90193  Biso   1.000  C
  C22      1.0000 0.05850  0.91160  0.40193  Biso   1.000  C
  C23      1.0000 0.58840  0.55850  0.15193  Biso   1.000  C
  C24      1.0000 0.41160  0.44150  0.65193  Biso   1.000  C
  H65      1.0000 0.57380  0.65830  0.82900  Biso   1.000  H
  H66      1.0000 0.42620  0.34170  0.32900  Biso   1.000  H
  H67      1.0000 0.84170  0.07380  0.57900  Biso   1.000  H
  H68      1.0000 0.15830  0.92620  0.07900  Biso   1.000  H
  H69      1.0000 0.92620  0.15830  0.92100  Biso   1.000  H
  H70      1.0000 0.07380  0.84170  0.42100  Biso   1.000  H
  H71      1.0000 0.65830  0.57380  0.17100  Biso   1.000  H
  H72      1.0000 0.34170  0.42620  0.67100  Biso   1.000  H
  C25      1.0000 0.56140  0.59800  0.89911  Biso   1.000  C
  C26      1.0000 0.43860  0.40200  0.39911  Biso   1.000  C
  C27      1.0000 0.90200  0.06140  0.64911  Biso   1.000  C
  C28      1.0000 0.09800  0.93860  0.14911  Biso   1.000  C
  C29      1.0000 0.93860  0.09800  0.85089  Biso   1.000  C
  C30      1.0000 0.06140  0.90200  0.35089  Biso   1.000  C
  C31      1.0000 0.59800  0.56140  0.10089  Biso   1.000  C
  C32      1.0000 0.40200  0.43860  0.60089  Biso   1.000  C
  C33      1.0000 0.66220  0.72080  0.96204  Biso   1.000  C
  C34      1.0000 0.33780  0.27920  0.46204  Biso   1.000  C
  C35      1.0000 0.77920  0.16220  0.71204  Biso   1.000  C
  C36      1.0000 0.22080  0.83780  0.21204  Biso   1.000  C
  C37      1.0000 0.83780  0.22080  0.78796  Biso   1.000  C
  C38      1.0000 0.16220  0.77920  0.28796  Biso   1.000  C
  C39      1.0000 0.72080  0.66220  0.03796  Biso   1.000  C
  C40      1.0000 0.27920  0.33780  0.53796  Biso   1.000  C
  C41      1.0000 0.74770  0.81230  0.96293  Biso   1.000  C
  C42      1.0000 0.25230  0.18770  0.46293  Biso   1.000  C
  C43      1.0000 0.68770  0.24770  0.71293  Biso   1.000  C
  C44      1.0000 0.31230  0.75230  0.21293  Biso   1.000  C
  C45      1.0000 0.75230  0.31230  0.78707  Biso   1.000  C
  C46      1.0000 0.24770  0.68770  0.28707  Biso   1.000  C
  C47      1.0000 0.81230  0.74770  0.03707  Biso   1.000  C
  C48      1.0000 0.18770  0.25230  0.53707  Biso   1.000  C
  H73      1.0000 0.86750  0.75170  0.06350  Biso   1.000  H
  H74      1.0000 0.13250  0.24830  0.56350  Biso   1.000  H
  H75      1.0000 0.74830  0.36750  0.81350  Biso   1.000  H
  H76      1.0000 0.25170  0.63250  0.31350  Biso   1.000  H
  H77      1.0000 0.63250  0.25170  0.68650  Biso   1.000  H
  H78      1.0000 0.36750  0.74830  0.18650  Biso   1.000  H
  H79      1.0000 0.75170  0.86750  0.93650  Biso   1.000  H
  H80      1.0000 0.24830  0.13250  0.43650  Biso   1.000  H
  Cl1      1.0000 0.14354  0.27114  0.12028  Biso   1.000  Cl
  Cl2      1.0000 0.85646  0.72886  0.62028  Biso   1.000  Cl
  Cl3      1.0000 0.22886  0.64354  0.87028  Biso   1.000  Cl
  Cl4      1.0000 0.77114  0.35646  0.37028  Biso   1.000  Cl
  Cl5      1.0000 0.35646  0.77114  0.62972  Biso   1.000  Cl
  Cl6      1.0000 0.64354  0.22886  0.12972  Biso   1.000  Cl
  Cl7      1.0000 0.27114  0.14354  0.87972  Biso   1.000  Cl
  Cl8      1.0000 0.72886  0.85646  0.37972  Biso   1.000  Cl
  O25      1.0000 0.22170  0.17550  0.11000  Biso   1.000  O
  O26      1.0000 0.77830  0.82450  0.61000  Biso   1.000  O
  O27      1.0000 0.32450  0.72170  0.86000  Biso   1.000  O
  O28      1.0000 0.67550  0.27830  0.36000  Biso   1.000  O
  O29      1.0000 0.27830  0.67550  0.64000  Biso   1.000  O
  O30      1.0000 0.72170  0.32450  0.14000  Biso   1.000  O
  O31      1.0000 0.17550  0.22170  0.89000  Biso   1.000  O
  O32      1.0000 0.82450  0.77830  0.39000  Biso   1.000  O
  O33      1.0000 0.17500  0.32060  0.16653  Biso   1.000  O
  O34      1.0000 0.82500  0.67940  0.66653  Biso   1.000  O
  O35      1.0000 0.17940  0.67500  0.91653  Biso   1.000  O
  O36      1.0000 0.82060  0.32500  0.41653  Biso   1.000  O
  O37      1.0000 0.32500  0.82060  0.58347  Biso   1.000  O
  O38      1.0000 0.67500  0.17940  0.08347  Biso   1.000  O
  O39      1.0000 0.32060  0.17500  0.83347  Biso   1.000  O
  O40      1.0000 0.67940  0.82500  0.33347  Biso   1.000  O
  O41      1.0000 0.15620  0.36360  0.08542  Biso   1.000  O
  O42      1.0000 0.84380  0.63640  0.58542  Biso   1.000  O
  O43      1.0000 0.13640  0.65620  0.83542  Biso   1.000  O
  O44      1.0000 0.86360  0.34380  0.33542  Biso   1.000  O
  O45      1.0000 0.34380  0.86360  0.66458  Biso   1.000  O
  O46      1.0000 0.65620  0.13640  0.16458  Biso   1.000  O
  O47      1.0000 0.36360  0.15620  0.91458  Biso   1.000  O
  O48      1.0000 0.63640  0.84380  0.41458  Biso   1.000  O
  O49      1.0000 0.02270  0.22790  0.12246  Biso   1.000  O
  O50      1.0000 0.97730  0.77210  0.62246  Biso   1.000  O
  O51      1.0000 0.27210  0.52270  0.87246  Biso   1.000  O
  O52      1.0000 0.72790  0.47730  0.37246  Biso   1.000  O
  O53      1.0000 0.47730  0.72790  0.62754  Biso   1.000  O
  O54      1.0000 0.52270  0.27210  0.12754  Biso   1.000  O
  O55      1.0000 0.22790  0.02270  0.87754  Biso   1.000  O
  O56      1.0000 0.77210  0.97730  0.37754  Biso   1.000  O
  Cl9      1.0000 0.48195  0.87921  0.09133  Biso   1.000  Cl
  Cl10     1.0000 0.51805  0.12079  0.59133  Biso   1.000  Cl
  Cl11     1.0000 0.62079  0.98195  0.84133  Biso   1.000  Cl
  Cl12     1.0000 0.37921  0.01805  0.34133  Biso   1.000  Cl
  Cl13     1.0000 0.01805  0.37921  0.65867  Biso   1.000  Cl
  Cl14     1.0000 0.98195  0.62079  0.15867  Biso   1.000  Cl
  Cl15     1.0000 0.87921  0.48195  0.90867  Biso   1.000  Cl
  Cl16     1.0000 0.12079  0.51805  0.40867  Biso   1.000  Cl
  O57      1.0000 0.52450  0.89220  0.04333  Biso   1.000  O
  O58      1.0000 0.47550  0.10780  0.54333  Biso   1.000  O
  O59      1.0000 0.60780  0.02450  0.79333  Biso   1.000  O
  O60      1.0000 0.39220  0.97550  0.29333  Biso   1.000  O
  O61      1.0000 0.97550  0.39220  0.70667  Biso   1.000  O
  O62      1.0000 0.02450  0.60780  0.20667  Biso   1.000  O
  O63      1.0000 0.89220  0.52450  0.95667  Biso   1.000  O
  O64      1.0000 0.10780  0.47550  0.45667  Biso   1.000  O
  O65      1.0000 0.38510  0.79420  0.09212  Biso   1.000  O
  O66      1.0000 0.61490  0.20580  0.59212  Biso   1.000  O
  O67      1.0000 0.70580  0.88510  0.84212  Biso   1.000  O
  O68      1.0000 0.29420  0.11490  0.34212  Biso   1.000  O
  O69      1.0000 0.11490  0.29420  0.65788  Biso   1.000  O
  O70      1.0000 0.88510  0.70580  0.15788  Biso   1.000  O
  O71      1.0000 0.79420  0.38510  0.90788  Biso   1.000  O
  O72      1.0000 0.20580  0.61490  0.40788  Biso   1.000  O
  O73      1.0000 0.43480  0.98950  0.11015  Biso   1.000  O
  O74      1.0000 0.56520  0.01050  0.61015  Biso   1.000  O
  O75      1.0000 0.51050  0.93480  0.86015  Biso   1.000  O
  O76      1.0000 0.48950  0.06520  0.36015  Biso   1.000  O
  O77      1.0000 0.06520  0.48950  0.63985  Biso   1.000  O
  O78      1.0000 0.93480  0.51050  0.13985  Biso   1.000  O
  O79      1.0000 0.98950  0.43480  0.88985  Biso   1.000  O
  O80      1.0000 0.01050  0.56520  0.38985  Biso   1.000  O
  O81      1.0000 0.57670  0.83390  0.12093  Biso   1.000  O
  O82      1.0000 0.42330  0.16610  0.62093  Biso   1.000  O
  O83      1.0000 0.66610  0.07670  0.87093  Biso   1.000  O
  O84      1.0000 0.33390  0.92330  0.37093  Biso   1.000  O
  O85      1.0000 0.92330  0.33390  0.62907  Biso   1.000  O
  O86      1.0000 0.07670  0.66610  0.12907  Biso   1.000  O
  O87      1.0000 0.83390  0.57670  0.87907  Biso   1.000  O
  O88      1.0000 0.16610  0.42330  0.37907  Biso   1.000  O
  O89      1.0000 0.41270  0.17240  0.21491  Biso   1.000  O
  O90      1.0000 0.58730  0.82760  0.71491  Biso   1.000  O
  O91      1.0000 0.32760  0.91270  0.96491  Biso   1.000  O
  O92      1.0000 0.67240  0.08730  0.46491  Biso   1.000  O
  O93      1.0000 0.08730  0.67240  0.53509  Biso   1.000  O
  O94      1.0000 0.91270  0.32760  0.03509  Biso   1.000  O
  O95      1.0000 0.17240  0.41270  0.78509  Biso   1.000  O
  O96      1.0000 0.82760  0.58730  0.28509  Biso   1.000  O
  H81      1.0000 0.33680  0.15060  0.21140  Biso   1.000  H
  H82      1.0000 0.66320  0.84940  0.71140  Biso   1.000  H
  H83      1.0000 0.34940  0.83680  0.96140  Biso   1.000  H
  H84      1.0000 0.65060  0.16320  0.46140  Biso   1.000  H
  H85      1.0000 0.16320  0.65060  0.53860  Biso   1.000  H
  H86      1.0000 0.83680  0.34940  0.03860  Biso   1.000  H
  H87      1.0000 0.15060  0.33680  0.78860  Biso   1.000  H
  H88      1.0000 0.84940  0.66320  0.28860  Biso   1.000  H
  H89      1.0000 0.47040  0.12020  0.20220  Biso   1.000  H
  H90      1.0000 0.52960  0.87980  0.70220  Biso   1.000  H
  H91      1.0000 0.37980  0.97040  0.95220  Biso   1.000  H
  H92      1.0000 0.62020  0.02960  0.45220  Biso   1.000  H
  H93      1.0000 0.02960  0.62020  0.54780  Biso   1.000  H
  H94      1.0000 0.97040  0.37980  0.04780  Biso   1.000  H
  H95      1.0000 0.12020  0.47040  0.79780  Biso   1.000  H
  H96      1.0000 0.87980  0.52960  0.29780  Biso   1.000  H
  O97      1.0000 0.41640  0.15680  0.02540  Biso   1.000  O
  O98      1.0000 0.58360  0.84320  0.52540  Biso   1.000  O
  O99      1.0000 0.34320  0.91640  0.77540  Biso   1.000  O
  O100     1.0000 0.65680  0.08360  0.27540  Biso   1.000  O
  O101     1.0000 0.08360  0.65680  0.72460  Biso   1.000  O
  O102     1.0000 0.91640  0.34320  0.22460  Biso   1.000  O
  O103     1.0000 0.15680  0.41640  0.97460  Biso   1.000  O
  O104     1.0000 0.84320  0.58360  0.47460  Biso   1.000  O
  H97      1.0000 0.33720  0.13820  0.03010  Biso   1.000  H
  H98      1.0000 0.66280  0.86180  0.53010  Biso   1.000  H
  H99      1.0000 0.36180  0.83720  0.78010  Biso   1.000  H
  H100     1.0000 0.63820  0.16280  0.28010  Biso   1.000  H
  H101     1.0000 0.16280  0.63820  0.71990  Biso   1.000  H
  H102     1.0000 0.83720  0.36180  0.21990  Biso   1.000  H
  H103     1.0000 0.13820  0.33720  0.96990  Biso   1.000  H
  H104     1.0000 0.86180  0.66280  0.46990  Biso   1.000  H
  H105     1.0000 0.45420  0.17220  0.05380  Biso   1.000  H
  H106     1.0000 0.54580  0.82780  0.55380  Biso   1.000  H
  H107     1.0000 0.32780  0.95420  0.80380  Biso   1.000  H
  H108     1.0000 0.67220  0.04580  0.30380  Biso   1.000  H
  H109     1.0000 0.04580  0.67220  0.69620  Biso   1.000  H
  H110     1.0000 0.95420  0.32780  0.19620  Biso   1.000  H
  H111     1.0000 0.17220  0.45420  0.94620  Biso   1.000  H
  H112     1.0000 0.82780  0.54580  0.44620  Biso   1.000  H
  O105     1.0000 0.61220  0.87500  0.22212  Biso   1.000  O
  O106     1.0000 0.38780  0.12500  0.72212  Biso   1.000  O
  O107     1.0000 0.62500  0.11220  0.97212  Biso   1.000  O
  O108     1.0000 0.37500  0.88780  0.47212  Biso   1.000  O
  O109     1.0000 0.88780  0.37500  0.52788  Biso   1.000  O
  O110     1.0000 0.11220  0.62500  0.02788  Biso   1.000  O
  O111     1.0000 0.87500  0.61220  0.77788  Biso   1.000  O
  O112     1.0000 0.12500  0.38780  0.27788  Biso   1.000  O
  H113     1.0000 0.55380  0.89630  0.20070  Biso   1.000  H
  H114     1.0000 0.44620  0.10370  0.70070  Biso   1.000  H
  H115     1.0000 0.60370  0.05380  0.95070  Biso   1.000  H
  H116     1.0000 0.39630  0.94620  0.45070  Biso   1.000  H
  H117     1.0000 0.94620  0.39630  0.54930  Biso   1.000  H
  H118     1.0000 0.05380  0.60370  0.04930  Biso   1.000  H
  H119     1.0000 0.89630  0.55380  0.79930  Biso   1.000  H
  H120     1.0000 0.10370  0.44620  0.29930  Biso   1.000  H
  H121     1.0000 0.61380  0.91410  0.25170  Biso   1.000  H
  H122     1.0000 0.38620  0.08590  0.75170  Biso   1.000  H
  H123     1.0000 0.58590  0.11380  0.00170  Biso   1.000  H
  H124     1.0000 0.41410  0.88620  0.50170  Biso   1.000  H
  H125     1.0000 0.88620  0.41410  0.49830  Biso   1.000  H
  H126     1.0000 0.11380  0.58590  0.99830  Biso   1.000  H
  H127     1.0000 0.91410  0.61380  0.74830  Biso   1.000  H
  H128     1.0000 0.08590  0.38620  0.24830  Biso   1.000  H
