data_image0
_cell_length_a       13.663
_cell_length_b       8.2483
_cell_length_c       19.875
_cell_angle_alpha    90
_cell_angle_beta     90
_cell_angle_gamma    90

_symmetry_space_group_name_H-M    "P 1"
_symmetry_int_tables_number       1

loop_
  _symmetry_equiv_pos_as_xyz
  'x, y, z'

loop_
  _atom_site_label
  _atom_site_occupancy
  _atom_site_fract_x
  _atom_site_fract_y
  _atom_site_fract_z
  _atom_site_thermal_displace_type
  _atom_site_B_iso_or_equiv
  _atom_site_type_symbol
  Cu1      1.0000 0.73489  0.74992  0.59854  Biso   1.000  Cu
  Cu2      1.0000 0.26511  0.25008  0.09854  Biso   1.000  Cu
  Cu3      1.0000 0.23489  0.75008  0.59854  Biso   1.000  Cu
  Cu4      1.0000 0.76511  0.24992  0.09854  Biso   1.000  Cu
  O1       1.0000 0.73190  0.95220  0.51538  Biso   1.000  O
  O2       1.0000 0.26810  0.04780  0.01538  Biso   1.000  O
  O3       1.0000 0.23190  0.54780  0.51538  Biso   1.000  O
  O4       1.0000 0.76810  0.45220  0.01538  Biso   1.000  O
  H1       1.0000 0.76800  0.03740  0.52910  Biso   1.000  H
  H2       1.0000 0.23200  0.96260  0.02910  Biso   1.000  H
  H3       1.0000 0.26800  0.46260  0.52910  Biso   1.000  H
  H4       1.0000 0.73200  0.53740  0.02910  Biso   1.000  H
  H5       1.0000 0.76430  0.90530  0.48110  Biso   1.000  H
  H6       1.0000 0.23570  0.09470  0.98110  Biso   1.000  H
  H7       1.0000 0.26430  0.59470  0.48110  Biso   1.000  H
  H8       1.0000 0.73570  0.40530  0.98110  Biso   1.000  H
  O5       1.0000 0.74230  0.53930  0.68645  Biso   1.000  O
  O6       1.0000 0.25770  0.46070  0.18645  Biso   1.000  O
  O7       1.0000 0.24230  0.96070  0.68645  Biso   1.000  O
  O8       1.0000 0.75770  0.03930  0.18645  Biso   1.000  O
  H9       1.0000 0.76630  0.44410  0.67090  Biso   1.000  H
  H10      1.0000 0.23370  0.55590  0.17090  Biso   1.000  H
  H11      1.0000 0.26630  0.05590  0.67090  Biso   1.000  H
  H12      1.0000 0.73370  0.94410  0.17090  Biso   1.000  H
  H13      1.0000 0.75870  0.54460  0.73030  Biso   1.000  H
  H14      1.0000 0.24130  0.45540  0.23030  Biso   1.000  H
  H15      1.0000 0.25870  0.95540  0.73030  Biso   1.000  H
  H16      1.0000 0.74130  0.04460  0.23030  Biso   1.000  H
  N1       1.0000 0.73820  0.56990  0.53178  Biso   1.000  N
  N2       1.0000 0.26180  0.43010  0.03178  Biso   1.000  N
  N3       1.0000 0.23820  0.93010  0.53178  Biso   1.000  N
  N4       1.0000 0.76180  0.06990  0.03178  Biso   1.000  N
  N5       1.0000 0.88590  0.66670  0.48536  Biso   1.000  N
  N6       1.0000 0.11410  0.33330  0.98536  Biso   1.000  N
  N7       1.0000 0.38590  0.83330  0.48536  Biso   1.000  N
  N8       1.0000 0.61410  0.16670  0.98536  Biso   1.000  N
  H17      1.0000 0.90880  0.70260  0.44680  Biso   1.000  H
  H18      1.0000 0.09120  0.29740  0.94680  Biso   1.000  H
  H19      1.0000 0.40880  0.79740  0.44680  Biso   1.000  H
  H20      1.0000 0.59120  0.20260  0.94680  Biso   1.000  H
  N9       1.0000 0.88180  0.75330  0.59750  Biso   1.000  N
  N10      1.0000 0.11820  0.24670  0.09750  Biso   1.000  N
  N11      1.0000 0.38180  0.74670  0.59750  Biso   1.000  N
  N12      1.0000 0.61820  0.25330  0.09750  Biso   1.000  N
  N13      1.0000 0.88550  0.83980  0.71211  Biso   1.000  N
  N14      1.0000 0.11450  0.16020  0.21211  Biso   1.000  N
  N15      1.0000 0.38550  0.66020  0.71211  Biso   1.000  N
  N16      1.0000 0.61450  0.33980  0.21211  Biso   1.000  N
  H21      1.0000 0.91000  0.80480  0.75040  Biso   1.000  H
  H22      1.0000 0.09000  0.19520  0.25040  Biso   1.000  H
  H23      1.0000 0.41000  0.69520  0.75040  Biso   1.000  H
  H24      1.0000 0.59000  0.30480  0.25040  Biso   1.000  H
  N17      1.0000 0.73420  0.92920  0.66693  Biso   1.000  N
  N18      1.0000 0.26580  0.07080  0.16693  Biso   1.000  N
  N19      1.0000 0.23420  0.57080  0.66693  Biso   1.000  N
  N20      1.0000 0.76580  0.42920  0.16693  Biso   1.000  N
  N21      1.0000 0.08433  0.75660  0.59830  Biso   1.000  N
  N22      1.0000 0.91567  0.24340  0.09830  Biso   1.000  N
  N23      1.0000 0.58433  0.74340  0.59830  Biso   1.000  N
  N24      1.0000 0.41567  0.25660  0.09830  Biso   1.000  N
  C1       1.0000 0.66550  0.45540  0.53070  Biso   1.000  C
  C2       1.0000 0.33450  0.54460  0.03070  Biso   1.000  C
  C3       1.0000 0.16550  0.04460  0.53070  Biso   1.000  C
  C4       1.0000 0.83450  0.95540  0.03070  Biso   1.000  C
  H25      1.0000 0.61990  0.45410  0.56670  Biso   1.000  H
  H26      1.0000 0.38010  0.54590  0.06670  Biso   1.000  H
  H27      1.0000 0.11990  0.04590  0.56670  Biso   1.000  H
  H28      1.0000 0.88010  0.95410  0.06670  Biso   1.000  H
  C5       1.0000 0.65490  0.34310  0.48060  Biso   1.000  C
  C6       1.0000 0.34510  0.65690  0.98060  Biso   1.000  C
  C7       1.0000 0.15490  0.15690  0.48060  Biso   1.000  C
  C8       1.0000 0.84510  0.84310  0.98060  Biso   1.000  C
  H29      1.0000 0.60320  0.26610  0.48170  Biso   1.000  H
  H30      1.0000 0.39680  0.73390  0.98170  Biso   1.000  H
  H31      1.0000 0.10320  0.23390  0.48170  Biso   1.000  H
  H32      1.0000 0.89680  0.76610  0.98170  Biso   1.000  H
  C9       1.0000 0.72190  0.34490  0.42820  Biso   1.000  C
  C10      1.0000 0.27810  0.65510  0.92820  Biso   1.000  C
  C11      1.0000 0.22190  0.15510  0.42820  Biso   1.000  C
  C12      1.0000 0.77810  0.84490  0.92820  Biso   1.000  C
  H33      1.0000 0.71540  0.27060  0.39190  Biso   1.000  H
  H34      1.0000 0.28460  0.72940  0.89190  Biso   1.000  H
  H35      1.0000 0.21540  0.22940  0.39190  Biso   1.000  H
  H36      1.0000 0.78460  0.77060  0.89190  Biso   1.000  H
  C13      1.0000 0.79830  0.45500  0.42880  Biso   1.000  C
  C14      1.0000 0.20170  0.54500  0.92880  Biso   1.000  C
  C15      1.0000 0.29830  0.04500  0.42880  Biso   1.000  C
  C16      1.0000 0.70170  0.95500  0.92880  Biso   1.000  C
  H37      1.0000 0.84520  0.45700  0.39360  Biso   1.000  H
  H38      1.0000 0.15480  0.54300  0.89360  Biso   1.000  H
  H39      1.0000 0.34520  0.04300  0.39360  Biso   1.000  H
  H40      1.0000 0.65480  0.95700  0.89360  Biso   1.000  H
  C17      1.0000 0.80430  0.56340  0.48280  Biso   1.000  C
  C18      1.0000 0.19570  0.43660  0.98280  Biso   1.000  C
  C19      1.0000 0.30430  0.93660  0.48280  Biso   1.000  C
  C20      1.0000 0.69570  0.06340  0.98280  Biso   1.000  C
  C21      1.0000 0.93300  0.71670  0.54280  Biso   1.000  C
  C22      1.0000 0.06700  0.28330  0.04280  Biso   1.000  C
  C23      1.0000 0.43300  0.78330  0.54280  Biso   1.000  C
  C24      1.0000 0.56700  0.21670  0.04280  Biso   1.000  C
  C25      1.0000 0.03560  0.72310  0.54230  Biso   1.000  C
  C26      1.0000 0.96440  0.27690  0.04230  Biso   1.000  C
  C27      1.0000 0.53560  0.77690  0.54230  Biso   1.000  C
  C28      1.0000 0.46440  0.22310  0.04230  Biso   1.000  C
  H41      1.0000 0.07040  0.70350  0.50170  Biso   1.000  H
  H42      1.0000 0.92960  0.29650  0.00170  Biso   1.000  H
  H43      1.0000 0.57040  0.79650  0.50170  Biso   1.000  H
  H44      1.0000 0.42960  0.20350  0.00170  Biso   1.000  H
  C29      1.0000 0.03470  0.78960  0.65420  Biso   1.000  C
  C30      1.0000 0.96530  0.21040  0.15420  Biso   1.000  C
  C31      1.0000 0.53470  0.71040  0.65420  Biso   1.000  C
  C32      1.0000 0.46530  0.28960  0.15420  Biso   1.000  C
  H45      1.0000 0.06900  0.81080  0.69490  Biso   1.000  H
  H46      1.0000 0.93100  0.18920  0.19490  Biso   1.000  H
  H47      1.0000 0.56900  0.68920  0.69490  Biso   1.000  H
  H48      1.0000 0.43100  0.31080  0.19490  Biso   1.000  H
  C33      1.0000 0.93270  0.79320  0.65370  Biso   1.000  C
  C34      1.0000 0.06730  0.20680  0.15370  Biso   1.000  C
  C35      1.0000 0.43270  0.70680  0.65370  Biso   1.000  C
  C36      1.0000 0.56730  0.29320  0.15370  Biso   1.000  C
  C37      1.0000 0.80260  0.93740  0.71550  Biso   1.000  C
  C38      1.0000 0.19740  0.06260  0.21550  Biso   1.000  C
  C39      1.0000 0.30260  0.56260  0.71550  Biso   1.000  C
  C40      1.0000 0.69740  0.43740  0.21550  Biso   1.000  C
  C41      1.0000 0.79420  0.04460  0.76940  Biso   1.000  C
  C42      1.0000 0.20580  0.95540  0.26940  Biso   1.000  C
  C43      1.0000 0.29420  0.45540  0.76940  Biso   1.000  C
  C44      1.0000 0.70580  0.54460  0.26940  Biso   1.000  C
  H49      1.0000 0.84240  0.04690  0.80380  Biso   1.000  H
  H50      1.0000 0.15760  0.95310  0.30380  Biso   1.000  H
  H51      1.0000 0.34240  0.45310  0.80380  Biso   1.000  H
  H52      1.0000 0.65760  0.54690  0.30380  Biso   1.000  H
  C45      1.0000 0.71420  0.14780  0.77190  Biso   1.000  C
  C46      1.0000 0.28580  0.85220  0.27190  Biso   1.000  C
  C47      1.0000 0.21420  0.35220  0.77190  Biso   1.000  C
  C48      1.0000 0.78580  0.64780  0.27190  Biso   1.000  C
  H53      1.0000 0.70530  0.21890  0.80900  Biso   1.000  H
  H54      1.0000 0.29470  0.78110  0.30900  Biso   1.000  H
  H55      1.0000 0.20530  0.28110  0.80900  Biso   1.000  H
  H56      1.0000 0.79470  0.71890  0.30900  Biso   1.000  H
  C49      1.0000 0.64790  0.14570  0.71950  Biso   1.000  C
  C50      1.0000 0.35210  0.85430  0.21950  Biso   1.000  C
  C51      1.0000 0.14790  0.35430  0.71950  Biso   1.000  C
  C52      1.0000 0.85210  0.64570  0.21950  Biso   1.000  C
  H57      1.0000 0.59420  0.21890  0.71900  Biso   1.000  H
  H58      1.0000 0.40580  0.78110  0.21900  Biso   1.000  H
  H59      1.0000 0.09420  0.28110  0.71900  Biso   1.000  H
  H60      1.0000 0.90580  0.71890  0.21900  Biso   1.000  H
  C53      1.0000 0.66080  0.03620  0.66830  Biso   1.000  C
  C54      1.0000 0.33920  0.96380  0.16830  Biso   1.000  C
  C55      1.0000 0.16080  0.46380  0.66830  Biso   1.000  C
  C56      1.0000 0.83920  0.53620  0.16830  Biso   1.000  C
  H61      1.0000 0.61540  0.03650  0.63210  Biso   1.000  H
  H62      1.0000 0.38460  0.96350  0.13210  Biso   1.000  H
  H63      1.0000 0.11540  0.46350  0.63210  Biso   1.000  H
  H64      1.0000 0.88460  0.53650  0.13210  Biso   1.000  H
  Cl1      1.0000 0.91061  0.43384  0.85237  Biso   1.000  Cl
  Cl2      1.0000 0.08939  0.56616  0.35237  Biso   1.000  Cl
  Cl3      1.0000 0.41061  0.06616  0.85237  Biso   1.000  Cl
  Cl4      1.0000 0.58939  0.93384  0.35237  Biso   1.000  Cl
  O9       1.0000 0.96090  0.54780  0.89508  Biso   1.000  O
  O10      1.0000 0.03910  0.45220  0.39508  Biso   1.000  O
  O11      1.0000 0.46090  0.95220  0.89508  Biso   1.000  O
  O12      1.0000 0.53910  0.04780  0.39508  Biso   1.000  O
  O13      1.0000 0.90980  0.48890  0.78560  Biso   1.000  O
  O14      1.0000 0.09020  0.51110  0.28560  Biso   1.000  O
  O15      1.0000 0.40980  0.01110  0.78560  Biso   1.000  O
  O16      1.0000 0.59020  0.98890  0.28560  Biso   1.000  O
  O17      1.0000 0.81820  0.40500  0.87940  Biso   1.000  O
  O18      1.0000 0.18180  0.59500  0.37940  Biso   1.000  O
  O19      1.0000 0.31820  0.09500  0.87940  Biso   1.000  O
  O20      1.0000 0.68180  0.90500  0.37940  Biso   1.000  O
  O21      1.0000 0.97520  0.30010  0.85880  Biso   1.000  O
  O22      1.0000 0.02480  0.69990  0.35880  Biso   1.000  O
  O23      1.0000 0.47520  0.19990  0.85880  Biso   1.000  O
  O24      1.0000 0.52480  0.80010  0.35880  Biso   1.000  O
  O25      1.0000 0.83940  0.54670  0.81760  Biso   1.000  O
  O26      1.0000 0.16060  0.45330  0.31760  Biso   1.000  O
  O27      1.0000 0.33940  0.95330  0.81760  Biso   1.000  O
  O28      1.0000 0.66060  0.04670  0.31760  Biso   1.000  O
  O29      1.0000 0.83900  0.32600  0.88890  Biso   1.000  O
  O30      1.0000 0.16100  0.67400  0.38890  Biso   1.000  O
  O31      1.0000 0.33900  0.17400  0.88890  Biso   1.000  O
  O32      1.0000 0.66100  0.82600  0.38890  Biso   1.000  O
  O33      1.0000 0.94570  0.32650  0.80010  Biso   1.000  O
  O34      1.0000 0.05430  0.67350  0.30010  Biso   1.000  O
  O35      1.0000 0.44570  0.17350  0.80010  Biso   1.000  O
  O36      1.0000 0.55430  0.82650  0.30010  Biso   1.000  O
  Cl5      1.0000 0.41821  0.26884  0.59024  Biso   1.000  Cl
  Cl6      1.0000 0.58179  0.73116  0.09024  Biso   1.000  Cl
  Cl7      1.0000 0.91821  0.23116  0.59024  Biso   1.000  Cl
  Cl8      1.0000 0.08179  0.76884  0.09024  Biso   1.000  Cl
  O37      1.0000 0.46570  0.12070  0.57210  Biso   1.000  O
  O38      1.0000 0.53430  0.87930  0.07210  Biso   1.000  O
  O39      1.0000 0.96570  0.37930  0.57210  Biso   1.000  O
  O40      1.0000 0.03430  0.62070  0.07210  Biso   1.000  O
  O41      1.0000 0.32080  0.23860  0.61421  Biso   1.000  O
  O42      1.0000 0.67920  0.76140  0.11421  Biso   1.000  O
  O43      1.0000 0.82080  0.26140  0.61421  Biso   1.000  O
  O44      1.0000 0.17920  0.73860  0.11421  Biso   1.000  O
  O45      1.0000 0.41190  0.37360  0.53158  Biso   1.000  O
  O46      1.0000 0.58810  0.62640  0.03158  Biso   1.000  O
  O47      1.0000 0.91190  0.12640  0.53158  Biso   1.000  O
  O48      1.0000 0.08810  0.87360  0.03158  Biso   1.000  O
  O49      1.0000 0.47340  0.35170  0.64009  Biso   1.000  O
  O50      1.0000 0.52660  0.64830  0.14009  Biso   1.000  O
  O51      1.0000 0.97340  0.14830  0.64009  Biso   1.000  O
  O52      1.0000 0.02660  0.85170  0.14009  Biso   1.000  O
  O53      1.0000 0.01210  0.83910  0.82372  Biso   1.000  O
  O54      1.0000 0.98790  0.16090  0.32372  Biso   1.000  O
  O55      1.0000 0.51210  0.66090  0.82372  Biso   1.000  O
  O56      1.0000 0.48790  0.33910  0.32372  Biso   1.000  O
  H65      1.0000 0.00480  0.75670  0.84800  Biso   1.000  H
  H66      1.0000 0.99520  0.24330  0.34800  Biso   1.000  H
  H67      1.0000 0.50480  0.74330  0.84800  Biso   1.000  H
  H68      1.0000 0.49520  0.25670  0.34800  Biso   1.000  H
  C57      1.0000 0.07410  0.94780  0.85550  Biso   1.000  C
  C58      1.0000 0.92590  0.05220  0.35550  Biso   1.000  C
  C59      1.0000 0.57410  0.55220  0.85550  Biso   1.000  C
  C60      1.0000 0.42590  0.44780  0.35550  Biso   1.000  C
  H69      1.0000 0.06590  0.05560  0.83550  Biso   1.000  H
  H70      1.0000 0.93410  0.94440  0.33550  Biso   1.000  H
  H71      1.0000 0.56590  0.44440  0.83550  Biso   1.000  H
  H72      1.0000 0.43410  0.55560  0.33550  Biso   1.000  H
  H73      1.0000 0.14200  0.91220  0.84990  Biso   1.000  H
  H74      1.0000 0.85800  0.08780  0.34990  Biso   1.000  H
  H75      1.0000 0.64200  0.58780  0.84990  Biso   1.000  H
  H76      1.0000 0.35800  0.41220  0.34990  Biso   1.000  H
  H77      1.0000 0.05810  0.95250  0.90350  Biso   1.000  H
  H78      1.0000 0.94190  0.04750  0.40350  Biso   1.000  H
  H79      1.0000 0.55810  0.54750  0.90350  Biso   1.000  H
  H80      1.0000 0.44190  0.45250  0.40350  Biso   1.000  H
