data_image0
_cell_length_a       8.2348
_cell_length_b       27.2322
_cell_length_c       20.547
_cell_angle_alpha    90
_cell_angle_beta     94.5252
_cell_angle_gamma    90

_symmetry_space_group_name_H-M    "P 1"
_symmetry_int_tables_number       1

loop_
  _symmetry_equiv_pos_as_xyz
  'x, y, z'

loop_
  _atom_site_label
  _atom_site_occupancy
  _atom_site_fract_x
  _atom_site_fract_y
  _atom_site_fract_z
  _atom_site_thermal_displace_type
  _atom_site_B_iso_or_equiv
  _atom_site_type_symbol
  Cu1      1.0000 0.76198  0.48860  0.74217  Biso   1.000  Cu
  Cu2      1.0000 0.73802  0.98860  0.75783  Biso   1.000  Cu
  Cu3      1.0000 0.23802  0.51140  0.25783  Biso   1.000  Cu
  Cu4      1.0000 0.26198  0.01140  0.24217  Biso   1.000  Cu
  Cu5      1.0000 0.74927  0.23830  0.73960  Biso   1.000  Cu
  Cu6      1.0000 0.75073  0.73830  0.76040  Biso   1.000  Cu
  Cu7      1.0000 0.25073  0.76170  0.26040  Biso   1.000  Cu
  Cu8      1.0000 0.24927  0.26170  0.23960  Biso   1.000  Cu
  O1       1.0000 0.54420  0.49209  0.66400  Biso   1.000  O
  O2       1.0000 0.95580  0.99209  0.83600  Biso   1.000  O
  O3       1.0000 0.45580  0.50791  0.33600  Biso   1.000  O
  O4       1.0000 0.04420  0.00791  0.16400  Biso   1.000  O
  H1       1.0000 0.55950  0.49120  0.61660  Biso   1.000  H
  H2       1.0000 0.94050  0.99120  0.88340  Biso   1.000  H
  H3       1.0000 0.44050  0.50880  0.38340  Biso   1.000  H
  H4       1.0000 0.05950  0.00880  0.11660  Biso   1.000  H
  H5       1.0000 0.46300  0.51870  0.66800  Biso   1.000  H
  H6       1.0000 0.03700  0.01870  0.83200  Biso   1.000  H
  H7       1.0000 0.53700  0.48130  0.33200  Biso   1.000  H
  H8       1.0000 0.96300  0.98130  0.16800  Biso   1.000  H
  O5       1.0000 0.94050  0.23506  0.66123  Biso   1.000  O
  O6       1.0000 0.55950  0.73506  0.83877  Biso   1.000  O
  O7       1.0000 0.05950  0.76494  0.33877  Biso   1.000  O
  O8       1.0000 0.44050  0.26494  0.16123  Biso   1.000  O
  H9       1.0000 0.02290  0.26180  0.66610  Biso   1.000  H
  H10      1.0000 0.47710  0.76180  0.83390  Biso   1.000  H
  H11      1.0000 0.97710  0.73820  0.33390  Biso   1.000  H
  H12      1.0000 0.52290  0.23820  0.16610  Biso   1.000  H
  H13      1.0000 0.92690  0.23380  0.61240  Biso   1.000  H
  H14      1.0000 0.57310  0.73380  0.88760  Biso   1.000  H
  H15      1.0000 0.07310  0.76620  0.38760  Biso   1.000  H
  H16      1.0000 0.42690  0.26620  0.11240  Biso   1.000  H
  N1       1.0000 0.56300  0.99272  0.81920  Biso   1.000  N
  N2       1.0000 0.93700  0.49272  0.68080  Biso   1.000  N
  N3       1.0000 0.43700  0.00728  0.18080  Biso   1.000  N
  N4       1.0000 0.06300  0.50728  0.31920  Biso   1.000  N
  N5       1.0000 0.66170  0.06868  0.86028  Biso   1.000  N
  N6       1.0000 0.83830  0.56868  0.63972  Biso   1.000  N
  N7       1.0000 0.33830  0.93132  0.13972  Biso   1.000  N
  N8       1.0000 0.16170  0.43132  0.36028  Biso   1.000  N
  H17      1.0000 0.69900  0.08280  0.89700  Biso   1.000  H
  H18      1.0000 0.80100  0.58280  0.60300  Biso   1.000  H
  H19      1.0000 0.30100  0.91720  0.10300  Biso   1.000  H
  H20      1.0000 0.19900  0.41720  0.39700  Biso   1.000  H
  N9       1.0000 0.73760  0.06175  0.75169  Biso   1.000  N
  N10      1.0000 0.76240  0.56175  0.74831  Biso   1.000  N
  N11      1.0000 0.26240  0.93825  0.24831  Biso   1.000  N
  N12      1.0000 0.23760  0.43825  0.25169  Biso   1.000  N
  N13      1.0000 0.81360  0.06053  0.64251  Biso   1.000  N
  N14      1.0000 0.68640  0.56053  0.85749  Biso   1.000  N
  N15      1.0000 0.18640  0.93947  0.35749  Biso   1.000  N
  N16      1.0000 0.31360  0.43947  0.14251  Biso   1.000  N
  H21      1.0000 0.78620  0.07450  0.60460  Biso   1.000  H
  H22      1.0000 0.71380  0.57450  0.89540  Biso   1.000  H
  H23      1.0000 0.21380  0.92550  0.39540  Biso   1.000  H
  H24      1.0000 0.28620  0.42550  0.10460  Biso   1.000  H
  N17      1.0000 0.90260  0.98602  0.69174  Biso   1.000  N
  N18      1.0000 0.59740  0.48602  0.80826  Biso   1.000  N
  N19      1.0000 0.09740  0.01398  0.30826  Biso   1.000  N
  N20      1.0000 0.40260  0.51398  0.19174  Biso   1.000  N
  N21      1.0000 0.48260  0.02682  0.91870  Biso   1.000  N
  N22      1.0000 0.01740  0.52682  0.58130  Biso   1.000  N
  N23      1.0000 0.51740  0.97318  0.08130  Biso   1.000  N
  N24      1.0000 0.98260  0.47318  0.41870  Biso   1.000  N
  N25      1.0000 0.73490  0.16378  0.74497  Biso   1.000  N
  N26      1.0000 0.76510  0.66378  0.75503  Biso   1.000  N
  N27      1.0000 0.26510  0.83622  0.25503  Biso   1.000  N
  N28      1.0000 0.23490  0.33622  0.24497  Biso   1.000  N
  N29      1.0000 0.95960  0.00814  0.58370  Biso   1.000  N
  N30      1.0000 0.54040  0.50814  0.91630  Biso   1.000  N
  N31      1.0000 0.04040  0.99186  0.41630  Biso   1.000  N
  N32      1.0000 0.45960  0.49186  0.08370  Biso   1.000  N
  N33      1.0000 0.93300  0.23657  0.80930  Biso   1.000  N
  N34      1.0000 0.56700  0.73657  0.69070  Biso   1.000  N
  N35      1.0000 0.06700  0.76343  0.19070  Biso   1.000  N
  N36      1.0000 0.43300  0.26343  0.30930  Biso   1.000  N
  N37      1.0000 0.85970  0.31313  0.85130  Biso   1.000  N
  N38      1.0000 0.64030  0.81313  0.64870  Biso   1.000  N
  N39      1.0000 0.14030  0.68687  0.14870  Biso   1.000  N
  N40      1.0000 0.35970  0.18687  0.35130  Biso   1.000  N
  H25      1.0000 0.83980  0.32840  0.88760  Biso   1.000  H
  H26      1.0000 0.66020  0.82840  0.61240  Biso   1.000  H
  H27      1.0000 0.16020  0.67160  0.11240  Biso   1.000  H
  H28      1.0000 0.33980  0.17160  0.38760  Biso   1.000  H
  N41      1.0000 0.76090  0.31178  0.73974  Biso   1.000  N
  N42      1.0000 0.73910  0.81178  0.76026  Biso   1.000  N
  N43      1.0000 0.23910  0.68822  0.26026  Biso   1.000  N
  N44      1.0000 0.26090  0.18822  0.23974  Biso   1.000  N
  N45      1.0000 0.65870  0.31514  0.62905  Biso   1.000  N
  N46      1.0000 0.84130  0.81514  0.87095  Biso   1.000  N
  N47      1.0000 0.34130  0.68486  0.37095  Biso   1.000  N
  N48      1.0000 0.15870  0.18486  0.12905  Biso   1.000  N
  H29      1.0000 0.69170  0.32660  0.59230  Biso   1.000  H
  H30      1.0000 0.80830  0.82660  0.90770  Biso   1.000  H
  H31      1.0000 0.30830  0.67340  0.40770  Biso   1.000  H
  H32      1.0000 0.19170  0.17340  0.09230  Biso   1.000  H
  N49      1.0000 0.55930  0.24160  0.67240  Biso   1.000  N
  N50      1.0000 0.94070  0.74160  0.82760  Biso   1.000  N
  N51      1.0000 0.44070  0.75840  0.32760  Biso   1.000  N
  N52      1.0000 0.05930  0.25840  0.17240  Biso   1.000  N
  N53      1.0000 0.00670  0.26085  0.91840  Biso   1.000  N
  N54      1.0000 0.49330  0.76085  0.58160  Biso   1.000  N
  N55      1.0000 0.99330  0.73915  0.08160  Biso   1.000  N
  N56      1.0000 0.50670  0.23915  0.41840  Biso   1.000  N
  N57      1.0000 0.77150  0.41378  0.74079  Biso   1.000  N
  N58      1.0000 0.72850  0.91378  0.75921  Biso   1.000  N
  N59      1.0000 0.22850  0.58622  0.25921  Biso   1.000  N
  N60      1.0000 0.27150  0.08622  0.24079  Biso   1.000  N
  N61      1.0000 0.45190  0.27514  0.57090  Biso   1.000  N
  N62      1.0000 0.04810  0.77514  0.92910  Biso   1.000  N
  N63      1.0000 0.54810  0.72486  0.42910  Biso   1.000  N
  N64      1.0000 0.95190  0.22486  0.07090  Biso   1.000  N
  C1       1.0000 0.44710  0.95730  0.82260  Biso   1.000  C
  C2       1.0000 0.05290  0.45730  0.67740  Biso   1.000  C
  C3       1.0000 0.55290  0.04270  0.17740  Biso   1.000  C
  C4       1.0000 0.94710  0.54270  0.32260  Biso   1.000  C
  H33      1.0000 0.43390  0.93330  0.78900  Biso   1.000  H
  H34      1.0000 0.06610  0.43330  0.71100  Biso   1.000  H
  H35      1.0000 0.56610  0.06670  0.21100  Biso   1.000  H
  H36      1.0000 0.93390  0.56670  0.28900  Biso   1.000  H
  C5       1.0000 0.34980  0.95556  0.87310  Biso   1.000  C
  C6       1.0000 0.15020  0.45556  0.62690  Biso   1.000  C
  C7       1.0000 0.65020  0.04444  0.12690  Biso   1.000  C
  C8       1.0000 0.84980  0.54444  0.37310  Biso   1.000  C
  H37      1.0000 0.26690  0.93140  0.87460  Biso   1.000  H
  H38      1.0000 0.23310  0.43140  0.62540  Biso   1.000  H
  H39      1.0000 0.73310  0.06860  0.12540  Biso   1.000  H
  H40      1.0000 0.76690  0.56860  0.37460  Biso   1.000  H
  C9       1.0000 0.37580  0.99026  0.92230  Biso   1.000  C
  C10      1.0000 0.12420  0.49026  0.57770  Biso   1.000  C
  C11      1.0000 0.62420  0.00974  0.07770  Biso   1.000  C
  C12      1.0000 0.87580  0.50974  0.42230  Biso   1.000  C
  H41      1.0000 0.31570  0.98790  0.95980  Biso   1.000  H
  H42      1.0000 0.18430  0.48790  0.54020  Biso   1.000  H
  H43      1.0000 0.68430  0.01210  0.04020  Biso   1.000  H
  H44      1.0000 0.81570  0.51210  0.45980  Biso   1.000  H
  C13      1.0000 0.56670  0.02736  0.86560  Biso   1.000  C
  C14      1.0000 0.93330  0.52736  0.63440  Biso   1.000  C
  C15      1.0000 0.43330  0.97264  0.13440  Biso   1.000  C
  C16      1.0000 0.06670  0.47264  0.36560  Biso   1.000  C
  C17      1.0000 0.70350  0.08989  0.80350  Biso   1.000  C
  C18      1.0000 0.79650  0.58989  0.69650  Biso   1.000  C
  C19      1.0000 0.29650  0.91011  0.19650  Biso   1.000  C
  C20      1.0000 0.20350  0.41011  0.30350  Biso   1.000  C
  C21      1.0000 0.70570  0.14081  0.80020  Biso   1.000  C
  C22      1.0000 0.79430  0.64081  0.69980  Biso   1.000  C
  C23      1.0000 0.29430  0.85919  0.19980  Biso   1.000  C
  C24      1.0000 0.20570  0.35919  0.30020  Biso   1.000  C
  H45      1.0000 0.68610  0.15960  0.83780  Biso   1.000  H
  H46      1.0000 0.81390  0.65960  0.66220  Biso   1.000  H
  H47      1.0000 0.31390  0.84040  0.16220  Biso   1.000  H
  H48      1.0000 0.18610  0.34040  0.33780  Biso   1.000  H
  C25      1.0000 0.76670  0.13624  0.69340  Biso   1.000  C
  C26      1.0000 0.73330  0.63624  0.80660  Biso   1.000  C
  C27      1.0000 0.23330  0.86376  0.30660  Biso   1.000  C
  C28      1.0000 0.26670  0.36376  0.19340  Biso   1.000  C
  H49      1.0000 0.78710  0.15200  0.65360  Biso   1.000  H
  H50      1.0000 0.71290  0.65200  0.84640  Biso   1.000  H
  H51      1.0000 0.21290  0.84800  0.34640  Biso   1.000  H
  H52      1.0000 0.28710  0.34800  0.15360  Biso   1.000  H
  C29      1.0000 0.77050  0.08589  0.69650  Biso   1.000  C
  C30      1.0000 0.72950  0.58589  0.80350  Biso   1.000  C
  C31      1.0000 0.22950  0.91411  0.30350  Biso   1.000  C
  C32      1.0000 0.27050  0.41411  0.19650  Biso   1.000  C
  C33      1.0000 0.89350  0.01647  0.63990  Biso   1.000  C
  C34      1.0000 0.60650  0.51647  0.86010  Biso   1.000  C
  C35      1.0000 0.10650  0.98353  0.36010  Biso   1.000  C
  C36      1.0000 0.39350  0.48353  0.13990  Biso   1.000  C
  C37      1.0000 0.05430  0.96866  0.58150  Biso   1.000  C
  C38      1.0000 0.44570  0.46866  0.91850  Biso   1.000  C
  C39      1.0000 0.94570  0.03134  0.41850  Biso   1.000  C
  C40      1.0000 0.55430  0.53134  0.08150  Biso   1.000  C
  H53      1.0000 0.09840  0.96060  0.54150  Biso   1.000  H
  H54      1.0000 0.40160  0.46060  0.95850  Biso   1.000  H
  H55      1.0000 0.90160  0.03940  0.45850  Biso   1.000  H
  H56      1.0000 0.59840  0.53940  0.04150  Biso   1.000  H
  C41      1.0000 0.09090  0.93876  0.63540  Biso   1.000  C
  C42      1.0000 0.40910  0.43876  0.86460  Biso   1.000  C
  C43      1.0000 0.90910  0.06124  0.36460  Biso   1.000  C
  C44      1.0000 0.59090  0.56124  0.13540  Biso   1.000  C
  H57      1.0000 0.16900  0.91310  0.63490  Biso   1.000  H
  H58      1.0000 0.33100  0.41310  0.86510  Biso   1.000  H
  H59      1.0000 0.83100  0.08690  0.36510  Biso   1.000  H
  H60      1.0000 0.66900  0.58690  0.13490  Biso   1.000  H
  C45      1.0000 0.00910  0.94812  0.68910  Biso   1.000  C
  C46      1.0000 0.49090  0.44812  0.81090  Biso   1.000  C
  C47      1.0000 0.99090  0.05188  0.31090  Biso   1.000  C
  C48      1.0000 0.50910  0.55188  0.18910  Biso   1.000  C
  H61      1.0000 0.02720  0.92740  0.72610  Biso   1.000  H
  H62      1.0000 0.47280  0.42740  0.77390  Biso   1.000  H
  H63      1.0000 0.97280  0.07260  0.27390  Biso   1.000  H
  H64      1.0000 0.52720  0.57260  0.22610  Biso   1.000  H
  C49      1.0000 0.03320  0.19784  0.81690  Biso   1.000  C
  C50      1.0000 0.46680  0.69784  0.68310  Biso   1.000  C
  C51      1.0000 0.96680  0.80216  0.18310  Biso   1.000  C
  C52      1.0000 0.53320  0.30216  0.31690  Biso   1.000  C
  H65      1.0000 0.04380  0.17630  0.78100  Biso   1.000  H
  H66      1.0000 0.45620  0.67630  0.71900  Biso   1.000  H
  H67      1.0000 0.95620  0.82370  0.21900  Biso   1.000  H
  H68      1.0000 0.54380  0.32370  0.28100  Biso   1.000  H
  C53      1.0000 0.12110  0.18851  0.87530  Biso   1.000  C
  C54      1.0000 0.37890  0.68851  0.62470  Biso   1.000  C
  C55      1.0000 0.87890  0.81149  0.12470  Biso   1.000  C
  C56      1.0000 0.62110  0.31149  0.37530  Biso   1.000  C
  H69      1.0000 0.19450  0.16160  0.88050  Biso   1.000  H
  H70      1.0000 0.30550  0.66160  0.61950  Biso   1.000  H
  H71      1.0000 0.80550  0.83840  0.11950  Biso   1.000  H
  H72      1.0000 0.69450  0.33840  0.38050  Biso   1.000  H
  C57      1.0000 0.09710  0.22008  0.92570  Biso   1.000  C
  C58      1.0000 0.40290  0.72008  0.57430  Biso   1.000  C
  C59      1.0000 0.90290  0.77992  0.07430  Biso   1.000  C
  C60      1.0000 0.59710  0.27992  0.42570  Biso   1.000  C
  H73      1.0000 0.14700  0.21260  0.96780  Biso   1.000  H
  H74      1.0000 0.35300  0.71260  0.53220  Biso   1.000  H
  H75      1.0000 0.85300  0.78740  0.03220  Biso   1.000  H
  H76      1.0000 0.64700  0.28740  0.46780  Biso   1.000  H
  C61      1.0000 0.93590  0.26855  0.85870  Biso   1.000  C
  C62      1.0000 0.56410  0.76855  0.64130  Biso   1.000  C
  C63      1.0000 0.06410  0.73145  0.14130  Biso   1.000  C
  C64      1.0000 0.43590  0.23145  0.35870  Biso   1.000  C
  C65      1.0000 0.81030  0.33701  0.79430  Biso   1.000  C
  C66      1.0000 0.68970  0.83701  0.70570  Biso   1.000  C
  C67      1.0000 0.18970  0.66299  0.20570  Biso   1.000  C
  C68      1.0000 0.31030  0.16299  0.29430  Biso   1.000  C
  C69      1.0000 0.81360  0.38829  0.79490  Biso   1.000  C
  C70      1.0000 0.68640  0.88829  0.70510  Biso   1.000  C
  C71      1.0000 0.18640  0.61171  0.20510  Biso   1.000  C
  C72      1.0000 0.31360  0.11171  0.29490  Biso   1.000  C
  H77      1.0000 0.84620  0.40520  0.83430  Biso   1.000  H
  H78      1.0000 0.65380  0.90520  0.66570  Biso   1.000  H
  H79      1.0000 0.15380  0.59480  0.16570  Biso   1.000  H
  H80      1.0000 0.34620  0.09480  0.33430  Biso   1.000  H
  C73      1.0000 0.72580  0.38929  0.68550  Biso   1.000  C
  C74      1.0000 0.77420  0.88929  0.81450  Biso   1.000  C
  C75      1.0000 0.27420  0.61071  0.31450  Biso   1.000  C
  C76      1.0000 0.22580  0.11071  0.18550  Biso   1.000  C
  H81      1.0000 0.69960  0.40690  0.64620  Biso   1.000  H
  H82      1.0000 0.80040  0.90690  0.85380  Biso   1.000  H
  H83      1.0000 0.30040  0.59310  0.35380  Biso   1.000  H
  H84      1.0000 0.19960  0.09310  0.14620  Biso   1.000  H
  C77      1.0000 0.71680  0.33827  0.68580  Biso   1.000  C
  C78      1.0000 0.78320  0.83827  0.81420  Biso   1.000  C
  C79      1.0000 0.28320  0.66173  0.31420  Biso   1.000  C
  C80      1.0000 0.21680  0.16173  0.18580  Biso   1.000  C
  C81      1.0000 0.55280  0.27533  0.62440  Biso   1.000  C
  C82      1.0000 0.94720  0.77533  0.87560  Biso   1.000  C
  C83      1.0000 0.44720  0.72467  0.37560  Biso   1.000  C
  C84      1.0000 0.05280  0.22467  0.12440  Biso   1.000  C
  C85      1.0000 0.33770  0.24000  0.56720  Biso   1.000  C
  C86      1.0000 0.16230  0.74000  0.93280  Biso   1.000  C
  C87      1.0000 0.66230  0.76000  0.43280  Biso   1.000  C
  C88      1.0000 0.83770  0.26000  0.06720  Biso   1.000  C
  H85      1.0000 0.26410  0.23830  0.52930  Biso   1.000  H
  H86      1.0000 0.23590  0.73830  0.97070  Biso   1.000  H
  H87      1.0000 0.73590  0.76170  0.47070  Biso   1.000  H
  H88      1.0000 0.76410  0.26170  0.02930  Biso   1.000  H
  C89      1.0000 0.32300  0.20603  0.61650  Biso   1.000  C
  C90      1.0000 0.17700  0.70603  0.88350  Biso   1.000  C
  C91      1.0000 0.67700  0.79397  0.38350  Biso   1.000  C
  C92      1.0000 0.82300  0.29397  0.11650  Biso   1.000  C
  H89      1.0000 0.23690  0.18270  0.61470  Biso   1.000  H
  H90      1.0000 0.26310  0.68270  0.88530  Biso   1.000  H
  H91      1.0000 0.76310  0.81730  0.38530  Biso   1.000  H
  H92      1.0000 0.73690  0.31730  0.11470  Biso   1.000  H
  C93      1.0000 0.43890  0.20771  0.66820  Biso   1.000  C
  C94      1.0000 0.06110  0.70771  0.83180  Biso   1.000  C
  C95      1.0000 0.56110  0.79229  0.33180  Biso   1.000  C
  C96      1.0000 0.93890  0.29229  0.16820  Biso   1.000  C
  H93      1.0000 0.43460  0.18420  0.70220  Biso   1.000  H
  H94      1.0000 0.06540  0.68420  0.79780  Biso   1.000  H
  H95      1.0000 0.56540  0.81580  0.29780  Biso   1.000  H
  H96      1.0000 0.93460  0.31580  0.20220  Biso   1.000  H
  Cl1      1.0000 0.27185  0.58309  0.76361  Biso   1.000  Cl
  Cl2      1.0000 0.22815  0.08309  0.73639  Biso   1.000  Cl
  Cl3      1.0000 0.72815  0.41691  0.23639  Biso   1.000  Cl
  Cl4      1.0000 0.77185  0.91691  0.26361  Biso   1.000  Cl
  O9       1.0000 0.25180  0.53403  0.78640  Biso   1.000  O
  O10      1.0000 0.24820  0.03403  0.71360  Biso   1.000  O
  O11      1.0000 0.74820  0.46597  0.21360  Biso   1.000  O
  O12      1.0000 0.75180  0.96597  0.28640  Biso   1.000  O
  O13      1.0000 0.39160  0.57980  0.71550  Biso   1.000  O
  O14      1.0000 0.10840  0.07980  0.78450  Biso   1.000  O
  O15      1.0000 0.60840  0.42020  0.28450  Biso   1.000  O
  O16      1.0000 0.89160  0.92020  0.21550  Biso   1.000  O
  O17      1.0000 0.12990  0.60476  0.73740  Biso   1.000  O
  O18      1.0000 0.37010  0.10476  0.76260  Biso   1.000  O
  O19      1.0000 0.87010  0.39524  0.26260  Biso   1.000  O
  O20      1.0000 0.62990  0.89524  0.23740  Biso   1.000  O
  O21      1.0000 0.35320  0.61310  0.81120  Biso   1.000  O
  O22      1.0000 0.14680  0.11310  0.68880  Biso   1.000  O
  O23      1.0000 0.64680  0.38690  0.18880  Biso   1.000  O
  O24      1.0000 0.85320  0.88690  0.31120  Biso   1.000  O
  Cl5      1.0000 0.80503  0.16440  0.51332  Biso   1.000  Cl
  Cl6      1.0000 0.69497  0.66440  0.98668  Biso   1.000  Cl
  Cl7      1.0000 0.19497  0.83560  0.48668  Biso   1.000  Cl
  Cl8      1.0000 0.30503  0.33560  0.01332  Biso   1.000  Cl
  O25      1.0000 0.91430  0.12948  0.54460  Biso   1.000  O
  O26      1.0000 0.58570  0.62948  0.95540  Biso   1.000  O
  O27      1.0000 0.08570  0.87052  0.45540  Biso   1.000  O
  O28      1.0000 0.41430  0.37052  0.04460  Biso   1.000  O
  O29      1.0000 0.65140  0.16170  0.54260  Biso   1.000  O
  O30      1.0000 0.84860  0.66170  0.95740  Biso   1.000  O
  O31      1.0000 0.34860  0.83830  0.45740  Biso   1.000  O
  O32      1.0000 0.15140  0.33830  0.04260  Biso   1.000  O
  O33      1.0000 0.86850  0.21305  0.52580  Biso   1.000  O
  O34      1.0000 0.63150  0.71305  0.97420  Biso   1.000  O
  O35      1.0000 0.13150  0.78695  0.47420  Biso   1.000  O
  O36      1.0000 0.36850  0.28695  0.02580  Biso   1.000  O
  O37      1.0000 0.78360  0.15687  0.44506  Biso   1.000  O
  O38      1.0000 0.71640  0.65687  0.05494  Biso   1.000  O
  O39      1.0000 0.21640  0.84313  0.55494  Biso   1.000  O
  O40      1.0000 0.28360  0.34313  0.94506  Biso   1.000  O
  Cl9      1.0000 0.23401  0.32974  0.73338  Biso   1.000  Cl
  Cl10     1.0000 0.26599  0.82974  0.76662  Biso   1.000  Cl
  Cl11     1.0000 0.76599  0.67026  0.26662  Biso   1.000  Cl
  Cl12     1.0000 0.73401  0.17026  0.23338  Biso   1.000  Cl
  O41      1.0000 0.25070  0.28068  0.76010  Biso   1.000  O
  O42      1.0000 0.24930  0.78068  0.73990  Biso   1.000  O
  O43      1.0000 0.74930  0.71932  0.23990  Biso   1.000  O
  O44      1.0000 0.75070  0.21932  0.26010  Biso   1.000  O
  O45      1.0000 0.16510  0.36176  0.77830  Biso   1.000  O
  O46      1.0000 0.33490  0.86176  0.72170  Biso   1.000  O
  O47      1.0000 0.83490  0.63824  0.22170  Biso   1.000  O
  O48      1.0000 0.66510  0.13824  0.27830  Biso   1.000  O
  O49      1.0000 0.38760  0.34823  0.71820  Biso   1.000  O
  O50      1.0000 0.11240  0.84823  0.78180  Biso   1.000  O
  O51      1.0000 0.61240  0.65177  0.28180  Biso   1.000  O
  O52      1.0000 0.88760  0.15177  0.21820  Biso   1.000  O
  O53      1.0000 0.12490  0.32680  0.67590  Biso   1.000  O
  O54      1.0000 0.37510  0.82680  0.82410  Biso   1.000  O
  O55      1.0000 0.87510  0.67320  0.32410  Biso   1.000  O
  O56      1.0000 0.62490  0.17320  0.17590  Biso   1.000  O
  Cl13     1.0000 0.08206  0.07809  0.00786  Biso   1.000  Cl
  Cl14     1.0000 0.41794  0.57809  0.49214  Biso   1.000  Cl
  Cl15     1.0000 0.91794  0.92191  0.99214  Biso   1.000  Cl
  Cl16     1.0000 0.58206  0.42191  0.50786  Biso   1.000  Cl
  O57      1.0000 0.18150  0.12153  0.01735  Biso   1.000  O
  O58      1.0000 0.31850  0.62153  0.48265  Biso   1.000  O
  O59      1.0000 0.81850  0.87847  0.98265  Biso   1.000  O
  O60      1.0000 0.68150  0.37847  0.51735  Biso   1.000  O
  O61      1.0000 0.93210  0.08739  0.03710  Biso   1.000  O
  O62      1.0000 0.56790  0.58739  0.46290  Biso   1.000  O
  O63      1.0000 0.06790  0.91261  0.96290  Biso   1.000  O
  O64      1.0000 0.43210  0.41261  0.53710  Biso   1.000  O
  O65      1.0000 0.16200  0.03734  0.04110  Biso   1.000  O
  O66      1.0000 0.33800  0.53734  0.45890  Biso   1.000  O
  O67      1.0000 0.83800  0.96266  0.95890  Biso   1.000  O
  O68      1.0000 0.66200  0.46266  0.54110  Biso   1.000  O
  O69      1.0000 0.05530  0.06818  0.93981  Biso   1.000  O
  O70      1.0000 0.44470  0.56818  0.56019  Biso   1.000  O
  O71      1.0000 0.94470  0.93182  0.06019  Biso   1.000  O
  O72      1.0000 0.55530  0.43182  0.43981  Biso   1.000  O
  O73      1.0000 0.68840  0.14144  0.95906  Biso   1.000  O
  O74      1.0000 0.81160  0.64144  0.54094  Biso   1.000  O
  O75      1.0000 0.31160  0.85856  0.04094  Biso   1.000  O
  O76      1.0000 0.18840  0.35856  0.45906  Biso   1.000  O
  H97      1.0000 0.77720  0.14120  0.98220  Biso   1.000  H
  H98      1.0000 0.72280  0.64120  0.51780  Biso   1.000  H
  H99      1.0000 0.22280  0.85880  0.01780  Biso   1.000  H
  H100     1.0000 0.27720  0.35880  0.48220  Biso   1.000  H
  C97      1.0000 0.55810  0.14570  0.99990  Biso   1.000  C
  C98      1.0000 0.94190  0.64570  0.50010  Biso   1.000  C
  C99      1.0000 0.44190  0.85430  0.00010  Biso   1.000  C
  C100     1.0000 0.05810  0.35430  0.49990  Biso   1.000  C
  H101     1.0000 0.59470  0.16420  0.03930  Biso   1.000  H
  H102     1.0000 0.90530  0.66420  0.46070  Biso   1.000  H
  H103     1.0000 0.40530  0.83580  0.96070  Biso   1.000  H
  H104     1.0000 0.09470  0.33580  0.53930  Biso   1.000  H
  H105     1.0000 0.52260  0.11290  0.01220  Biso   1.000  H
  H106     1.0000 0.97740  0.61290  0.48780  Biso   1.000  H
  H107     1.0000 0.47740  0.88710  0.98780  Biso   1.000  H
  H108     1.0000 0.02260  0.38710  0.51220  Biso   1.000  H
  H109     1.0000 0.46710  0.16300  0.97640  Biso   1.000  H
  H110     1.0000 0.03290  0.66300  0.52360  Biso   1.000  H
  H111     1.0000 0.53290  0.83700  0.02360  Biso   1.000  H
  H112     1.0000 0.96710  0.33700  0.47640  Biso   1.000  H
  O77      1.0000 0.54660  0.24495  0.82012  Biso   1.000  O
  O78      1.0000 0.95340  0.74495  0.67988  Biso   1.000  O
  O79      1.0000 0.45340  0.75505  0.17988  Biso   1.000  O
  O80      1.0000 0.04660  0.25505  0.32012  Biso   1.000  O
  H113     1.0000 0.45920  0.25380  0.79960  Biso   1.000  H
  H114     1.0000 0.04080  0.75380  0.70040  Biso   1.000  H
  H115     1.0000 0.54080  0.74620  0.20040  Biso   1.000  H
  H116     1.0000 0.95920  0.24620  0.29960  Biso   1.000  H
  C101     1.0000 0.53650  0.25270  0.88810  Biso   1.000  C
  C102     1.0000 0.96350  0.75270  0.61190  Biso   1.000  C
  C103     1.0000 0.46350  0.74730  0.11190  Biso   1.000  C
  C104     1.0000 0.03650  0.24730  0.38810  Biso   1.000  C
  H117     1.0000 0.43060  0.24110  0.90060  Biso   1.000  H
  H118     1.0000 0.06940  0.74110  0.59940  Biso   1.000  H
  H119     1.0000 0.56940  0.75890  0.09940  Biso   1.000  H
  H120     1.0000 0.93060  0.25890  0.40060  Biso   1.000  H
  H121     1.0000 0.54800  0.28780  0.89790  Biso   1.000  H
  H122     1.0000 0.95200  0.78780  0.60210  Biso   1.000  H
  H123     1.0000 0.45200  0.71220  0.10210  Biso   1.000  H
  H124     1.0000 0.04800  0.21220  0.39790  Biso   1.000  H
  H125     1.0000 0.62370  0.23440  0.91260  Biso   1.000  H
  H126     1.0000 0.87630  0.73440  0.58740  Biso   1.000  H
  H127     1.0000 0.37630  0.76560  0.08740  Biso   1.000  H
  H128     1.0000 0.12370  0.26560  0.41260  Biso   1.000  H
  O81      1.0000 0.89840  0.37794  0.95510  Biso   1.000  O
  O82      1.0000 0.60160  0.87794  0.54490  Biso   1.000  O
  O83      1.0000 0.10160  0.62206  0.04490  Biso   1.000  O
  O84      1.0000 0.39840  0.12206  0.45510  Biso   1.000  O
  H129     1.0000 0.97940  0.37140  0.98100  Biso   1.000  H
  H130     1.0000 0.52060  0.87140  0.51900  Biso   1.000  H
  H131     1.0000 0.02060  0.62860  0.01900  Biso   1.000  H
  H132     1.0000 0.47940  0.12860  0.48100  Biso   1.000  H
  C105     1.0000 0.76180  0.38800  0.99160  Biso   1.000  C
  C106     1.0000 0.73820  0.88800  0.50840  Biso   1.000  C
  C107     1.0000 0.23820  0.61200  0.00840  Biso   1.000  C
  C108     1.0000 0.26180  0.11200  0.49160  Biso   1.000  C
  H133     1.0000 0.69600  0.41420  0.97010  Biso   1.000  H
  H134     1.0000 0.80400  0.91420  0.52990  Biso   1.000  H
  H135     1.0000 0.30400  0.58580  0.02990  Biso   1.000  H
  H136     1.0000 0.19600  0.08580  0.47010  Biso   1.000  H
  H137     1.0000 0.80010  0.39850  0.03580  Biso   1.000  H
  H138     1.0000 0.69990  0.89850  0.46420  Biso   1.000  H
  H139     1.0000 0.19990  0.60150  0.96420  Biso   1.000  H
  H140     1.0000 0.30010  0.10150  0.53580  Biso   1.000  H
  H141     1.0000 0.69540  0.35830  0.99400  Biso   1.000  H
  H142     1.0000 0.80460  0.85830  0.50600  Biso   1.000  H
  H143     1.0000 0.30460  0.64170  0.00600  Biso   1.000  H
  H144     1.0000 0.19540  0.14170  0.49400  Biso   1.000  H
  O85      1.0000 0.98200  0.48981  0.83505  Biso   1.000  O
  O86      1.0000 0.51800  0.98981  0.66495  Biso   1.000  O
  O87      1.0000 0.01800  0.51019  0.16495  Biso   1.000  O
  O88      1.0000 0.48200  0.01019  0.33505  Biso   1.000  O
  H145     1.0000 0.06690  0.49820  0.81800  Biso   1.000  H
  H146     1.0000 0.43310  0.99820  0.68200  Biso   1.000  H
  H147     1.0000 0.93310  0.50180  0.18200  Biso   1.000  H
  H148     1.0000 0.56690  0.00180  0.31800  Biso   1.000  H
  C109     1.0000 0.00730  0.49410  0.90410  Biso   1.000  C
  C110     1.0000 0.49270  0.99410  0.59590  Biso   1.000  C
  C111     1.0000 0.99270  0.50590  0.09590  Biso   1.000  C
  C112     1.0000 0.50730  0.00590  0.40410  Biso   1.000  C
  H149     1.0000 0.09190  0.47100  0.92050  Biso   1.000  H
  H150     1.0000 0.40810  0.97100  0.57950  Biso   1.000  H
  H151     1.0000 0.90810  0.52900  0.07950  Biso   1.000  H
  H152     1.0000 0.59190  0.02900  0.42050  Biso   1.000  H
  H153     1.0000 0.90560  0.48670  0.92390  Biso   1.000  H
  H154     1.0000 0.59440  0.98670  0.57610  Biso   1.000  H
  H155     1.0000 0.09440  0.51330  0.07610  Biso   1.000  H
  H156     1.0000 0.40560  0.01330  0.42390  Biso   1.000  H
  H157     1.0000 0.04170  0.52770  0.91560  Biso   1.000  H
  H158     1.0000 0.45830  0.02770  0.58440  Biso   1.000  H
  H159     1.0000 0.95830  0.47230  0.08440  Biso   1.000  H
  H160     1.0000 0.54170  0.97230  0.41560  Biso   1.000  H
