data_image0
_cell_length_a       10.0813
_cell_length_b       5.9868
_cell_length_c       11.6978
_cell_angle_alpha    90
_cell_angle_beta     91.77
_cell_angle_gamma    90

_symmetry_space_group_name_H-M    "P 1"
_symmetry_int_tables_number       1

loop_
  _symmetry_equiv_pos_as_xyz
  'x, y, z'

loop_
  _atom_site_label
  _atom_site_occupancy
  _atom_site_fract_x
  _atom_site_fract_y
  _atom_site_fract_z
  _atom_site_thermal_displace_type
  _atom_site_B_iso_or_equiv
  _atom_site_type_symbol
  Cu1      1.0000 0.50000  0.50000  0.50000  Biso   1.000  Cu
  Cu2      1.0000 0.00000  0.00000  0.00000  Biso   1.000  Cu
  O1       1.0000 0.39000  0.55640  0.23628  Biso   1.000  O
  O2       1.0000 0.11000  0.05640  0.26372  Biso   1.000  O
  O3       1.0000 0.61000  0.44360  0.76372  Biso   1.000  O
  O4       1.0000 0.89000  0.94360  0.73628  Biso   1.000  O
  O5       1.0000 0.46167  0.30400  0.36365  Biso   1.000  O
  O6       1.0000 0.03833  0.80400  0.13635  Biso   1.000  O
  O7       1.0000 0.53833  0.69600  0.63635  Biso   1.000  O
  O8       1.0000 0.96167  0.19600  0.86365  Biso   1.000  O
  O9       1.0000 0.58031  0.16340  0.58583  Biso   1.000  O
  O10      1.0000 0.91969  0.66340  0.91417  Biso   1.000  O
  O11      1.0000 0.41969  0.83660  0.41417  Biso   1.000  O
  O12      1.0000 0.08031  0.33660  0.08583  Biso   1.000  O
  H1       1.0000 0.56590  0.02470  0.59490  Biso   1.000  H
  H2       1.0000 0.93410  0.52470  0.90510  Biso   1.000  H
  H3       1.0000 0.43410  0.97530  0.40510  Biso   1.000  H
  H4       1.0000 0.06590  0.47530  0.09490  Biso   1.000  H
  H5       1.0000 0.59620  0.23780  0.64660  Biso   1.000  H
  H6       1.0000 0.90380  0.73780  0.85340  Biso   1.000  H
  H7       1.0000 0.40380  0.76220  0.35340  Biso   1.000  H
  H8       1.0000 0.09620  0.26220  0.14660  Biso   1.000  H
  N1       1.0000 0.81476  0.05650  0.05742  Biso   1.000  N
  N2       1.0000 0.68524  0.55650  0.44258  Biso   1.000  N
  N3       1.0000 0.18524  0.94350  0.94258  Biso   1.000  N
  N4       1.0000 0.31476  0.44350  0.55742  Biso   1.000  N
  C1       1.0000 0.62190  0.93500  0.15352  Biso   1.000  C
  C2       1.0000 0.87810  0.43500  0.34648  Biso   1.000  C
  C3       1.0000 0.37810  0.06500  0.84648  Biso   1.000  C
  C4       1.0000 0.12190  0.56500  0.65352  Biso   1.000  C
  H9       1.0000 0.57970  0.82190  0.19300  Biso   1.000  H
  H10      1.0000 0.92030  0.32190  0.30700  Biso   1.000  H
  H11      1.0000 0.42030  0.17810  0.80700  Biso   1.000  H
  H12      1.0000 0.07970  0.67810  0.69300  Biso   1.000  H
  C5       1.0000 0.74840  0.90190  0.11488  Biso   1.000  C
  C6       1.0000 0.75160  0.40190  0.38512  Biso   1.000  C
  C7       1.0000 0.25160  0.09810  0.88512  Biso   1.000  C
  C8       1.0000 0.24840  0.59810  0.61488  Biso   1.000  C
  H13      1.0000 0.78940  0.76520  0.12950  Biso   1.000  H
  H14      1.0000 0.71060  0.26520  0.37050  Biso   1.000  H
  H15      1.0000 0.21060  0.23480  0.87050  Biso   1.000  H
  H16      1.0000 0.28940  0.73480  0.62950  Biso   1.000  H
  C9       1.0000 0.75280  0.25110  0.03855  Biso   1.000  C
  C10      1.0000 0.74720  0.75110  0.46145  Biso   1.000  C
  C11      1.0000 0.24720  0.74890  0.96145  Biso   1.000  C
  C12      1.0000 0.25280  0.24890  0.53855  Biso   1.000  C
  H17      1.0000 0.79660  0.36130  0.99830  Biso   1.000  H
  H18      1.0000 0.70340  0.86130  0.50170  Biso   1.000  H
  H19      1.0000 0.20340  0.63870  0.00170  Biso   1.000  H
  H20      1.0000 0.29660  0.13870  0.49830  Biso   1.000  H
  C13      1.0000 0.62820  0.29620  0.07553  Biso   1.000  C
  C14      1.0000 0.87180  0.79620  0.42447  Biso   1.000  C
  C15      1.0000 0.37180  0.70380  0.92447  Biso   1.000  C
  C16      1.0000 0.12820  0.20380  0.57553  Biso   1.000  C
  H21      1.0000 0.59040  0.43560  0.06150  Biso   1.000  H
  H22      1.0000 0.90960  0.93560  0.43850  Biso   1.000  H
  H23      1.0000 0.40960  0.56440  0.93850  Biso   1.000  H
  H24      1.0000 0.09040  0.06440  0.56150  Biso   1.000  H
  C17      1.0000 0.55808  0.13610  0.13357  Biso   1.000  C
  C18      1.0000 0.94192  0.63610  0.36643  Biso   1.000  C
  C19      1.0000 0.44192  0.86390  0.86643  Biso   1.000  C
  C20      1.0000 0.05808  0.36390  0.63357  Biso   1.000  C
  C21      1.0000 0.41930  0.18340  0.17275  Biso   1.000  C
  C22      1.0000 0.08070  0.68340  0.32725  Biso   1.000  C
  C23      1.0000 0.58070  0.81660  0.82725  Biso   1.000  C
  C24      1.0000 0.91930  0.31660  0.67275  Biso   1.000  C
  H25      1.0000 0.36380  0.23080  0.10800  Biso   1.000  H
  H26      1.0000 0.13620  0.73080  0.39200  Biso   1.000  H
  H27      1.0000 0.63620  0.76920  0.89200  Biso   1.000  H
  H28      1.0000 0.86380  0.26920  0.60800  Biso   1.000  H
  H29      1.0000 0.38140  0.04810  0.20370  Biso   1.000  H
  H30      1.0000 0.11860  0.54810  0.29630  Biso   1.000  H
  H31      1.0000 0.61860  0.95190  0.79630  Biso   1.000  H
  H32      1.0000 0.88140  0.45190  0.70370  Biso   1.000  H
  C25      1.0000 0.42217  0.36580  0.26414  Biso   1.000  C
  C26      1.0000 0.07783  0.86580  0.23586  Biso   1.000  C
  C27      1.0000 0.57783  0.63420  0.73586  Biso   1.000  C
  C28      1.0000 0.92217  0.13420  0.76414  Biso   1.000  C
