data_image0
_cell_length_a       14.626
_cell_length_b       7.4429
_cell_length_c       13.317
_cell_angle_alpha    90
_cell_angle_beta     97.79
_cell_angle_gamma    90

_symmetry_space_group_name_H-M    "P 1"
_symmetry_int_tables_number       1

loop_
  _symmetry_equiv_pos_as_xyz
  'x, y, z'

loop_
  _atom_site_label
  _atom_site_occupancy
  _atom_site_fract_x
  _atom_site_fract_y
  _atom_site_fract_z
  _atom_site_thermal_displace_type
  _atom_site_B_iso_or_equiv
  _atom_site_type_symbol
  Cu1      1.0000 0.00000  0.96706  0.25000  Biso   1.000  Cu
  Cu2      1.0000 0.00000  0.03294  0.75000  Biso   1.000  Cu
  N1       1.0000 0.87181  0.95550  0.16606  Biso   1.000  N
  N2       1.0000 0.12819  0.95550  0.33394  Biso   1.000  N
  N3       1.0000 0.12819  0.04450  0.83394  Biso   1.000  N
  N4       1.0000 0.87181  0.04450  0.66606  Biso   1.000  N
  N5       1.0000 0.54422  0.77320  0.02813  Biso   1.000  N
  N6       1.0000 0.45578  0.77320  0.47187  Biso   1.000  N
  N7       1.0000 0.45578  0.22680  0.97187  Biso   1.000  N
  N8       1.0000 0.54422  0.22680  0.52813  Biso   1.000  N
  H1       1.0000 0.55570  0.76190  0.09290  Biso   1.000  H
  H2       1.0000 0.44430  0.76190  0.40710  Biso   1.000  H
  H3       1.0000 0.44430  0.23810  0.90710  Biso   1.000  H
  H4       1.0000 0.55570  0.23810  0.59290  Biso   1.000  H
  C1       1.0000 0.45558  0.71670  0.98380  Biso   1.000  C
  C2       1.0000 0.54442  0.71670  0.51620  Biso   1.000  C
  C3       1.0000 0.54442  0.28330  0.01620  Biso   1.000  C
  C4       1.0000 0.45558  0.28330  0.48380  Biso   1.000  C
  C5       1.0000 0.06310  0.30990  0.12820  Biso   1.000  C
  C6       1.0000 0.93690  0.30990  0.37180  Biso   1.000  C
  C7       1.0000 0.93690  0.69010  0.87180  Biso   1.000  C
  C8       1.0000 0.06310  0.69010  0.62820  Biso   1.000  C
  C9       1.0000 0.86257  0.95060  0.06480  Biso   1.000  C
  C10      1.0000 0.13743  0.95060  0.43520  Biso   1.000  C
  C11      1.0000 0.13743  0.04940  0.93520  Biso   1.000  C
  C12      1.0000 0.86257  0.04940  0.56480  Biso   1.000  C
  H5       1.0000 0.91420  0.97180  0.03270  Biso   1.000  H
  H6       1.0000 0.08580  0.97180  0.46730  Biso   1.000  H
  H7       1.0000 0.08580  0.02820  0.96730  Biso   1.000  H
  H8       1.0000 0.91420  0.02820  0.53270  Biso   1.000  H
  C13      1.0000 0.70110  0.88500  0.05150  Biso   1.000  C
  C14      1.0000 0.29890  0.88500  0.44850  Biso   1.000  C
  C15      1.0000 0.29890  0.11500  0.94850  Biso   1.000  C
  C16      1.0000 0.70110  0.11500  0.55150  Biso   1.000  C
  O1       1.0000 0.60832  0.86690  0.89104  Biso   1.000  O
  O2       1.0000 0.39168  0.86690  0.60896  Biso   1.000  O
  O3       1.0000 0.39168  0.13310  0.10896  Biso   1.000  O
  O4       1.0000 0.60832  0.13310  0.39104  Biso   1.000  O
  N9       1.0000 0.04440  0.75600  0.14850  Biso   1.000  N
  N10      1.0000 0.95560  0.75600  0.35150  Biso   1.000  N
  N11      1.0000 0.95560  0.24400  0.85150  Biso   1.000  N
  N12      1.0000 0.04440  0.24400  0.64850  Biso   1.000  N
  N13      1.0000 0.04440  0.16910  0.15270  Biso   1.000  N
  N14      1.0000 0.95560  0.16910  0.34730  Biso   1.000  N
  N15      1.0000 0.95560  0.83090  0.84730  Biso   1.000  N
  N16      1.0000 0.04440  0.83090  0.65270  Biso   1.000  N
  C17      1.0000 0.61299  0.84230  0.98250  Biso   1.000  C
  C18      1.0000 0.38701  0.84230  0.51750  Biso   1.000  C
  C19      1.0000 0.38701  0.15770  0.01750  Biso   1.000  C
  C20      1.0000 0.61299  0.15770  0.48250  Biso   1.000  C
  C21      1.0000 0.79561  0.93130  0.21020  Biso   1.000  C
  C22      1.0000 0.20439  0.93130  0.28980  Biso   1.000  C
  C23      1.0000 0.20439  0.06870  0.78980  Biso   1.000  C
  C24      1.0000 0.79561  0.06870  0.71020  Biso   1.000  C
  H9       1.0000 0.80050  0.93810  0.28040  Biso   1.000  H
  H10      1.0000 0.19950  0.93810  0.21960  Biso   1.000  H
  H11      1.0000 0.19950  0.06190  0.71960  Biso   1.000  H
  H12      1.0000 0.80050  0.06190  0.78040  Biso   1.000  H
  C25      1.0000 0.06230  0.61630  0.12670  Biso   1.000  C
  C26      1.0000 0.93770  0.61630  0.37330  Biso   1.000  C
  C27      1.0000 0.93770  0.38370  0.87330  Biso   1.000  C
  C28      1.0000 0.06230  0.38370  0.62670  Biso   1.000  C
  C29      1.0000 0.71000  0.89650  0.15560  Biso   1.000  C
  C30      1.0000 0.29000  0.89650  0.34440  Biso   1.000  C
  C31      1.0000 0.29000  0.10350  0.84440  Biso   1.000  C
  C32      1.0000 0.71000  0.10350  0.65560  Biso   1.000  C
  H13      1.0000 0.65870  0.88090  0.18900  Biso   1.000  H
  H14      1.0000 0.34130  0.88090  0.31100  Biso   1.000  H
  H15      1.0000 0.34130  0.11910  0.81100  Biso   1.000  H
  H16      1.0000 0.65870  0.11910  0.68900  Biso   1.000  H
  C33      1.0000 0.27660  0.59980  0.90740  Biso   1.000  C
  C34      1.0000 0.72340  0.59980  0.59260  Biso   1.000  C
  C35      1.0000 0.72340  0.40020  0.09260  Biso   1.000  C
  C36      1.0000 0.27660  0.40020  0.40740  Biso   1.000  C
  N17      1.0000 0.09100  0.46280  0.09700  Biso   1.000  N
  N18      1.0000 0.90900  0.46280  0.40300  Biso   1.000  N
  N19      1.0000 0.90900  0.53720  0.90300  Biso   1.000  N
  N20      1.0000 0.09100  0.53720  0.59700  Biso   1.000  N
  C37      1.0000 0.77930  0.91540  0.00610  Biso   1.000  C
  C38      1.0000 0.22070  0.91540  0.49390  Biso   1.000  C
  C39      1.0000 0.22070  0.08460  0.99390  Biso   1.000  C
  C40      1.0000 0.77930  0.08460  0.50610  Biso   1.000  C
  H17      1.0000 0.77580  0.91200  0.93590  Biso   1.000  H
  H18      1.0000 0.22420  0.91200  0.56410  Biso   1.000  H
  H19      1.0000 0.22420  0.08800  0.06410  Biso   1.000  H
  H20      1.0000 0.77580  0.08800  0.43590  Biso   1.000  H
  C41      1.0000 0.17920  0.54450  0.86660  Biso   1.000  C
  C42      1.0000 0.82080  0.54450  0.63340  Biso   1.000  C
  C43      1.0000 0.82080  0.45550  0.13340  Biso   1.000  C
  C44      1.0000 0.17920  0.45550  0.36660  Biso   1.000  C
  H21      1.0000 0.13990  0.64830  0.86140  Biso   1.000  H
  H22      1.0000 0.86010  0.64830  0.63860  Biso   1.000  H
  H23      1.0000 0.86010  0.35170  0.13860  Biso   1.000  H
  H24      1.0000 0.13990  0.35170  0.36140  Biso   1.000  H
  H25      1.0000 0.15740  0.45870  0.91170  Biso   1.000  H
  H26      1.0000 0.84260  0.45870  0.58830  Biso   1.000  H
  H27      1.0000 0.84260  0.54130  0.08830  Biso   1.000  H
  H28      1.0000 0.15740  0.54130  0.41170  Biso   1.000  H
  H29      1.0000 0.17850  0.49140  0.80080  Biso   1.000  H
  H30      1.0000 0.82150  0.49140  0.69920  Biso   1.000  H
  H31      1.0000 0.82150  0.50860  0.19920  Biso   1.000  H
  H32      1.0000 0.17850  0.50860  0.30080  Biso   1.000  H
  C45      1.0000 0.39260  0.67370  0.04810  Biso   1.000  C
  C46      1.0000 0.60740  0.67370  0.45190  Biso   1.000  C
  C47      1.0000 0.60740  0.32630  0.95190  Biso   1.000  C
  C48      1.0000 0.39260  0.32630  0.54810  Biso   1.000  C
  H33      1.0000 0.40950  0.68340  0.11770  Biso   1.000  H
  H34      1.0000 0.59050  0.68340  0.38230  Biso   1.000  H
  H35      1.0000 0.59050  0.31660  0.88230  Biso   1.000  H
  H36      1.0000 0.40950  0.31660  0.61770  Biso   1.000  H
  C49      1.0000 0.34120  0.63780  0.84360  Biso   1.000  C
  C50      1.0000 0.65880  0.63780  0.65640  Biso   1.000  C
  C51      1.0000 0.65880  0.36220  0.15640  Biso   1.000  C
  C52      1.0000 0.34120  0.36220  0.34360  Biso   1.000  C
  H37      1.0000 0.32450  0.62570  0.77400  Biso   1.000  H
  H38      1.0000 0.67550  0.62570  0.72600  Biso   1.000  H
  H39      1.0000 0.67550  0.37430  0.22600  Biso   1.000  H
  H40      1.0000 0.32450  0.37430  0.27400  Biso   1.000  H
  C53      1.0000 0.30400  0.61600  0.01050  Biso   1.000  C
  C54      1.0000 0.69600  0.61600  0.48950  Biso   1.000  C
  C55      1.0000 0.69600  0.38400  0.98950  Biso   1.000  C
  C56      1.0000 0.30400  0.38400  0.51050  Biso   1.000  C
  H41      1.0000 0.26270  0.58790  0.05550  Biso   1.000  H
  H42      1.0000 0.73730  0.58790  0.44450  Biso   1.000  H
  H43      1.0000 0.73730  0.41210  0.94450  Biso   1.000  H
  H44      1.0000 0.26270  0.41210  0.55550  Biso   1.000  H
  C57      1.0000 0.43050  0.69390  0.88000  Biso   1.000  C
  C58      1.0000 0.56950  0.69390  0.62000  Biso   1.000  C
  C59      1.0000 0.56950  0.30610  0.12000  Biso   1.000  C
  C60      1.0000 0.43050  0.30610  0.38000  Biso   1.000  C
  H45      1.0000 0.47290  0.71580  0.83540  Biso   1.000  H
  H46      1.0000 0.52710  0.71580  0.66460  Biso   1.000  H
  H47      1.0000 0.52710  0.28420  0.16460  Biso   1.000  H
  H48      1.0000 0.47290  0.28420  0.33540  Biso   1.000  H
  O5       1.0000 0.50000  0.09590  0.75000  Biso   1.000  O
  O6       1.0000 0.50000  0.90410  0.25000  Biso   1.000  O
  H49      1.0000 0.52500  0.01000  0.79200  Biso   1.000  H
  H50      1.0000 0.47500  0.01000  0.70800  Biso   1.000  H
  H51      1.0000 0.47500  0.99000  0.20800  Biso   1.000  H
  H52      1.0000 0.52500  0.99000  0.29200  Biso   1.000  H
