data_image0
_cell_length_a       7.271
_cell_length_b       9.0756
_cell_length_c       11.327
_cell_angle_alpha    99.4
_cell_angle_beta     100.62
_cell_angle_gamma    105.43

_symmetry_space_group_name_H-M    "P 1"
_symmetry_int_tables_number       1

loop_
  _symmetry_equiv_pos_as_xyz
  'x, y, z'

loop_
  _atom_site_label
  _atom_site_occupancy
  _atom_site_fract_x
  _atom_site_fract_y
  _atom_site_fract_z
  _atom_site_thermal_displace_type
  _atom_site_B_iso_or_equiv
  _atom_site_type_symbol
  Cu1      1.0000 0.50000  0.50000  0.50000  Biso   1.000  Cu
  N1       1.0000 0.12560  0.76430  0.67809  Biso   1.000  N
  N2       1.0000 0.87440  0.23570  0.32191  Biso   1.000  N
  N3       1.0000 0.27000  0.01800  0.92582  Biso   1.000  N
  N4       1.0000 0.73000  0.98200  0.07418  Biso   1.000  N
  H1       1.0000 0.22890  0.96270  0.85150  Biso   1.000  H
  H2       1.0000 0.77110  0.03730  0.14850  Biso   1.000  H
  N5       1.0000 0.47580  0.38000  0.63680  Biso   1.000  N
  N6       1.0000 0.52420  0.62000  0.36320  Biso   1.000  N
  N7       1.0000 0.78010  0.61380  0.58380  Biso   1.000  N
  N8       1.0000 0.21990  0.38620  0.41620  Biso   1.000  N
  C1       1.0000 0.94440  0.67960  0.62340  Biso   1.000  C
  C2       1.0000 0.05560  0.32040  0.37660  Biso   1.000  C
  O1       1.0000 0.46180  0.25760  0.04426  Biso   1.000  O
  O2       1.0000 0.53820  0.74240  0.95574  Biso   1.000  O
  C3       1.0000 0.21260  0.94500  0.01930  Biso   1.000  C
  C4       1.0000 0.78740  0.05500  0.98070  Biso   1.000  C
  C5       1.0000 0.37360  0.22750  0.61450  Biso   1.000  C
  C6       1.0000 0.62640  0.77250  0.38550  Biso   1.000  C
  H3       1.0000 0.32370  0.17190  0.53300  Biso   1.000  H
  H4       1.0000 0.67630  0.82810  0.46700  Biso   1.000  H
  C7       1.0000 0.52830  0.38820  0.85220  Biso   1.000  C
  C8       1.0000 0.47170  0.61180  0.14780  Biso   1.000  C
  H5       1.0000 0.58550  0.44550  0.93280  Biso   1.000  H
  H6       1.0000 0.41450  0.55450  0.06720  Biso   1.000  H
  C9       1.0000 0.27010  0.72620  0.63960  Biso   1.000  C
  C10      1.0000 0.72990  0.27380  0.36040  Biso   1.000  C
  C11      1.0000 0.55370  0.45820  0.75460  Biso   1.000  C
  C12      1.0000 0.44630  0.54180  0.24540  Biso   1.000  C
  H7       1.0000 0.62720  0.56330  0.77090  Biso   1.000  H
  H8       1.0000 0.37280  0.43670  0.22910  Biso   1.000  H
  C13      1.0000 0.38580  0.17000  0.94310  Biso   1.000  C
  C14      1.0000 0.61420  0.83000  0.05690  Biso   1.000  C
  N9       1.0000 0.40950  0.70720  0.61410  Biso   1.000  N
  N10      1.0000 0.59050  0.29280  0.38590  Biso   1.000  N
  C15      1.0000 0.41670  0.23120  0.82960  Biso   1.000  C
  C16      1.0000 0.58330  0.76880  0.17040  Biso   1.000  C
  C17      1.0000 0.09070  0.78840  0.98290  Biso   1.000  C
  C18      1.0000 0.90930  0.21160  0.01710  Biso   1.000  C
  H9       1.0000 0.05200  0.73780  0.90000  Biso   1.000  H
  H10      1.0000 0.94800  0.26220  0.10000  Biso   1.000  H
  C19      1.0000 0.08930  0.78610  0.19320  Biso   1.000  C
  C20      1.0000 0.91070  0.21390  0.80680  Biso   1.000  C
  C21      1.0000 0.02820  0.70940  0.06980  Biso   1.000  C
  C22      1.0000 0.97180  0.29060  0.93020  Biso   1.000  C
  H11      1.0000 0.94640  0.60620  0.04590  Biso   1.000  H
  H12      1.0000 0.05360  0.39380  0.95410  Biso   1.000  H
  C23      1.0000 0.27050  0.02080  0.14430  Biso   1.000  C
  C24      1.0000 0.72950  0.97920  0.85570  Biso   1.000  C
  H13      1.0000 0.34990  0.12470  0.16900  Biso   1.000  H
  H14      1.0000 0.65010  0.87530  0.83100  Biso   1.000  H
  C25      1.0000 0.33890  0.14870  0.70770  Biso   1.000  C
  C26      1.0000 0.66110  0.85130  0.29230  Biso   1.000  C
  H15      1.0000 0.26530  0.04340  0.68890  Biso   1.000  H
  H16      1.0000 0.73470  0.95660  0.31110  Biso   1.000  H
  O3       1.0000 0.08160  0.77240  0.39420  Biso   1.000  O
  O4       1.0000 0.91840  0.22760  0.60580  Biso   1.000  O
  N11      1.0000 0.02960  0.70050  0.28600  Biso   1.000  N
  N12      1.0000 0.97040  0.29950  0.71400  Biso   1.000  N
  O5       1.0000 0.92860  0.56280  0.25040  Biso   1.000  O
  O6       1.0000 0.07140  0.43720  0.74960  Biso   1.000  O
  C27      1.0000 0.20890  0.94030  0.23130  Biso   1.000  C
  C28      1.0000 0.79110  0.05970  0.76870  Biso   1.000  C
  H17      1.0000 0.24770  0.98950  0.31460  Biso   1.000  H
  H18      1.0000 0.75230  0.01050  0.68540  Biso   1.000  H
