data_image0
_cell_length_a       8.011
_cell_length_b       12.205
_cell_length_c       22.336
_cell_angle_alpha    90
_cell_angle_beta     90
_cell_angle_gamma    90

_symmetry_space_group_name_H-M    "P 1"
_symmetry_int_tables_number       1

loop_
  _symmetry_equiv_pos_as_xyz
  'x, y, z'

loop_
  _atom_site_label
  _atom_site_occupancy
  _atom_site_fract_x
  _atom_site_fract_y
  _atom_site_fract_z
  _atom_site_thermal_displace_type
  _atom_site_B_iso_or_equiv
  _atom_site_type_symbol
  Cu1      1.0000 0.51246  0.38561  0.24454  Biso   1.000  Cu
  Cu2      1.0000 0.01246  0.11439  0.75546  Biso   1.000  Cu
  Cu3      1.0000 0.48754  0.88561  0.25546  Biso   1.000  Cu
  Cu4      1.0000 0.98754  0.61439  0.74454  Biso   1.000  Cu
  O1       1.0000 0.84770  0.40150  0.43907  Biso   1.000  O
  O2       1.0000 0.34770  0.09850  0.56093  Biso   1.000  O
  O3       1.0000 0.15230  0.90150  0.06093  Biso   1.000  O
  O4       1.0000 0.65230  0.59850  0.93907  Biso   1.000  O
  O5       1.0000 0.62570  0.47211  0.30405  Biso   1.000  O
  O6       1.0000 0.12570  0.02789  0.69595  Biso   1.000  O
  O7       1.0000 0.37430  0.97211  0.19595  Biso   1.000  O
  O8       1.0000 0.87430  0.52789  0.80405  Biso   1.000  O
  O9       1.0000 0.58670  0.25732  0.28870  Biso   1.000  O
  O10      1.0000 0.08670  0.24268  0.71130  Biso   1.000  O
  O11      1.0000 0.41330  0.75732  0.21130  Biso   1.000  O
  O12      1.0000 0.91330  0.74268  0.78870  Biso   1.000  O
  O13      1.0000 0.38410  0.20480  0.38575  Biso   1.000  O
  O14      1.0000 0.88410  0.29520  0.61425  Biso   1.000  O
  O15      1.0000 0.61590  0.70480  0.11425  Biso   1.000  O
  O16      1.0000 0.11590  0.79520  0.88575  Biso   1.000  O
  O17      1.0000 0.57250  0.46540  0.43481  Biso   1.000  O
  O18      1.0000 0.07250  0.03460  0.56519  Biso   1.000  O
  O19      1.0000 0.42750  0.96540  0.06519  Biso   1.000  O
  O20      1.0000 0.92750  0.53460  0.93481  Biso   1.000  O
  C1       1.0000 0.72730  0.45820  0.40484  Biso   1.000  C
  C2       1.0000 0.22730  0.04180  0.59516  Biso   1.000  C
  C3       1.0000 0.27270  0.95820  0.09516  Biso   1.000  C
  C4       1.0000 0.77270  0.54180  0.90484  Biso   1.000  C
  C5       1.0000 0.71530  0.40390  0.34398  Biso   1.000  C
  C6       1.0000 0.21530  0.09610  0.65602  Biso   1.000  C
  C7       1.0000 0.28470  0.90390  0.15602  Biso   1.000  C
  C8       1.0000 0.78470  0.59610  0.84398  Biso   1.000  C
  C9       1.0000 0.62290  0.29470  0.34746  Biso   1.000  C
  C10      1.0000 0.12290  0.20530  0.65254  Biso   1.000  C
  C11      1.0000 0.37710  0.79470  0.15254  Biso   1.000  C
  C12      1.0000 0.87710  0.70530  0.84746  Biso   1.000  C
  C13      1.0000 0.46040  0.31080  0.38176  Biso   1.000  C
  C14      1.0000 0.96040  0.18920  0.61824  Biso   1.000  C
  C15      1.0000 0.53960  0.81080  0.11824  Biso   1.000  C
  C16      1.0000 0.03960  0.68920  0.88176  Biso   1.000  C
  C17      1.0000 0.49200  0.36070  0.44342  Biso   1.000  C
  C18      1.0000 0.99200  0.13930  0.55658  Biso   1.000  C
  C19      1.0000 0.50800  0.86070  0.05658  Biso   1.000  C
  C20      1.0000 0.00800  0.63930  0.94342  Biso   1.000  C
  C21      1.0000 0.33280  0.38330  0.47710  Biso   1.000  C
  C22      1.0000 0.83280  0.11670  0.52290  Biso   1.000  C
  C23      1.0000 0.66720  0.88330  0.02290  Biso   1.000  C
  C24      1.0000 0.16720  0.61670  0.97710  Biso   1.000  C
  C25      1.0000 0.89210  0.45810  0.49320  Biso   1.000  C
  C26      1.0000 0.39210  0.04190  0.50680  Biso   1.000  C
  C27      1.0000 0.10790  0.95810  0.00680  Biso   1.000  C
  C28      1.0000 0.60790  0.54190  0.99320  Biso   1.000  C
  O21      1.0000 0.24790  0.36420  0.03896  Biso   1.000  O
  O22      1.0000 0.74790  0.13580  0.96104  Biso   1.000  O
  O23      1.0000 0.75210  0.86420  0.46104  Biso   1.000  O
  O24      1.0000 0.25210  0.63580  0.53896  Biso   1.000  O
  O25      1.0000 0.40780  0.29889  0.18405  Biso   1.000  O
  O26      1.0000 0.90780  0.20111  0.81595  Biso   1.000  O
  O27      1.0000 0.59220  0.79889  0.31595  Biso   1.000  O
  O28      1.0000 0.09220  0.70111  0.68405  Biso   1.000  O
  O29      1.0000 0.42680  0.51415  0.20302  Biso   1.000  O
  O30      1.0000 0.92680  0.98585  0.79698  Biso   1.000  O
  O31      1.0000 0.57320  0.01415  0.29698  Biso   1.000  O
  O32      1.0000 0.07320  0.48585  0.70302  Biso   1.000  O
  O33      1.0000 0.09180  0.58300  0.19750  Biso   1.000  O
  O34      1.0000 0.59180  0.91700  0.80250  Biso   1.000  O
  O35      1.0000 0.90820  0.08300  0.30250  Biso   1.000  O
  O36      1.0000 0.40820  0.41700  0.69750  Biso   1.000  O
  O37      1.0000 0.08250  0.31370  0.12049  Biso   1.000  O
  O38      1.0000 0.58250  0.18630  0.87951  Biso   1.000  O
  O39      1.0000 0.91750  0.81370  0.37951  Biso   1.000  O
  O40      1.0000 0.41750  0.68630  0.62049  Biso   1.000  O
  C29      1.0000 0.24340  0.31240  0.09429  Biso   1.000  C
  C30      1.0000 0.74340  0.18760  0.90571  Biso   1.000  C
  C31      1.0000 0.75660  0.81240  0.40571  Biso   1.000  C
  C32      1.0000 0.25660  0.68760  0.59429  Biso   1.000  C
  C33      1.0000 0.37290  0.36690  0.13452  Biso   1.000  C
  C34      1.0000 0.87290  0.13310  0.86548  Biso   1.000  C
  C35      1.0000 0.62710  0.86690  0.36548  Biso   1.000  C
  C36      1.0000 0.12710  0.63310  0.63452  Biso   1.000  C
  C37      1.0000 0.31680  0.47850  0.15736  Biso   1.000  C
  C38      1.0000 0.81680  0.02150  0.84264  Biso   1.000  C
  C39      1.0000 0.68320  0.97850  0.34264  Biso   1.000  C
  C40      1.0000 0.18320  0.52150  0.65736  Biso   1.000  C
  C41      1.0000 0.13880  0.47200  0.18109  Biso   1.000  C
  C42      1.0000 0.63880  0.02800  0.81891  Biso   1.000  C
  C43      1.0000 0.86120  0.97200  0.31891  Biso   1.000  C
  C44      1.0000 0.36120  0.52800  0.68109  Biso   1.000  C
  C45      1.0000 0.02370  0.42250  0.13404  Biso   1.000  C
  C46      1.0000 0.52370  0.07750  0.86596  Biso   1.000  C
  C47      1.0000 0.97630  0.92250  0.36596  Biso   1.000  C
  C48      1.0000 0.47630  0.57750  0.63404  Biso   1.000  C
  C49      1.0000 0.84340  0.40920  0.15530  Biso   1.000  C
  C50      1.0000 0.34340  0.09080  0.84470  Biso   1.000  C
  C51      1.0000 0.15660  0.90920  0.34470  Biso   1.000  C
  C52      1.0000 0.65660  0.59080  0.65530  Biso   1.000  C
  C53      1.0000 0.14960  0.31060  0.99410  Biso   1.000  C
  C54      1.0000 0.64960  0.18940  0.00590  Biso   1.000  C
  C55      1.0000 0.85040  0.81060  0.50590  Biso   1.000  C
  C56      1.0000 0.35040  0.68940  0.49410  Biso   1.000  C
  O41      1.0000 0.23440  0.13450  0.25131  Biso   1.000  O
  O42      1.0000 0.73440  0.36550  0.74869  Biso   1.000  O
  O43      1.0000 0.76560  0.63450  0.24869  Biso   1.000  O
  O44      1.0000 0.26560  0.86550  0.75131  Biso   1.000  O
  O45      1.0000 0.04950  0.22200  0.39690  Biso   1.000  O
  O46      1.0000 0.54950  0.27800  0.60310  Biso   1.000  O
  O47      1.0000 0.95050  0.72200  0.10310  Biso   1.000  O
  O48      1.0000 0.45050  0.77800  0.89690  Biso   1.000  O
  O49      1.0000 0.61160  0.12960  0.17145  Biso   1.000  O
  O50      1.0000 0.11160  0.37040  0.82855  Biso   1.000  O
  O51      1.0000 0.38840  0.62960  0.32855  Biso   1.000  O
  O52      1.0000 0.88840  0.87040  0.67145  Biso   1.000  O
  O53      1.0000 0.93720  0.10780  0.16320  Biso   1.000  O
  O54      1.0000 0.43720  0.39220  0.83680  Biso   1.000  O
  O55      1.0000 0.06280  0.60780  0.33680  Biso   1.000  O
  O56      1.0000 0.56280  0.89220  0.66320  Biso   1.000  O
  Li1      1.0000 0.42540  0.13780  0.30720  Biso   1.000  Li
  Li2      1.0000 0.92540  0.36220  0.69280  Biso   1.000  Li
  Li3      1.0000 0.57460  0.63780  0.19280  Biso   1.000  Li
  Li4      1.0000 0.07460  0.86220  0.80720  Biso   1.000  Li
  Li5      1.0000 0.70350  0.13370  0.25370  Biso   1.000  Li
  Li6      1.0000 0.20350  0.36630  0.74630  Biso   1.000  Li
  Li7      1.0000 0.29650  0.63370  0.24630  Biso   1.000  Li
  Li8      1.0000 0.79650  0.86630  0.75370  Biso   1.000  Li
  H1       1.0000 0.76420  0.53230  0.40190  Biso   1.000  H
  H2       1.0000 0.26420  0.96770  0.59810  Biso   1.000  H
  H3       1.0000 0.23580  0.03230  0.09810  Biso   1.000  H
  H4       1.0000 0.73580  0.46770  0.90190  Biso   1.000  H
  H5       1.0000 0.82020  0.38830  0.32860  Biso   1.000  H
  H6       1.0000 0.32020  0.11170  0.67140  Biso   1.000  H
  H7       1.0000 0.17980  0.88830  0.17140  Biso   1.000  H
  H8       1.0000 0.67980  0.61170  0.82860  Biso   1.000  H
  H9       1.0000 0.68450  0.24930  0.36840  Biso   1.000  H
  H10      1.0000 0.18450  0.25070  0.63160  Biso   1.000  H
  H11      1.0000 0.31550  0.74930  0.13160  Biso   1.000  H
  H12      1.0000 0.81550  0.75070  0.86840  Biso   1.000  H
  H13      1.0000 0.38160  0.35740  0.36130  Biso   1.000  H
  H14      1.0000 0.88160  0.14260  0.63870  Biso   1.000  H
  H15      1.0000 0.61840  0.85740  0.13870  Biso   1.000  H
  H16      1.0000 0.11840  0.64260  0.86130  Biso   1.000  H
  H17      1.0000 0.56460  0.31550  0.46570  Biso   1.000  H
  H18      1.0000 0.06460  0.18450  0.53430  Biso   1.000  H
  H19      1.0000 0.43540  0.81550  0.03430  Biso   1.000  H
  H20      1.0000 0.93540  0.68450  0.96570  Biso   1.000  H
  H21      1.0000 0.27940  0.32450  0.48710  Biso   1.000  H
  H22      1.0000 0.77940  0.17550  0.51290  Biso   1.000  H
  H23      1.0000 0.72060  0.82450  0.01290  Biso   1.000  H
  H24      1.0000 0.22060  0.67550  0.98710  Biso   1.000  H
  H25      1.0000 0.34200  0.41090  0.50720  Biso   1.000  H
  H26      1.0000 0.84200  0.08910  0.49280  Biso   1.000  H
  H27      1.0000 0.65800  0.91090  0.99280  Biso   1.000  H
  H28      1.0000 0.15800  0.58910  0.00720  Biso   1.000  H
  H29      1.0000 0.26220  0.42080  0.45290  Biso   1.000  H
  H30      1.0000 0.76220  0.07920  0.54710  Biso   1.000  H
  H31      1.0000 0.73780  0.92080  0.04710  Biso   1.000  H
  H32      1.0000 0.23780  0.57920  0.95290  Biso   1.000  H
  H33      1.0000 0.96810  0.40750  0.51390  Biso   1.000  H
  H34      1.0000 0.46810  0.09250  0.48610  Biso   1.000  H
  H35      1.0000 0.03190  0.90750  0.98610  Biso   1.000  H
  H36      1.0000 0.53190  0.59250  0.01390  Biso   1.000  H
  H37      1.0000 0.93220  0.51610  0.48090  Biso   1.000  H
  H38      1.0000 0.43220  0.98390  0.51910  Biso   1.000  H
  H39      1.0000 0.06780  0.01610  0.01910  Biso   1.000  H
  H40      1.0000 0.56780  0.48390  0.98090  Biso   1.000  H
  H41      1.0000 0.78760  0.45600  0.51920  Biso   1.000  H
  H42      1.0000 0.28760  0.04400  0.48080  Biso   1.000  H
  H43      1.0000 0.21240  0.95600  0.98080  Biso   1.000  H
  H44      1.0000 0.71240  0.54400  0.01920  Biso   1.000  H
  H45      1.0000 0.30380  0.21310  0.38880  Biso   1.000  H
  H46      1.0000 0.80380  0.28690  0.61120  Biso   1.000  H
  H47      1.0000 0.69620  0.71310  0.11120  Biso   1.000  H
  H48      1.0000 0.19620  0.78690  0.88880  Biso   1.000  H
  H49      1.0000 0.27360  0.23520  0.09150  Biso   1.000  H
  H50      1.0000 0.77360  0.26480  0.90850  Biso   1.000  H
  H51      1.0000 0.72640  0.73520  0.40850  Biso   1.000  H
  H52      1.0000 0.22640  0.76480  0.59150  Biso   1.000  H
  H53      1.0000 0.47460  0.37680  0.11070  Biso   1.000  H
  H54      1.0000 0.97460  0.12320  0.88930  Biso   1.000  H
  H55      1.0000 0.52540  0.87680  0.38930  Biso   1.000  H
  H56      1.0000 0.02540  0.62320  0.61070  Biso   1.000  H
  H57      1.0000 0.31940  0.52530  0.12490  Biso   1.000  H
  H58      1.0000 0.81940  0.97470  0.87510  Biso   1.000  H
  H59      1.0000 0.68060  0.02530  0.37510  Biso   1.000  H
  H60      1.0000 0.18060  0.47470  0.62490  Biso   1.000  H
  H61      1.0000 0.13730  0.42850  0.21270  Biso   1.000  H
  H62      1.0000 0.63730  0.07150  0.78730  Biso   1.000  H
  H63      1.0000 0.86270  0.92850  0.28730  Biso   1.000  H
  H64      1.0000 0.36270  0.57150  0.71270  Biso   1.000  H
  H65      1.0000 0.02600  0.46250  0.09720  Biso   1.000  H
  H66      1.0000 0.52600  0.03750  0.90280  Biso   1.000  H
  H67      1.0000 0.97400  0.96250  0.40280  Biso   1.000  H
  H68      1.0000 0.47400  0.53750  0.59720  Biso   1.000  H
  H69      1.0000 0.79430  0.36040  0.12190  Biso   1.000  H
  H70      1.0000 0.29430  0.13960  0.87810  Biso   1.000  H
  H71      1.0000 0.20570  0.86040  0.37810  Biso   1.000  H
  H72      1.0000 0.70570  0.63960  0.62190  Biso   1.000  H
  H73      1.0000 0.85500  0.37230  0.18900  Biso   1.000  H
  H74      1.0000 0.35500  0.12770  0.81100  Biso   1.000  H
  H75      1.0000 0.14500  0.87230  0.31100  Biso   1.000  H
  H76      1.0000 0.64500  0.62770  0.68900  Biso   1.000  H
  H77      1.0000 0.79850  0.48110  0.15920  Biso   1.000  H
  H78      1.0000 0.29850  0.01890  0.84080  Biso   1.000  H
  H79      1.0000 0.20150  0.98110  0.34080  Biso   1.000  H
  H80      1.0000 0.70150  0.51890  0.65920  Biso   1.000  H
  H81      1.0000 0.19130  0.23710  0.99090  Biso   1.000  H
  H82      1.0000 0.69130  0.26290  0.00910  Biso   1.000  H
  H83      1.0000 0.80870  0.73710  0.50910  Biso   1.000  H
  H84      1.0000 0.30870  0.76290  0.49090  Biso   1.000  H
  H85      1.0000 0.18570  0.33690  0.95640  Biso   1.000  H
  H86      1.0000 0.68570  0.16310  0.04360  Biso   1.000  H
  H87      1.0000 0.81430  0.83690  0.54360  Biso   1.000  H
  H88      1.0000 0.31430  0.66310  0.45640  Biso   1.000  H
  H89      1.0000 0.03100  0.30420  0.00320  Biso   1.000  H
  H90      1.0000 0.53100  0.19580  0.99680  Biso   1.000  H
  H91      1.0000 0.96900  0.80420  0.49680  Biso   1.000  H
  H92      1.0000 0.46900  0.69580  0.50320  Biso   1.000  H
  H93      1.0000 0.98920  0.59190  0.21800  Biso   1.000  H
  H94      1.0000 0.48920  0.90810  0.78200  Biso   1.000  H
  H95      1.0000 0.01080  0.09190  0.28200  Biso   1.000  H
  H96      1.0000 0.51080  0.40810  0.71800  Biso   1.000  H
  H97      1.0000 0.26140  0.07980  0.22770  Biso   1.000  H
  H98      1.0000 0.76140  0.42020  0.77230  Biso   1.000  H
  H99      1.0000 0.73860  0.57980  0.27230  Biso   1.000  H
  H100     1.0000 0.23860  0.92020  0.72770  Biso   1.000  H
  H101     1.0000 0.26210  0.17860  0.23310  Biso   1.000  H
  H102     1.0000 0.76210  0.32140  0.76690  Biso   1.000  H
  H103     1.0000 0.73790  0.67860  0.26690  Biso   1.000  H
  H104     1.0000 0.23790  0.82140  0.73310  Biso   1.000  H
  H105     1.0000 0.01490  0.27560  0.39620  Biso   1.000  H
  H106     1.0000 0.51490  0.22440  0.60380  Biso   1.000  H
  H107     1.0000 0.98510  0.77560  0.10380  Biso   1.000  H
  H108     1.0000 0.48510  0.72440  0.89620  Biso   1.000  H
  H109     1.0000 0.00440  0.20030  0.37070  Biso   1.000  H
  H110     1.0000 0.50440  0.29970  0.62930  Biso   1.000  H
  H111     1.0000 0.99560  0.70030  0.12930  Biso   1.000  H
  H112     1.0000 0.49560  0.79970  0.87070  Biso   1.000  H
  H113     1.0000 0.56400  0.08010  0.17130  Biso   1.000  H
  H114     1.0000 0.06400  0.41990  0.82870  Biso   1.000  H
  H115     1.0000 0.43600  0.58010  0.32870  Biso   1.000  H
  H116     1.0000 0.93600  0.91990  0.67130  Biso   1.000  H
  H117     1.0000 0.56090  0.18180  0.16840  Biso   1.000  H
  H118     1.0000 0.06090  0.31820  0.83160  Biso   1.000  H
  H119     1.0000 0.43910  0.68180  0.33160  Biso   1.000  H
  H120     1.0000 0.93910  0.81820  0.66840  Biso   1.000  H
