data_image0
_cell_length_a       9.9292
_cell_length_b       12.527
_cell_length_c       7.2754
_cell_angle_alpha    90
_cell_angle_beta     110.109
_cell_angle_gamma    90

_symmetry_space_group_name_H-M    "P 1"
_symmetry_int_tables_number       1

loop_
  _symmetry_equiv_pos_as_xyz
  'x, y, z'

loop_
  _atom_site_label
  _atom_site_occupancy
  _atom_site_fract_x
  _atom_site_fract_y
  _atom_site_fract_z
  _atom_site_thermal_displace_type
  _atom_site_B_iso_or_equiv
  _atom_site_type_symbol
  Cu1      1.0000 0.00000  0.50000  0.00000  Biso   1.000  Cu
  Cu2      1.0000 0.00000  0.00000  0.50000  Biso   1.000  Cu
  N1       1.0000 0.91050  0.43470  0.17930  Biso   1.000  N
  N2       1.0000 0.08950  0.93470  0.32070  Biso   1.000  N
  N3       1.0000 0.08950  0.56530  0.82070  Biso   1.000  N
  N4       1.0000 0.91050  0.06530  0.67930  Biso   1.000  N
  C1       1.0000 0.84810  0.40870  0.27850  Biso   1.000  C
  C2       1.0000 0.15190  0.90870  0.22150  Biso   1.000  C
  C3       1.0000 0.15190  0.59130  0.72150  Biso   1.000  C
  C4       1.0000 0.84810  0.09130  0.77850  Biso   1.000  C
  N5       1.0000 0.76790  0.37710  0.37640  Biso   1.000  N
  N6       1.0000 0.23210  0.87710  0.12360  Biso   1.000  N
  N7       1.0000 0.23210  0.62290  0.62360  Biso   1.000  N
  N8       1.0000 0.76790  0.12290  0.87640  Biso   1.000  N
  C5       1.0000 0.81130  0.38520  0.56630  Biso   1.000  C
  C6       1.0000 0.18870  0.88520  0.93370  Biso   1.000  C
  C7       1.0000 0.18870  0.61480  0.43370  Biso   1.000  C
  C8       1.0000 0.81130  0.11480  0.06630  Biso   1.000  C
  N9       1.0000 0.83960  0.38690  0.73300  Biso   1.000  N
  N10      1.0000 0.16040  0.88690  0.76700  Biso   1.000  N
  N11      1.0000 0.16040  0.61310  0.26700  Biso   1.000  N
  N12      1.0000 0.83960  0.11310  0.23300  Biso   1.000  N
  N13      1.0000 0.14920  0.38390  0.06450  Biso   1.000  N
  N14      1.0000 0.85080  0.88390  0.43550  Biso   1.000  N
  N15      1.0000 0.85080  0.61610  0.93550  Biso   1.000  N
  N16      1.0000 0.14920  0.11610  0.56450  Biso   1.000  N
  C9       1.0000 0.28820  0.40710  0.11590  Biso   1.000  C
  C10      1.0000 0.71180  0.90710  0.38410  Biso   1.000  C
  C11      1.0000 0.71180  0.59290  0.88410  Biso   1.000  C
  C12      1.0000 0.28820  0.09290  0.61590  Biso   1.000  C
  H1       1.0000 0.31547  0.47981  0.11625  Biso   1.000  H
  H2       1.0000 0.68453  0.97981  0.38375  Biso   1.000  H
  H3       1.0000 0.68453  0.52019  0.88375  Biso   1.000  H
  H4       1.0000 0.31547  0.02019  0.61625  Biso   1.000  H
  C13      1.0000 0.39420  0.33040  0.16850  Biso   1.000  C
  C14      1.0000 0.60580  0.83040  0.33150  Biso   1.000  C
  C15      1.0000 0.60580  0.66960  0.83150  Biso   1.000  C
  C16      1.0000 0.39420  0.16960  0.66850  Biso   1.000  C
  H5       1.0000 0.49231  0.35037  0.20759  Biso   1.000  H
  H6       1.0000 0.50769  0.85037  0.29241  Biso   1.000  H
  H7       1.0000 0.50769  0.64963  0.79241  Biso   1.000  H
  H8       1.0000 0.49231  0.14963  0.70759  Biso   1.000  H
  C17      1.0000 0.35570  0.22320  0.16380  Biso   1.000  C
  C18      1.0000 0.64430  0.72320  0.33620  Biso   1.000  C
  C19      1.0000 0.64430  0.77680  0.83620  Biso   1.000  C
  C20      1.0000 0.35570  0.27680  0.66380  Biso   1.000  C
  C21      1.0000 0.21190  0.19920  0.10770  Biso   1.000  C
  C22      1.0000 0.78810  0.69920  0.39230  Biso   1.000  C
  C23      1.0000 0.78810  0.80080  0.89230  Biso   1.000  C
  C24      1.0000 0.21190  0.30080  0.60770  Biso   1.000  C
  H9       1.0000 0.18161  0.12695  0.10147  Biso   1.000  H
  H10      1.0000 0.81839  0.62695  0.39853  Biso   1.000  H
  H11      1.0000 0.81839  0.87305  0.89853  Biso   1.000  H
  H12      1.0000 0.18161  0.37305  0.60147  Biso   1.000  H
  C25      1.0000 0.11190  0.28030  0.06060  Biso   1.000  C
  C26      1.0000 0.88810  0.78030  0.43940  Biso   1.000  C
  C27      1.0000 0.88810  0.71970  0.93940  Biso   1.000  C
  C28      1.0000 0.11190  0.21970  0.56060  Biso   1.000  C
  H13      1.0000 0.01313  0.26245  0.02397  Biso   1.000  H
  H14      1.0000 0.98687  0.76245  0.47603  Biso   1.000  H
  H15      1.0000 0.98687  0.73755  0.97603  Biso   1.000  H
  H16      1.0000 0.01313  0.23755  0.52397  Biso   1.000  H
  C29      1.0000 0.46820  0.13630  0.21770  Biso   1.000  C
  C30      1.0000 0.53180  0.63630  0.28230  Biso   1.000  C
  C31      1.0000 0.53180  0.86370  0.78230  Biso   1.000  C
  C32      1.0000 0.46820  0.36370  0.71770  Biso   1.000  C
  H17      1.0000 0.42583  0.06993  0.24790  Biso   1.000  H
  H18      1.0000 0.57417  0.56993  0.25210  Biso   1.000  H
  H19      1.0000 0.57417  0.93007  0.75210  Biso   1.000  H
  H20      1.0000 0.42583  0.43007  0.74790  Biso   1.000  H
  H21      1.0000 0.49925  0.12180  0.10456  Biso   1.000  H
  H22      1.0000 0.50075  0.62180  0.39544  Biso   1.000  H
  H23      1.0000 0.50075  0.87820  0.89544  Biso   1.000  H
  H24      1.0000 0.49925  0.37820  0.60456  Biso   1.000  H
  O1       1.0000 0.58940  0.16520  0.38180  Biso   1.000  O
  O2       1.0000 0.41060  0.66520  0.11820  Biso   1.000  O
  O3       1.0000 0.41060  0.83480  0.61820  Biso   1.000  O
  O4       1.0000 0.58940  0.33480  0.88180  Biso   1.000  O
  H25      1.0000 0.65400  0.17800  0.32400  Biso   1.000  H
  H26      1.0000 0.34600  0.67800  0.17600  Biso   1.000  H
  H27      1.0000 0.34600  0.82200  0.67600  Biso   1.000  H
  H28      1.0000 0.65400  0.32200  0.82400  Biso   1.000  H
