data_image0
_cell_length_a       7.0318
_cell_length_b       7.3799
_cell_length_c       9.7467
_cell_angle_alpha    69.519
_cell_angle_beta     70.257
_cell_angle_gamma    85.367

_symmetry_space_group_name_H-M    "P 1"
_symmetry_int_tables_number       1

loop_
  _symmetry_equiv_pos_as_xyz
  'x, y, z'

loop_
  _atom_site_label
  _atom_site_occupancy
  _atom_site_fract_x
  _atom_site_fract_y
  _atom_site_fract_z
  _atom_site_thermal_displace_type
  _atom_site_B_iso_or_equiv
  _atom_site_type_symbol
  Cu1      1.0000 0.00000  0.00000  0.00000  Biso   1.000  Cu
  C1       1.0000 0.18836  0.26476  0.11779  Biso   1.000  C
  C2       1.0000 0.81164  0.73524  0.88221  Biso   1.000  C
  N1       1.0000 0.12522  0.15260  0.08431  Biso   1.000  N
  N2       1.0000 0.87478  0.84740  0.91569  Biso   1.000  N
  C3       1.0000 0.22287  0.56087  0.12814  Biso   1.000  C
  C4       1.0000 0.77713  0.43913  0.87186  Biso   1.000  C
  N3       1.0000 0.26960  0.37784  0.16152  Biso   1.000  N
  N4       1.0000 0.73040  0.62216  0.83848  Biso   1.000  N
  N5       1.0000 0.19044  0.72310  0.10454  Biso   1.000  N
  N6       1.0000 0.80956  0.27690  0.89546  Biso   1.000  N
  N7       1.0000 0.23463  0.08524  0.79854  Biso   1.000  N
  N8       1.0000 0.76537  0.91476  0.20146  Biso   1.000  N
  C5       1.0000 0.42760  0.06771  0.79777  Biso   1.000  C
  C6       1.0000 0.57240  0.93229  0.20223  Biso   1.000  C
  H1       1.0000 0.45119  0.00520  0.89354  Biso   1.000  H
  H2       1.0000 0.54881  0.99480  0.10646  Biso   1.000  H
  C7       1.0000 0.59167  0.13622  0.66465  Biso   1.000  C
  C8       1.0000 0.40833  0.86378  0.33535  Biso   1.000  C
  H3       1.0000 0.72514  0.12076  0.66909  Biso   1.000  H
  H4       1.0000 0.27486  0.87924  0.33091  Biso   1.000  H
  C9       1.0000 0.55950  0.22898  0.52258  Biso   1.000  C
  C10      1.0000 0.44050  0.77102  0.47742  Biso   1.000  C
  C11      1.0000 0.36074  0.24403  0.52124  Biso   1.000  C
  C12      1.0000 0.63926  0.75597  0.47876  Biso   1.000  C
  H5       1.0000 0.33273  0.30301  0.42688  Biso   1.000  H
  H6       1.0000 0.66727  0.69699  0.57312  Biso   1.000  H
  C13      1.0000 0.20557  0.17055  0.66137  Biso   1.000  C
  C14      1.0000 0.79443  0.82945  0.33863  Biso   1.000  C
  H7       1.0000 0.07052  0.18123  0.66025  Biso   1.000  H
  H8       1.0000 0.92948  0.81877  0.33975  Biso   1.000  H
  O1       1.0000 0.72511  0.29767  0.39729  Biso   1.000  O
  O2       1.0000 0.27489  0.70233  0.60271  Biso   1.000  O
  C15      1.0000 0.69359  0.40395  0.25245  Biso   1.000  C
  C16      1.0000 0.30641  0.59605  0.74755  Biso   1.000  C
  H9       1.0000 0.82361  0.45791  0.17275  Biso   1.000  H
  H10      1.0000 0.17639  0.54209  0.82725  Biso   1.000  H
  H11      1.0000 0.60294  0.50939  0.26493  Biso   1.000  H
  H12      1.0000 0.39706  0.49061  0.73507  Biso   1.000  H
  H13      1.0000 0.63275  0.31700  0.22092  Biso   1.000  H
  H14      1.0000 0.36725  0.68300  0.77908  Biso   1.000  H
