data_image0
_cell_length_a       24.171
_cell_length_b       7.0709
_cell_length_c       6.0918
_cell_angle_alpha    90
_cell_angle_beta     90
_cell_angle_gamma    90

_symmetry_space_group_name_H-M    "P 1"
_symmetry_int_tables_number       1

loop_
  _symmetry_equiv_pos_as_xyz
  'x, y, z'

loop_
  _atom_site_label
  _atom_site_occupancy
  _atom_site_fract_x
  _atom_site_fract_y
  _atom_site_fract_z
  _atom_site_thermal_displace_type
  _atom_site_B_iso_or_equiv
  _atom_site_type_symbol
  Cu1      1.0000 0.51440  0.34825  0.17420  Biso   1.000  Cu
  Cu2      1.0000 0.48560  0.65175  0.67420  Biso   1.000  Cu
  Cu3      1.0000 0.01440  0.15175  0.17420  Biso   1.000  Cu
  Cu4      1.0000 0.98560  0.84825  0.67420  Biso   1.000  Cu
  Br1      1.0000 0.47357  0.66374  0.17560  Biso   1.000  Br
  Br2      1.0000 0.52643  0.33626  0.67560  Biso   1.000  Br
  Br3      1.0000 0.97357  0.83626  0.17560  Biso   1.000  Br
  Br4      1.0000 0.02643  0.16374  0.67560  Biso   1.000  Br
  Br5      1.0000 0.42540  0.19250  0.17650  Biso   1.000  Br
  Br6      1.0000 0.57460  0.80750  0.67650  Biso   1.000  Br
  Br7      1.0000 0.92540  0.30750  0.17650  Biso   1.000  Br
  Br8      1.0000 0.07460  0.69250  0.67650  Biso   1.000  Br
  N1       1.0000 0.56000  0.10940  0.17000  Biso   1.000  N
  N2       1.0000 0.44000  0.89060  0.67000  Biso   1.000  N
  N3       1.0000 0.06000  0.39060  0.17000  Biso   1.000  N
  N4       1.0000 0.94000  0.60940  0.67000  Biso   1.000  N
  H1       1.0000 0.55870  0.05310  0.30240  Biso   1.000  H
  H2       1.0000 0.44130  0.94690  0.80240  Biso   1.000  H
  H3       1.0000 0.05870  0.44690  0.30240  Biso   1.000  H
  H4       1.0000 0.94130  0.55310  0.80240  Biso   1.000  H
  H5       1.0000 0.54630  0.02850  0.06980  Biso   1.000  H
  H6       1.0000 0.45370  0.97150  0.56980  Biso   1.000  H
  H7       1.0000 0.04630  0.47150  0.06980  Biso   1.000  H
  H8       1.0000 0.95370  0.52850  0.56980  Biso   1.000  H
  N5       1.0000 0.58860  0.47700  0.16800  Biso   1.000  N
  N6       1.0000 0.41140  0.52300  0.66800  Biso   1.000  N
  N7       1.0000 0.08860  0.02300  0.16800  Biso   1.000  N
  N8       1.0000 0.91140  0.97700  0.66800  Biso   1.000  N
  H9       1.0000 0.59580  0.51910  0.03130  Biso   1.000  H
  H10      1.0000 0.40420  0.48090  0.53130  Biso   1.000  H
  H11      1.0000 0.09580  0.98090  0.03130  Biso   1.000  H
  H12      1.0000 0.90420  0.01910  0.53130  Biso   1.000  H
  H13      1.0000 0.58850  0.57690  0.25930  Biso   1.000  H
  H14      1.0000 0.41150  0.42310  0.75930  Biso   1.000  H
  H15      1.0000 0.08850  0.92310  0.25930  Biso   1.000  H
  H16      1.0000 0.91150  0.07690  0.75930  Biso   1.000  H
  C1       1.0000 0.61800  0.15670  0.11470  Biso   1.000  C
  C2       1.0000 0.38200  0.84330  0.61470  Biso   1.000  C
  C3       1.0000 0.11800  0.34330  0.11470  Biso   1.000  C
  C4       1.0000 0.88200  0.65670  0.61470  Biso   1.000  C
  H17      1.0000 0.62080  0.17950  0.95640  Biso   1.000  H
  H18      1.0000 0.37920  0.82050  0.45640  Biso   1.000  H
  H19      1.0000 0.12080  0.32050  0.95640  Biso   1.000  H
  H20      1.0000 0.87920  0.67950  0.45640  Biso   1.000  H
  C5       1.0000 0.63260  0.33830  0.23730  Biso   1.000  C
  C6       1.0000 0.36740  0.66170  0.73730  Biso   1.000  C
  C7       1.0000 0.13260  0.16170  0.23730  Biso   1.000  C
  C8       1.0000 0.86740  0.83830  0.73730  Biso   1.000  C
  H21      1.0000 0.63220  0.31880  0.39660  Biso   1.000  H
  H22      1.0000 0.36780  0.68120  0.89660  Biso   1.000  H
  H23      1.0000 0.13220  0.18120  0.39660  Biso   1.000  H
  H24      1.0000 0.86780  0.81880  0.89660  Biso   1.000  H
  C9       1.0000 0.68910  0.39890  0.15900  Biso   1.000  C
  C10      1.0000 0.31090  0.60110  0.65900  Biso   1.000  C
  C11      1.0000 0.18910  0.10110  0.15900  Biso   1.000  C
  C12      1.0000 0.81090  0.89890  0.65900  Biso   1.000  C
  H25      1.0000 0.68530  0.45520  0.01430  Biso   1.000  H
  H26      1.0000 0.31470  0.54480  0.51430  Biso   1.000  H
  H27      1.0000 0.18530  0.04480  0.01430  Biso   1.000  H
  H28      1.0000 0.81470  0.95520  0.51430  Biso   1.000  H
  H29      1.0000 0.70300  0.49610  0.25690  Biso   1.000  H
  H30      1.0000 0.29700  0.50390  0.75690  Biso   1.000  H
  H31      1.0000 0.20300  0.00390  0.25690  Biso   1.000  H
  H32      1.0000 0.79700  0.99610  0.75690  Biso   1.000  H
  C13      1.0000 0.73090  0.24410  0.14600  Biso   1.000  C
  C14      1.0000 0.26910  0.75590  0.64600  Biso   1.000  C
  C15      1.0000 0.23090  0.25590  0.14600  Biso   1.000  C
  C16      1.0000 0.76910  0.74410  0.64600  Biso   1.000  C
  H33      1.0000 0.74210  0.23100  0.99390  Biso   1.000  H
  H34      1.0000 0.25790  0.76900  0.49390  Biso   1.000  H
  H35      1.0000 0.24210  0.26900  0.99390  Biso   1.000  H
  H36      1.0000 0.75790  0.73100  0.49390  Biso   1.000  H
  H37      1.0000 0.76320  0.28330  0.22850  Biso   1.000  H
  H38      1.0000 0.23680  0.71670  0.72850  Biso   1.000  H
  H39      1.0000 0.26320  0.21670  0.22850  Biso   1.000  H
  H40      1.0000 0.73680  0.78330  0.72850  Biso   1.000  H
  C17      1.0000 0.71430  0.06010  0.22500  Biso   1.000  C
  C18      1.0000 0.28570  0.93990  0.72500  Biso   1.000  C
  C19      1.0000 0.21430  0.43990  0.22500  Biso   1.000  C
  C20      1.0000 0.78570  0.56010  0.72500  Biso   1.000  C
  H41      1.0000 0.73940  0.96730  0.16290  Biso   1.000  H
  H42      1.0000 0.26060  0.03270  0.66290  Biso   1.000  H
  H43      1.0000 0.23940  0.53270  0.16290  Biso   1.000  H
  H44      1.0000 0.76060  0.46730  0.66290  Biso   1.000  H
  H45      1.0000 0.71950  0.05810  0.38270  Biso   1.000  H
  H46      1.0000 0.28050  0.94190  0.88270  Biso   1.000  H
  H47      1.0000 0.21950  0.44190  0.38270  Biso   1.000  H
  H48      1.0000 0.78050  0.55810  0.88270  Biso   1.000  H
  C21      1.0000 0.65890  0.99930  0.18000  Biso   1.000  C
  C22      1.0000 0.34110  0.00070  0.68000  Biso   1.000  C
  C23      1.0000 0.15890  0.50070  0.18000  Biso   1.000  C
  C24      1.0000 0.84110  0.49930  0.68000  Biso   1.000  C
  H49      1.0000 0.64470  0.93590  0.30930  Biso   1.000  H
  H50      1.0000 0.35530  0.06410  0.80930  Biso   1.000  H
  H51      1.0000 0.14470  0.56410  0.30930  Biso   1.000  H
  H52      1.0000 0.85530  0.43590  0.80930  Biso   1.000  H
  H53      1.0000 0.66010  0.90690  0.06230  Biso   1.000  H
  H54      1.0000 0.33990  0.09310  0.56230  Biso   1.000  H
  H55      1.0000 0.16010  0.59310  0.06230  Biso   1.000  H
  H56      1.0000 0.83990  0.40690  0.56230  Biso   1.000  H
