data_image0
_cell_length_a       7.7002
_cell_length_b       7.8855
_cell_length_c       24.644
_cell_angle_alpha    90
_cell_angle_beta     95.929
_cell_angle_gamma    90

_symmetry_space_group_name_H-M    "P 1"
_symmetry_int_tables_number       1

loop_
  _symmetry_equiv_pos_as_xyz
  'x, y, z'

loop_
  _atom_site_label
  _atom_site_occupancy
  _atom_site_fract_x
  _atom_site_fract_y
  _atom_site_fract_z
  _atom_site_thermal_displace_type
  _atom_site_B_iso_or_equiv
  _atom_site_type_symbol
  Cu1      1.0000 0.00602  0.81734  0.36864  Biso   1.000  Cu
  Cu2      1.0000 0.99398  0.31734  0.13137  Biso   1.000  Cu
  Cu3      1.0000 0.99398  0.18266  0.63136  Biso   1.000  Cu
  Cu4      1.0000 0.00602  0.68266  0.86864  Biso   1.000  Cu
  Cl1      1.0000 0.72089  0.87175  0.34883  Biso   1.000  Cl
  Cl2      1.0000 0.27911  0.37175  0.15117  Biso   1.000  Cl
  Cl3      1.0000 0.27911  0.12825  0.65117  Biso   1.000  Cl
  Cl4      1.0000 0.72089  0.62825  0.84883  Biso   1.000  Cl
  N1       1.0000 0.05390  0.01820  0.41912  Biso   1.000  N
  N2       1.0000 0.94610  0.51820  0.08088  Biso   1.000  N
  N3       1.0000 0.94610  0.98180  0.58088  Biso   1.000  N
  N4       1.0000 0.05390  0.48180  0.91912  Biso   1.000  N
  N5       1.0000 0.29310  0.84670  0.45158  Biso   1.000  N
  N6       1.0000 0.70690  0.34670  0.04842  Biso   1.000  N
  N7       1.0000 0.70690  0.15330  0.54842  Biso   1.000  N
  N8       1.0000 0.29310  0.65330  0.95158  Biso   1.000  N
  N9       1.0000 0.21870  0.74820  0.41404  Biso   1.000  N
  N10      1.0000 0.78130  0.24820  0.08596  Biso   1.000  N
  N11      1.0000 0.78130  0.25180  0.58596  Biso   1.000  N
  N12      1.0000 0.21870  0.75180  0.91404  Biso   1.000  N
  N13      1.0000 0.02800  0.57530  0.34220  Biso   1.000  N
  N14      1.0000 0.97200  0.07530  0.15780  Biso   1.000  N
  N15      1.0000 0.97200  0.42470  0.65780  Biso   1.000  N
  N16      1.0000 0.02800  0.92470  0.84220  Biso   1.000  N
  N17      1.0000 0.88310  0.41180  0.20463  Biso   1.000  N
  N18      1.0000 0.11690  0.91180  0.29537  Biso   1.000  N
  N19      1.0000 0.11690  0.58820  0.79537  Biso   1.000  N
  N20      1.0000 0.88310  0.08820  0.70463  Biso   1.000  N
  C1       1.0000 0.96270  0.16050  0.42230  Biso   1.000  C
  C2       1.0000 0.03730  0.66050  0.07770  Biso   1.000  C
  C3       1.0000 0.03730  0.83950  0.57770  Biso   1.000  C
  C4       1.0000 0.96270  0.33950  0.92230  Biso   1.000  C
  H1       1.0000 0.86490  0.17780  0.39750  Biso   1.000  H
  H2       1.0000 0.13510  0.67780  0.10250  Biso   1.000  H
  H3       1.0000 0.13510  0.82220  0.60250  Biso   1.000  H
  H4       1.0000 0.86490  0.32220  0.89750  Biso   1.000  H
  C5       1.0000 0.00750  0.28280  0.46090  Biso   1.000  C
  C6       1.0000 0.99250  0.78280  0.03910  Biso   1.000  C
  C7       1.0000 0.99250  0.71720  0.53910  Biso   1.000  C
  C8       1.0000 0.00750  0.21720  0.96090  Biso   1.000  C
  H5       1.0000 0.94190  0.38160  0.46190  Biso   1.000  H
  H6       1.0000 0.05810  0.88160  0.03810  Biso   1.000  H
  H7       1.0000 0.05810  0.61840  0.53810  Biso   1.000  H
  H8       1.0000 0.94190  0.11840  0.96190  Biso   1.000  H
  C9       1.0000 0.15060  0.25720  0.49809  Biso   1.000  C
  C10      1.0000 0.84940  0.75720  0.00191  Biso   1.000  C
  C11      1.0000 0.84940  0.74280  0.50191  Biso   1.000  C
  C12      1.0000 0.15060  0.24280  0.99809  Biso   1.000  C
  H9       1.0000 0.18100  0.33730  0.52510  Biso   1.000  H
  H10      1.0000 0.81900  0.83730  0.97490  Biso   1.000  H
  H11      1.0000 0.81900  0.66270  0.47490  Biso   1.000  H
  H12      1.0000 0.18100  0.16270  0.02510  Biso   1.000  H
  C13      1.0000 0.24820  0.11320  0.49513  Biso   1.000  C
  C14      1.0000 0.75180  0.61320  0.00487  Biso   1.000  C
  C15      1.0000 0.75180  0.88680  0.50487  Biso   1.000  C
  C16      1.0000 0.24820  0.38680  0.99513  Biso   1.000  C
  H13      1.0000 0.34660  0.09450  0.51960  Biso   1.000  H
  H14      1.0000 0.65340  0.59450  0.98040  Biso   1.000  H
  H15      1.0000 0.65340  0.90550  0.48040  Biso   1.000  H
  H16      1.0000 0.34660  0.40550  0.01960  Biso   1.000  H
  C17      1.0000 0.19650  0.99520  0.45459  Biso   1.000  C
  C18      1.0000 0.80350  0.49520  0.04541  Biso   1.000  C
  C19      1.0000 0.80350  0.00480  0.54541  Biso   1.000  C
  C20      1.0000 0.19650  0.50480  0.95459  Biso   1.000  C
  C21      1.0000 0.28510  0.59440  0.40273  Biso   1.000  C
  C22      1.0000 0.71490  0.09440  0.09727  Biso   1.000  C
  C23      1.0000 0.71490  0.40560  0.59727  Biso   1.000  C
  C24      1.0000 0.28510  0.90560  0.90273  Biso   1.000  C
  C25      1.0000 0.43980  0.52500  0.42926  Biso   1.000  C
  C26      1.0000 0.56020  0.02500  0.07074  Biso   1.000  C
  C27      1.0000 0.56020  0.47500  0.57074  Biso   1.000  C
  C28      1.0000 0.43980  0.97500  0.92926  Biso   1.000  C
  H17      1.0000 0.50510  0.58560  0.45660  Biso   1.000  H
  H18      1.0000 0.49490  0.08560  0.04340  Biso   1.000  H
  H19      1.0000 0.49490  0.41440  0.54340  Biso   1.000  H
  H20      1.0000 0.50510  0.91440  0.95660  Biso   1.000  H
  C29      1.0000 0.49220  0.37000  0.41478  Biso   1.000  C
  C30      1.0000 0.50780  0.87000  0.08522  Biso   1.000  C
  C31      1.0000 0.50780  0.63000  0.58522  Biso   1.000  C
  C32      1.0000 0.49220  0.13000  0.91478  Biso   1.000  C
  H21      1.0000 0.59360  0.32270  0.43230  Biso   1.000  H
  H22      1.0000 0.40640  0.82270  0.06770  Biso   1.000  H
  H23      1.0000 0.40640  0.67730  0.56770  Biso   1.000  H
  H24      1.0000 0.59360  0.17730  0.93230  Biso   1.000  H
  C33      1.0000 0.39280  0.27930  0.37282  Biso   1.000  C
  C34      1.0000 0.60720  0.77930  0.12718  Biso   1.000  C
  C35      1.0000 0.60720  0.72070  0.62718  Biso   1.000  C
  C36      1.0000 0.39280  0.22070  0.87282  Biso   1.000  C
  H25      1.0000 0.43090  0.17270  0.36310  Biso   1.000  H
  H26      1.0000 0.56910  0.67270  0.13690  Biso   1.000  H
  H27      1.0000 0.56910  0.82730  0.63690  Biso   1.000  H
  H28      1.0000 0.43090  0.32730  0.86310  Biso   1.000  H
  C37      1.0000 0.24360  0.34280  0.34635  Biso   1.000  C
  C38      1.0000 0.75640  0.84280  0.15365  Biso   1.000  C
  C39      1.0000 0.75640  0.65720  0.65365  Biso   1.000  C
  C40      1.0000 0.24360  0.15720  0.84635  Biso   1.000  C
  H29      1.0000 0.18310  0.28080  0.31840  Biso   1.000  H
  H30      1.0000 0.81690  0.78080  0.18160  Biso   1.000  H
  H31      1.0000 0.81690  0.71920  0.68160  Biso   1.000  H
  H32      1.0000 0.18310  0.21920  0.81840  Biso   1.000  H
  C41      1.0000 0.17870  0.50410  0.36107  Biso   1.000  C
  C42      1.0000 0.82130  0.00410  0.13893  Biso   1.000  C
  C43      1.0000 0.82130  0.49590  0.63893  Biso   1.000  C
  C44      1.0000 0.17870  0.99590  0.86107  Biso   1.000  C
  C45      1.0000 0.92190  0.50590  0.29759  Biso   1.000  C
  C46      1.0000 0.07810  0.00590  0.20241  Biso   1.000  C
  C47      1.0000 0.07810  0.49410  0.70241  Biso   1.000  C
  C48      1.0000 0.92190  0.99410  0.79759  Biso   1.000  C
  C49      1.0000 0.74640  0.47670  0.30195  Biso   1.000  C
  C50      1.0000 0.25360  0.97670  0.19805  Biso   1.000  C
  C51      1.0000 0.25360  0.52330  0.69805  Biso   1.000  C
  C52      1.0000 0.74640  0.02330  0.80195  Biso   1.000  C
  H33      1.0000 0.69910  0.49850  0.33450  Biso   1.000  H
  H34      1.0000 0.30090  0.99850  0.16550  Biso   1.000  H
  H35      1.0000 0.30090  0.50150  0.66550  Biso   1.000  H
  H36      1.0000 0.69910  0.00150  0.83450  Biso   1.000  H
  C53      1.0000 0.64310  0.41490  0.25734  Biso   1.000  C
  C54      1.0000 0.35690  0.91490  0.24266  Biso   1.000  C
  C55      1.0000 0.35690  0.58510  0.74266  Biso   1.000  C
  C56      1.0000 0.64310  0.08510  0.75734  Biso   1.000  C
  H37      1.0000 0.52490  0.39510  0.25940  Biso   1.000  H
  H38      1.0000 0.47510  0.89510  0.24060  Biso   1.000  H
  H39      1.0000 0.47510  0.60490  0.74060  Biso   1.000  H
  H40      1.0000 0.52490  0.10490  0.75940  Biso   1.000  H
  C57      1.0000 0.71560  0.38280  0.20998  Biso   1.000  C
  C58      1.0000 0.28440  0.88280  0.29002  Biso   1.000  C
  C59      1.0000 0.28440  0.61720  0.79002  Biso   1.000  C
  C60      1.0000 0.71560  0.11720  0.70998  Biso   1.000  C
  H41      1.0000 0.64490  0.33910  0.18040  Biso   1.000  H
  H42      1.0000 0.35510  0.83910  0.31960  Biso   1.000  H
  H43      1.0000 0.35510  0.66090  0.81960  Biso   1.000  H
  H44      1.0000 0.64490  0.16090  0.68040  Biso   1.000  H
  C61      1.0000 0.98310  0.47360  0.24766  Biso   1.000  C
  C62      1.0000 0.01690  0.97360  0.25234  Biso   1.000  C
  C63      1.0000 0.01690  0.52640  0.75234  Biso   1.000  C
  C64      1.0000 0.98310  0.02640  0.74766  Biso   1.000  C
  H45      1.0000 0.09980  0.49610  0.24390  Biso   1.000  H
  H46      1.0000 0.90020  0.99610  0.25610  Biso   1.000  H
  H47      1.0000 0.90020  0.50390  0.75610  Biso   1.000  H
  H48      1.0000 0.09980  0.00390  0.74390  Biso   1.000  H
