data_image0
_cell_length_a       8.88
_cell_length_b       12.9975
_cell_length_c       28.721
_cell_angle_alpha    90
_cell_angle_beta     92.97
_cell_angle_gamma    90

_symmetry_space_group_name_H-M    "P 1"
_symmetry_int_tables_number       1

loop_
  _symmetry_equiv_pos_as_xyz
  'x, y, z'

loop_
  _atom_site_label
  _atom_site_occupancy
  _atom_site_fract_x
  _atom_site_fract_y
  _atom_site_fract_z
  _atom_site_thermal_displace_type
  _atom_site_B_iso_or_equiv
  _atom_site_type_symbol
  Cu1      1.0000 0.26290  0.27770  0.70575  Biso   1.000  Cu
  Cu2      1.0000 0.73710  0.77770  0.79425  Biso   1.000  Cu
  Cu3      1.0000 0.73710  0.72230  0.29425  Biso   1.000  Cu
  Cu4      1.0000 0.26290  0.22230  0.20575  Biso   1.000  Cu
  Cu5      1.0000 0.02994  0.27560  0.58182  Biso   1.000  Cu
  Cu6      1.0000 0.97006  0.77560  0.91818  Biso   1.000  Cu
  Cu7      1.0000 0.97006  0.72440  0.41818  Biso   1.000  Cu
  Cu8      1.0000 0.02994  0.22440  0.08182  Biso   1.000  Cu
  C1       1.0000 0.16440  0.24800  0.36860  Biso   1.000  C
  C2       1.0000 0.83560  0.74800  0.13140  Biso   1.000  C
  C3       1.0000 0.83560  0.75200  0.63140  Biso   1.000  C
  C4       1.0000 0.16440  0.25200  0.86860  Biso   1.000  C
  C5       1.0000 0.14020  0.32960  0.33810  Biso   1.000  C
  C6       1.0000 0.85980  0.82960  0.16190  Biso   1.000  C
  C7       1.0000 0.85980  0.67040  0.66190  Biso   1.000  C
  C8       1.0000 0.14020  0.17040  0.83810  Biso   1.000  C
  C9       1.0000 0.16740  0.31760  0.29170  Biso   1.000  C
  C10      1.0000 0.83260  0.81760  0.20830  Biso   1.000  C
  C11      1.0000 0.83260  0.68240  0.70830  Biso   1.000  C
  C12      1.0000 0.16740  0.18240  0.79170  Biso   1.000  C
  C13      1.0000 0.24540  0.15090  0.30400  Biso   1.000  C
  C14      1.0000 0.75460  0.65090  0.19600  Biso   1.000  C
  C15      1.0000 0.75460  0.84910  0.69600  Biso   1.000  C
  C16      1.0000 0.24540  0.34910  0.80400  Biso   1.000  C
  C17      1.0000 0.21920  0.15760  0.35090  Biso   1.000  C
  C18      1.0000 0.78080  0.65760  0.14910  Biso   1.000  C
  C19      1.0000 0.78080  0.84240  0.64910  Biso   1.000  C
  C20      1.0000 0.21920  0.34240  0.85090  Biso   1.000  C
  C21      1.0000 0.44030  0.19220  0.63830  Biso   1.000  C
  C22      1.0000 0.55970  0.69220  0.86170  Biso   1.000  C
  C23      1.0000 0.55970  0.80780  0.36170  Biso   1.000  C
  C24      1.0000 0.44030  0.30780  0.13830  Biso   1.000  C
  C25      1.0000 0.33910  0.18680  0.57170  Biso   1.000  C
  C26      1.0000 0.66090  0.68680  0.92830  Biso   1.000  C
  C27      1.0000 0.66090  0.81320  0.42830  Biso   1.000  C
  C28      1.0000 0.33910  0.31320  0.07170  Biso   1.000  C
  C29      1.0000 0.85280  0.36430  0.64880  Biso   1.000  C
  C30      1.0000 0.14720  0.86430  0.85120  Biso   1.000  C
  C31      1.0000 0.14720  0.63570  0.35120  Biso   1.000  C
  C32      1.0000 0.85280  0.13570  0.14880  Biso   1.000  C
  C33      1.0000 0.95670  0.37210  0.71520  Biso   1.000  C
  C34      1.0000 0.04330  0.87210  0.78480  Biso   1.000  C
  C35      1.0000 0.04330  0.62790  0.28480  Biso   1.000  C
  C36      1.0000 0.95670  0.12790  0.21520  Biso   1.000  C
  C37      1.0000 0.54190  0.18550  0.68040  Biso   1.000  C
  C38      1.0000 0.45810  0.68550  0.81960  Biso   1.000  C
  C39      1.0000 0.45810  0.81450  0.31960  Biso   1.000  C
  C40      1.0000 0.54190  0.31450  0.18040  Biso   1.000  C
  C41      1.0000 0.68420  0.14560  0.68150  Biso   1.000  C
  C42      1.0000 0.31580  0.64560  0.81850  Biso   1.000  C
  C43      1.0000 0.31580  0.85440  0.31850  Biso   1.000  C
  C44      1.0000 0.68420  0.35440  0.18150  Biso   1.000  C
  C45      1.0000 0.77040  0.14700  0.72310  Biso   1.000  C
  C46      1.0000 0.22960  0.64700  0.77690  Biso   1.000  C
  C47      1.0000 0.22960  0.85300  0.27690  Biso   1.000  C
  C48      1.0000 0.77040  0.35300  0.22310  Biso   1.000  C
  C49      1.0000 0.70850  0.18830  0.76190  Biso   1.000  C
  C50      1.0000 0.29150  0.68830  0.73810  Biso   1.000  C
  C51      1.0000 0.29150  0.81170  0.23810  Biso   1.000  C
  C52      1.0000 0.70850  0.31170  0.26190  Biso   1.000  C
  C53      1.0000 0.56480  0.22520  0.75810  Biso   1.000  C
  C54      1.0000 0.43520  0.72520  0.74190  Biso   1.000  C
  C55      1.0000 0.43520  0.77480  0.24190  Biso   1.000  C
  C56      1.0000 0.56480  0.27480  0.25810  Biso   1.000  C
  C57      1.0000 0.75420  0.37260  0.60690  Biso   1.000  C
  C58      1.0000 0.24580  0.87260  0.89310  Biso   1.000  C
  C59      1.0000 0.24580  0.62740  0.39310  Biso   1.000  C
  C60      1.0000 0.75420  0.12740  0.10690  Biso   1.000  C
  C61      1.0000 0.61290  0.41640  0.60540  Biso   1.000  C
  C62      1.0000 0.38710  0.91640  0.89460  Biso   1.000  C
  C63      1.0000 0.38710  0.58360  0.39460  Biso   1.000  C
  C64      1.0000 0.61290  0.08360  0.10540  Biso   1.000  C
  C65      1.0000 0.52930  0.41740  0.56350  Biso   1.000  C
  C66      1.0000 0.47070  0.91740  0.93650  Biso   1.000  C
  C67      1.0000 0.47070  0.58260  0.43650  Biso   1.000  C
  C68      1.0000 0.52930  0.08260  0.06350  Biso   1.000  C
  C69      1.0000 0.58820  0.37530  0.52470  Biso   1.000  C
  C70      1.0000 0.41180  0.87530  0.97530  Biso   1.000  C
  C71      1.0000 0.41180  0.62470  0.47530  Biso   1.000  C
  C72      1.0000 0.58820  0.12470  0.02470  Biso   1.000  C
  C73      1.0000 0.73260  0.33460  0.52870  Biso   1.000  C
  C74      1.0000 0.26740  0.83460  0.97130  Biso   1.000  C
  C75      1.0000 0.26740  0.66540  0.47130  Biso   1.000  C
  C76      1.0000 0.73260  0.16540  0.02870  Biso   1.000  C
  N1       1.0000 0.18440  0.98760  0.66620  Biso   1.000  N
  N2       1.0000 0.81560  0.48760  0.83380  Biso   1.000  N
  N3       1.0000 0.81560  0.01240  0.33380  Biso   1.000  N
  N4       1.0000 0.18440  0.51240  0.16620  Biso   1.000  N
  N5       1.0000 0.18320  0.54840  0.59920  Biso   1.000  N
  N6       1.0000 0.81680  0.04840  0.90080  Biso   1.000  N
  N7       1.0000 0.81680  0.45160  0.40080  Biso   1.000  N
  N8       1.0000 0.18320  0.95160  0.09920  Biso   1.000  N
  N9       1.0000 0.21980  0.22960  0.27450  Biso   1.000  N
  N10      1.0000 0.78020  0.72960  0.22550  Biso   1.000  N
  N11      1.0000 0.78020  0.77040  0.72550  Biso   1.000  N
  N12      1.0000 0.21980  0.27040  0.77450  Biso   1.000  N
  N13      1.0000 0.23990  0.23250  0.59760  Biso   1.000  N
  N14      1.0000 0.76010  0.73250  0.90240  Biso   1.000  N
  N15      1.0000 0.76010  0.76750  0.40240  Biso   1.000  N
  N16      1.0000 0.23990  0.26750  0.09760  Biso   1.000  N
  N17      1.0000 0.30680  0.23520  0.64160  Biso   1.000  N
  N18      1.0000 0.69320  0.73520  0.85840  Biso   1.000  N
  N19      1.0000 0.69320  0.76480  0.35840  Biso   1.000  N
  N20      1.0000 0.30680  0.26480  0.14160  Biso   1.000  N
  N21      1.0000 0.46550  0.15900  0.59520  Biso   1.000  N
  N22      1.0000 0.53450  0.65900  0.90480  Biso   1.000  N
  N23      1.0000 0.53450  0.84100  0.40480  Biso   1.000  N
  N24      1.0000 0.46550  0.34100  0.09520  Biso   1.000  N
  N25      1.0000 0.05170  0.31750  0.68960  Biso   1.000  N
  N26      1.0000 0.94830  0.81750  0.81040  Biso   1.000  N
  N27      1.0000 0.94830  0.68250  0.31040  Biso   1.000  N
  N28      1.0000 0.05170  0.18250  0.18960  Biso   1.000  N
  N29      1.0000 0.98210  0.31440  0.64640  Biso   1.000  N
  N30      1.0000 0.01790  0.81440  0.85360  Biso   1.000  N
  N31      1.0000 0.01790  0.68560  0.35360  Biso   1.000  N
  N32      1.0000 0.98210  0.18560  0.14640  Biso   1.000  N
  N33      1.0000 0.83240  0.40280  0.69120  Biso   1.000  N
  N34      1.0000 0.16760  0.90280  0.80880  Biso   1.000  N
  N35      1.0000 0.16760  0.59720  0.30880  Biso   1.000  N
  N36      1.0000 0.83240  0.09720  0.19120  Biso   1.000  N
  N37      1.0000 0.47960  0.22460  0.71840  Biso   1.000  N
  N38      1.0000 0.52040  0.72460  0.78160  Biso   1.000  N
  N39      1.0000 0.52040  0.77540  0.28160  Biso   1.000  N
  N40      1.0000 0.47960  0.27540  0.21840  Biso   1.000  N
  N41      1.0000 0.81470  0.33280  0.56880  Biso   1.000  N
  N42      1.0000 0.18530  0.83280  0.93120  Biso   1.000  N
  N43      1.0000 0.18530  0.66720  0.43120  Biso   1.000  N
  N44      1.0000 0.81470  0.16720  0.06880  Biso   1.000  N
  O1       1.0000 0.32290  0.43980  0.70510  Biso   1.000  O
  O2       1.0000 0.67710  0.93980  0.79490  Biso   1.000  O
  O3       1.0000 0.67710  0.56020  0.29490  Biso   1.000  O
  O4       1.0000 0.32290  0.06020  0.20510  Biso   1.000  O
  O5       1.0000 0.94400  0.11280  0.58650  Biso   1.000  O
  O6       1.0000 0.05600  0.61280  0.91350  Biso   1.000  O
  O7       1.0000 0.05600  0.88720  0.41350  Biso   1.000  O
  O8       1.0000 0.94400  0.38720  0.08650  Biso   1.000  O
  O9       1.0000 0.59300  0.50100  0.73380  Biso   1.000  O
  O10      1.0000 0.40700  0.00100  0.76620  Biso   1.000  O
  O11      1.0000 0.40700  0.49900  0.26620  Biso   1.000  O
  O12      1.0000 0.59300  0.99900  0.23380  Biso   1.000  O
  O13      1.0000 0.67670  0.04510  0.54820  Biso   1.000  O
  O14      1.0000 0.32330  0.54510  0.95180  Biso   1.000  O
  O15      1.0000 0.32330  0.95490  0.45180  Biso   1.000  O
  O16      1.0000 0.67670  0.45490  0.04820  Biso   1.000  O
  O17      1.0000 0.52010  0.86340  0.53200  Biso   1.000  O
  O18      1.0000 0.47990  0.36340  0.96800  Biso   1.000  O
  O19      1.0000 0.47990  0.13660  0.46800  Biso   1.000  O
  O20      1.0000 0.52010  0.63660  0.03200  Biso   1.000  O
  O21      1.0000 0.40140  0.78720  0.61360  Biso   1.000  O
  O22      1.0000 0.59860  0.28720  0.88640  Biso   1.000  O
  O23      1.0000 0.59860  0.21280  0.38640  Biso   1.000  O
  O24      1.0000 0.40140  0.71280  0.11360  Biso   1.000  O
  O25      1.0000 0.11920  0.04490  0.69100  Biso   1.000  O
  O26      1.0000 0.88080  0.54490  0.80900  Biso   1.000  O
  O27      1.0000 0.88080  0.95510  0.30900  Biso   1.000  O
  O28      1.0000 0.11920  0.45510  0.19100  Biso   1.000  O
  O29      1.0000 0.13930  0.96890  0.62670  Biso   1.000  O
  O30      1.0000 0.86070  0.46890  0.87330  Biso   1.000  O
  O31      1.0000 0.86070  0.03110  0.37330  Biso   1.000  O
  O32      1.0000 0.13930  0.53110  0.12670  Biso   1.000  O
  O33      1.0000 0.31330  0.95300  0.67540  Biso   1.000  O
  O34      1.0000 0.68670  0.45300  0.82460  Biso   1.000  O
  O35      1.0000 0.68670  0.04700  0.32460  Biso   1.000  O
  O36      1.0000 0.31330  0.54700  0.17540  Biso   1.000  O
  O37      1.0000 0.10200  0.48000  0.60100  Biso   1.000  O
  O38      1.0000 0.89800  0.98000  0.89900  Biso   1.000  O
  O39      1.0000 0.89800  0.52000  0.39900  Biso   1.000  O
  O40      1.0000 0.10200  0.02000  0.10100  Biso   1.000  O
  O41      1.0000 0.24200  0.58900  0.63200  Biso   1.000  O
  O42      1.0000 0.75800  0.08900  0.86800  Biso   1.000  O
  O43      1.0000 0.75800  0.41100  0.36800  Biso   1.000  O
  O44      1.0000 0.24200  0.91100  0.13200  Biso   1.000  O
  O45      1.0000 0.22600  0.57500  0.55970  Biso   1.000  O
  O46      1.0000 0.77400  0.07500  0.94030  Biso   1.000  O
  O47      1.0000 0.77400  0.42500  0.44030  Biso   1.000  O
  O48      1.0000 0.22600  0.92500  0.05970  Biso   1.000  O
  C77      1.0000 0.13180  0.25680  0.41870  Biso   1.000  C
  C78      1.0000 0.86820  0.75680  0.08130  Biso   1.000  C
  C79      1.0000 0.86820  0.74320  0.58130  Biso   1.000  C
  C80      1.0000 0.13180  0.24320  0.91870  Biso   1.000  C
  C81      1.0000 0.15960  0.34570  0.44420  Biso   1.000  C
  C82      1.0000 0.84040  0.84570  0.05580  Biso   1.000  C
  C83      1.0000 0.84040  0.65430  0.55580  Biso   1.000  C
  C84      1.0000 0.15960  0.15430  0.94420  Biso   1.000  C
  C85      1.0000 0.12790  0.34940  0.49080  Biso   1.000  C
  C86      1.0000 0.87210  0.84940  0.00920  Biso   1.000  C
  C87      1.0000 0.87210  0.65060  0.50920  Biso   1.000  C
  C88      1.0000 0.12790  0.15060  0.99080  Biso   1.000  C
  C89      1.0000 0.03760  0.18440  0.48800  Biso   1.000  C
  C90      1.0000 0.96240  0.68440  0.01200  Biso   1.000  C
  C91      1.0000 0.96240  0.81560  0.51200  Biso   1.000  C
  C92      1.0000 0.03760  0.31560  0.98800  Biso   1.000  C
  C93      1.0000 0.06670  0.17520  0.44150  Biso   1.000  C
  C94      1.0000 0.93330  0.67520  0.05850  Biso   1.000  C
  C95      1.0000 0.93330  0.82480  0.55850  Biso   1.000  C
  C96      1.0000 0.06670  0.32480  0.94150  Biso   1.000  C
  N45      1.0000 0.06770  0.26930  0.51280  Biso   1.000  N
  N46      1.0000 0.93230  0.76930  0.98720  Biso   1.000  N
  N47      1.0000 0.93230  0.73070  0.48720  Biso   1.000  N
  N48      1.0000 0.06770  0.23070  0.01280  Biso   1.000  N
  O49      1.0000 0.12200  0.48500  0.57730  Biso   1.000  O
  O50      1.0000 0.87800  0.98500  0.92270  Biso   1.000  O
  O51      1.0000 0.87800  0.51500  0.42270  Biso   1.000  O
  O52      1.0000 0.12200  0.01500  0.07730  Biso   1.000  O
  O53      1.0000 0.26000  0.60900  0.58440  Biso   1.000  O
  O54      1.0000 0.74000  0.10900  0.91560  Biso   1.000  O
  O55      1.0000 0.74000  0.39100  0.41560  Biso   1.000  O
  O56      1.0000 0.26000  0.89100  0.08440  Biso   1.000  O
  O57      1.0000 0.15500  0.55900  0.64140  Biso   1.000  O
  O58      1.0000 0.84500  0.05900  0.85860  Biso   1.000  O
  O59      1.0000 0.84500  0.44100  0.35860  Biso   1.000  O
  O60      1.0000 0.15500  0.94100  0.14140  Biso   1.000  O
  H1       1.0000 0.09900  0.39200  0.34700  Biso   1.000  H
  H2       1.0000 0.90100  0.89200  0.15300  Biso   1.000  H
  H3       1.0000 0.90100  0.60800  0.65300  Biso   1.000  H
  H4       1.0000 0.09900  0.10800  0.84700  Biso   1.000  H
  H5       1.0000 0.16100  0.37100  0.26900  Biso   1.000  H
  H6       1.0000 0.83900  0.87100  0.23100  Biso   1.000  H
  H7       1.0000 0.83900  0.62900  0.73100  Biso   1.000  H
  H8       1.0000 0.16100  0.12900  0.76900  Biso   1.000  H
  H9       1.0000 0.28200  0.08500  0.28800  Biso   1.000  H
  H10      1.0000 0.71800  0.58500  0.21200  Biso   1.000  H
  H11      1.0000 0.71800  0.91500  0.71200  Biso   1.000  H
  H12      1.0000 0.28200  0.41500  0.78800  Biso   1.000  H
  H13      1.0000 0.25100  0.10300  0.37300  Biso   1.000  H
  H14      1.0000 0.74900  0.60300  0.12700  Biso   1.000  H
  H15      1.0000 0.74900  0.89700  0.62700  Biso   1.000  H
  H16      1.0000 0.25100  0.39700  0.87300  Biso   1.000  H
  H17      1.0000 0.32300  0.16800  0.54000  Biso   1.000  H
  H18      1.0000 0.67700  0.66800  0.96000  Biso   1.000  H
  H19      1.0000 0.67700  0.83200  0.46000  Biso   1.000  H
  H20      1.0000 0.32300  0.33200  0.04000  Biso   1.000  H
  H21      1.0000 0.98900  0.39000  0.75100  Biso   1.000  H
  H22      1.0000 0.01100  0.89000  0.74900  Biso   1.000  H
  H23      1.0000 0.01100  0.61000  0.24900  Biso   1.000  H
  H24      1.0000 0.98900  0.11000  0.25100  Biso   1.000  H
  H25      1.0000 0.40400  0.45900  0.70900  Biso   1.000  H
  H26      1.0000 0.59600  0.95900  0.79100  Biso   1.000  H
  H27      1.0000 0.59600  0.54100  0.29100  Biso   1.000  H
  H28      1.0000 0.40400  0.04100  0.20900  Biso   1.000  H
  H29      1.0000 0.28400  0.47400  0.68100  Biso   1.000  H
  H30      1.0000 0.71600  0.97400  0.81900  Biso   1.000  H
  H31      1.0000 0.71600  0.52600  0.31900  Biso   1.000  H
  H32      1.0000 0.28400  0.02600  0.18100  Biso   1.000  H
  H33      1.0000 0.71900  0.12100  0.65700  Biso   1.000  H
  H34      1.0000 0.28100  0.62100  0.84300  Biso   1.000  H
  H35      1.0000 0.28100  0.87900  0.34300  Biso   1.000  H
  H36      1.0000 0.71900  0.37900  0.15700  Biso   1.000  H
  H37      1.0000 0.86300  0.12500  0.72600  Biso   1.000  H
  H38      1.0000 0.13700  0.62500  0.77400  Biso   1.000  H
  H39      1.0000 0.13700  0.87500  0.27400  Biso   1.000  H
  H40      1.0000 0.86300  0.37500  0.22600  Biso   1.000  H
  H41      1.0000 0.76900  0.19800  0.79100  Biso   1.000  H
  H42      1.0000 0.23100  0.69800  0.70900  Biso   1.000  H
  H43      1.0000 0.23100  0.80200  0.20900  Biso   1.000  H
  H44      1.0000 0.76900  0.30200  0.29100  Biso   1.000  H
  H45      1.0000 0.52700  0.25500  0.78300  Biso   1.000  H
  H46      1.0000 0.47300  0.75500  0.71700  Biso   1.000  H
  H47      1.0000 0.47300  0.74500  0.21700  Biso   1.000  H
  H48      1.0000 0.52700  0.24500  0.28300  Biso   1.000  H
  H49      1.0000 0.00500  0.07700  0.60900  Biso   1.000  H
  H50      1.0000 0.99500  0.57700  0.89100  Biso   1.000  H
  H51      1.0000 0.99500  0.92300  0.39100  Biso   1.000  H
  H52      1.0000 0.00500  0.42300  0.10900  Biso   1.000  H
  H53      1.0000 0.88100  0.08800  0.58100  Biso   1.000  H
  H54      1.0000 0.11900  0.58800  0.91900  Biso   1.000  H
  H55      1.0000 0.11900  0.91200  0.41900  Biso   1.000  H
  H56      1.0000 0.88100  0.41200  0.08100  Biso   1.000  H
  H57      1.0000 0.56900  0.43900  0.63100  Biso   1.000  H
  H58      1.0000 0.43100  0.93900  0.86900  Biso   1.000  H
  H59      1.0000 0.43100  0.56100  0.36900  Biso   1.000  H
  H60      1.0000 0.56900  0.06100  0.13100  Biso   1.000  H
  H61      1.0000 0.43000  0.44000  0.55800  Biso   1.000  H
  H62      1.0000 0.57000  0.94000  0.94200  Biso   1.000  H
  H63      1.0000 0.57000  0.56000  0.44200  Biso   1.000  H
  H64      1.0000 0.43000  0.06000  0.05800  Biso   1.000  H
  H65      1.0000 0.53900  0.37400  0.49600  Biso   1.000  H
  H66      1.0000 0.46100  0.87400  0.00400  Biso   1.000  H
  H67      1.0000 0.46100  0.62600  0.50400  Biso   1.000  H
  H68      1.0000 0.53900  0.12600  0.99600  Biso   1.000  H
  H69      1.0000 0.76800  0.30300  0.50300  Biso   1.000  H
  H70      1.0000 0.23200  0.80300  0.99700  Biso   1.000  H
  H71      1.0000 0.23200  0.69700  0.49700  Biso   1.000  H
  H72      1.0000 0.76800  0.19700  0.00300  Biso   1.000  H
  H73      1.0000 0.62700  0.49200  0.76400  Biso   1.000  H
  H74      1.0000 0.37300  0.99200  0.73600  Biso   1.000  H
  H75      1.0000 0.37300  0.50800  0.23600  Biso   1.000  H
  H76      1.0000 0.62700  0.00800  0.26400  Biso   1.000  H
  H77      1.0000 0.68200  0.47200  0.72100  Biso   1.000  H
  H78      1.0000 0.31800  0.97200  0.77900  Biso   1.000  H
  H79      1.0000 0.31800  0.52800  0.27900  Biso   1.000  H
  H80      1.0000 0.68200  0.02800  0.22100  Biso   1.000  H
  H81      1.0000 0.61500  0.06700  0.55600  Biso   1.000  H
  H82      1.0000 0.38500  0.56700  0.94400  Biso   1.000  H
  H83      1.0000 0.38500  0.93300  0.44400  Biso   1.000  H
  H84      1.0000 0.61500  0.43300  0.05600  Biso   1.000  H
  H85      1.0000 0.61700  0.98100  0.53900  Biso   1.000  H
  H86      1.0000 0.38300  0.48100  0.96100  Biso   1.000  H
  H87      1.0000 0.38300  0.01900  0.46100  Biso   1.000  H
  H88      1.0000 0.61700  0.51900  0.03900  Biso   1.000  H
  H89      1.0000 0.50300  0.83400  0.55800  Biso   1.000  H
  H90      1.0000 0.49700  0.33400  0.94200  Biso   1.000  H
  H91      1.0000 0.49700  0.16600  0.44200  Biso   1.000  H
  H92      1.0000 0.50300  0.66600  0.05800  Biso   1.000  H
  H93      1.0000 0.20600  0.40500  0.43300  Biso   1.000  H
  H94      1.0000 0.79400  0.90500  0.06700  Biso   1.000  H
  H95      1.0000 0.79400  0.59500  0.56700  Biso   1.000  H
  H96      1.0000 0.20600  0.09500  0.93300  Biso   1.000  H
  H97      1.0000 0.15200  0.40700  0.50900  Biso   1.000  H
  H98      1.0000 0.84800  0.90700  0.99100  Biso   1.000  H
  H99      1.0000 0.84800  0.59300  0.49100  Biso   1.000  H
  H100     1.0000 0.15200  0.09300  0.00900  Biso   1.000  H
  H101     1.0000 0.00000  0.12200  0.50700  Biso   1.000  H
  H102     1.0000 0.00000  0.62200  0.99300  Biso   1.000  H
  H103     1.0000 0.00000  0.87800  0.49300  Biso   1.000  H
  H104     1.0000 0.00000  0.37800  0.00700  Biso   1.000  H
  H105     1.0000 0.03100  0.11000  0.42400  Biso   1.000  H
  H106     1.0000 0.96900  0.61000  0.07600  Biso   1.000  H
  H107     1.0000 0.96900  0.89000  0.57600  Biso   1.000  H
  H108     1.0000 0.03100  0.39000  0.92400  Biso   1.000  H
