data_image0
_cell_length_a       8.8757
_cell_length_b       15.288
_cell_length_c       21.2854
_cell_angle_alpha    90
_cell_angle_beta     90
_cell_angle_gamma    90

_symmetry_space_group_name_H-M    "P 1"
_symmetry_int_tables_number       1

loop_
  _symmetry_equiv_pos_as_xyz
  'x, y, z'

loop_
  _atom_site_label
  _atom_site_occupancy
  _atom_site_fract_x
  _atom_site_fract_y
  _atom_site_fract_z
  _atom_site_thermal_displace_type
  _atom_site_B_iso_or_equiv
  _atom_site_type_symbol
  Cu1      1.0000 0.06545  0.40270  0.81360  Biso   1.000  Cu
  Cu2      1.0000 0.43455  0.59730  0.31360  Biso   1.000  Cu
  Cu3      1.0000 0.93455  0.90270  0.68640  Biso   1.000  Cu
  Cu4      1.0000 0.56545  0.09730  0.18640  Biso   1.000  Cu
  O1       1.0000 0.24910  0.34498  0.84124  Biso   1.000  O
  O2       1.0000 0.25090  0.65502  0.34124  Biso   1.000  O
  O3       1.0000 0.75090  0.84498  0.65876  Biso   1.000  O
  O4       1.0000 0.74910  0.15502  0.15876  Biso   1.000  O
  C1       1.0000 0.48650  0.27760  0.83960  Biso   1.000  C
  C2       1.0000 0.01350  0.72240  0.33960  Biso   1.000  C
  C3       1.0000 0.51350  0.77760  0.66040  Biso   1.000  C
  C4       1.0000 0.98650  0.22240  0.16040  Biso   1.000  C
  F1       1.0000 0.55610  0.32280  0.87830  Biso   1.000  F
  F2       1.0000 0.94390  0.67720  0.37830  Biso   1.000  F
  F3       1.0000 0.44390  0.82280  0.62170  Biso   1.000  F
  F4       1.0000 0.05610  0.17720  0.12170  Biso   1.000  F
  F5       1.0000 0.57580  0.23610  0.79991  Biso   1.000  F
  F6       1.0000 0.92420  0.76390  0.29991  Biso   1.000  F
  F7       1.0000 0.42420  0.73610  0.70009  Biso   1.000  F
  F8       1.0000 0.07580  0.26390  0.20009  Biso   1.000  F
  F9       1.0000 0.43490  0.21240  0.87240  Biso   1.000  F
  F10      1.0000 0.06510  0.78760  0.37240  Biso   1.000  F
  F11      1.0000 0.56510  0.71240  0.62760  Biso   1.000  F
  F12      1.0000 0.93490  0.28760  0.12760  Biso   1.000  F
  C5       1.0000 0.35820  0.32581  0.80583  Biso   1.000  C
  C6       1.0000 0.14180  0.67419  0.30583  Biso   1.000  C
  C7       1.0000 0.64180  0.82581  0.69417  Biso   1.000  C
  C8       1.0000 0.85820  0.17419  0.19417  Biso   1.000  C
  C9       1.0000 0.37330  0.34430  0.74261  Biso   1.000  C
  C10      1.0000 0.12670  0.65570  0.24261  Biso   1.000  C
  C11      1.0000 0.62670  0.84430  0.75739  Biso   1.000  C
  C12      1.0000 0.87330  0.15570  0.25739  Biso   1.000  C
  H1       1.0000 0.46100  0.32590  0.72170  Biso   1.000  H
  H2       1.0000 0.03900  0.67410  0.22170  Biso   1.000  H
  H3       1.0000 0.53900  0.82590  0.77830  Biso   1.000  H
  H4       1.0000 0.96100  0.17410  0.27830  Biso   1.000  H
  C13      1.0000 0.26440  0.38870  0.70907  Biso   1.000  C
  C14      1.0000 0.23560  0.61130  0.20907  Biso   1.000  C
  C15      1.0000 0.73560  0.88870  0.79093  Biso   1.000  C
  C16      1.0000 0.76440  0.11130  0.29093  Biso   1.000  C
  C17      1.0000 0.29310  0.40540  0.63930  Biso   1.000  C
  C18      1.0000 0.20690  0.59460  0.13930  Biso   1.000  C
  C19      1.0000 0.70690  0.90540  0.86070  Biso   1.000  C
  C20      1.0000 0.79310  0.09460  0.36070  Biso   1.000  C
  F13      1.0000 0.30100  0.32690  0.60930  Biso   1.000  F
  F14      1.0000 0.19900  0.67310  0.10930  Biso   1.000  F
  F15      1.0000 0.69900  0.82690  0.89070  Biso   1.000  F
  F16      1.0000 0.80100  0.17310  0.39070  Biso   1.000  F
  F17      1.0000 0.41400  0.43900  0.62840  Biso   1.000  F
  F18      1.0000 0.08600  0.56100  0.12840  Biso   1.000  F
  F19      1.0000 0.58600  0.93900  0.87160  Biso   1.000  F
  F20      1.0000 0.91400  0.06100  0.37160  Biso   1.000  F
  F21      1.0000 0.19130  0.44810  0.61280  Biso   1.000  F
  F22      1.0000 0.30870  0.55190  0.11280  Biso   1.000  F
  F23      1.0000 0.80870  0.94810  0.88720  Biso   1.000  F
  F24      1.0000 0.69130  0.05190  0.38720  Biso   1.000  F
  O5       1.0000 0.14240  0.41640  0.72808  Biso   1.000  O
  O6       1.0000 0.35760  0.58360  0.22808  Biso   1.000  O
  O7       1.0000 0.85760  0.91640  0.77192  Biso   1.000  O
  O8       1.0000 0.64240  0.08360  0.27192  Biso   1.000  O
  O9       1.0000 0.99610  0.40655  0.90064  Biso   1.000  O
  O10      1.0000 0.50390  0.59345  0.40064  Biso   1.000  O
  O11      1.0000 0.00390  0.90655  0.59936  Biso   1.000  O
  O12      1.0000 0.49610  0.09345  0.09936  Biso   1.000  O
  C21      1.0000 0.86640  0.45030  0.99140  Biso   1.000  C
  C22      1.0000 0.63360  0.54970  0.49140  Biso   1.000  C
  C23      1.0000 0.13360  0.95030  0.50860  Biso   1.000  C
  C24      1.0000 0.36640  0.04970  0.00860  Biso   1.000  C
  F25      1.0000 0.76600  0.51160  0.00800  Biso   1.000  F
  F26      1.0000 0.73400  0.48840  0.50800  Biso   1.000  F
  F27      1.0000 0.23400  0.01160  0.49200  Biso   1.000  F
  F28      1.0000 0.26600  0.98840  0.99200  Biso   1.000  F
  F29      1.0000 0.99470  0.44220  0.02102  Biso   1.000  F
  F30      1.0000 0.50530  0.55780  0.52102  Biso   1.000  F
  F31      1.0000 0.00530  0.94220  0.47898  Biso   1.000  F
  F32      1.0000 0.49470  0.05780  0.97898  Biso   1.000  F
  F33      1.0000 0.81060  0.37850  0.00820  Biso   1.000  F
  F34      1.0000 0.68940  0.62150  0.50820  Biso   1.000  F
  F35      1.0000 0.18940  0.87850  0.49180  Biso   1.000  F
  F36      1.0000 0.31060  0.12150  0.99180  Biso   1.000  F
  C25      1.0000 0.89120  0.45350  0.91965  Biso   1.000  C
  C26      1.0000 0.60880  0.54650  0.41965  Biso   1.000  C
  C27      1.0000 0.10880  0.95350  0.58035  Biso   1.000  C
  C28      1.0000 0.39120  0.04650  0.08035  Biso   1.000  C
  C29      1.0000 0.79510  0.50320  0.88480  Biso   1.000  C
  C30      1.0000 0.70490  0.49680  0.38480  Biso   1.000  C
  C31      1.0000 0.20490  0.00320  0.61520  Biso   1.000  C
  C32      1.0000 0.29510  0.99680  0.11520  Biso   1.000  C
  H5       1.0000 0.72300  0.53730  0.90590  Biso   1.000  H
  H6       1.0000 0.77700  0.46270  0.40590  Biso   1.000  H
  H7       1.0000 0.27700  0.03730  0.59410  Biso   1.000  H
  H8       1.0000 0.22300  0.96270  0.09410  Biso   1.000  H
  C33      1.0000 0.79820  0.50620  0.82050  Biso   1.000  C
  C34      1.0000 0.70180  0.49380  0.32050  Biso   1.000  C
  C35      1.0000 0.20180  0.00620  0.67950  Biso   1.000  C
  C36      1.0000 0.29820  0.99380  0.17950  Biso   1.000  C
  C37      1.0000 0.68180  0.56010  0.78500  Biso   1.000  C
  C38      1.0000 0.81820  0.43990  0.28500  Biso   1.000  C
  C39      1.0000 0.31820  0.06010  0.71500  Biso   1.000  C
  C40      1.0000 0.18180  0.93990  0.21500  Biso   1.000  C
  F37      1.0000 0.62400  0.50930  0.73560  Biso   1.000  F
  F38      1.0000 0.87600  0.49070  0.23560  Biso   1.000  F
  F39      1.0000 0.37600  0.00930  0.76440  Biso   1.000  F
  F40      1.0000 0.12400  0.99070  0.26440  Biso   1.000  F
  F41      1.0000 0.56700  0.58220  0.81380  Biso   1.000  F
  F42      1.0000 0.93300  0.41780  0.31380  Biso   1.000  F
  F43      1.0000 0.43300  0.08220  0.68620  Biso   1.000  F
  F44      1.0000 0.06700  0.91780  0.18620  Biso   1.000  F
  F45      1.0000 0.73320  0.62300  0.75590  Biso   1.000  F
  F46      1.0000 0.76680  0.37700  0.25590  Biso   1.000  F
  F47      1.0000 0.26680  0.12300  0.74410  Biso   1.000  F
  F48      1.0000 0.23320  0.87700  0.24410  Biso   1.000  F
  O13      1.0000 0.89070  0.46822  0.78458  Biso   1.000  O
  O14      1.0000 0.60930  0.53178  0.28458  Biso   1.000  O
  O15      1.0000 0.10930  0.96822  0.71542  Biso   1.000  O
  O16      1.0000 0.39070  0.03178  0.21542  Biso   1.000  O
  O17      1.0000 0.18720  0.54435  0.84042  Biso   1.000  O
  O18      1.0000 0.31280  0.45565  0.34042  Biso   1.000  O
  O19      1.0000 0.81280  0.04435  0.65958  Biso   1.000  O
  O20      1.0000 0.68720  0.95565  0.15958  Biso   1.000  O
  C41      1.0000 0.17910  0.62360  0.84269  Biso   1.000  C
  C42      1.0000 0.32090  0.37640  0.34269  Biso   1.000  C
  C43      1.0000 0.82090  0.12360  0.65731  Biso   1.000  C
  C44      1.0000 0.67910  0.87640  0.15731  Biso   1.000  C
  C45      1.0000 0.22460  0.67190  0.90224  Biso   1.000  C
  C46      1.0000 0.27540  0.32810  0.40224  Biso   1.000  C
  C47      1.0000 0.77540  0.17190  0.59776  Biso   1.000  C
  C48      1.0000 0.72460  0.82810  0.09776  Biso   1.000  C
  C49      1.0000 0.08270  0.71260  0.93235  Biso   1.000  C
  C50      1.0000 0.41730  0.28740  0.43235  Biso   1.000  C
  C51      1.0000 0.91730  0.21260  0.56765  Biso   1.000  C
  C52      1.0000 0.58270  0.78740  0.06765  Biso   1.000  C
  H9       1.0000 0.03980  0.75540  0.90390  Biso   1.000  H
  H10      1.0000 0.46020  0.24460  0.40390  Biso   1.000  H
  H11      1.0000 0.96020  0.25540  0.59610  Biso   1.000  H
  H12      1.0000 0.53980  0.74460  0.09610  Biso   1.000  H
  H13      1.0000 0.11000  0.74100  0.97150  Biso   1.000  H
  H14      1.0000 0.39000  0.25900  0.47150  Biso   1.000  H
  H15      1.0000 0.89000  0.24100  0.52850  Biso   1.000  H
  H16      1.0000 0.61000  0.75900  0.02850  Biso   1.000  H
  H17      1.0000 0.00930  0.66710  0.94060  Biso   1.000  H
  H18      1.0000 0.49070  0.33290  0.44060  Biso   1.000  H
  H19      1.0000 0.99070  0.16710  0.55940  Biso   1.000  H
  H20      1.0000 0.50930  0.83290  0.05940  Biso   1.000  H
  C53      1.0000 0.29390  0.60540  0.94795  Biso   1.000  C
  C54      1.0000 0.20610  0.39460  0.44795  Biso   1.000  C
  C55      1.0000 0.70610  0.10540  0.55205  Biso   1.000  C
  C56      1.0000 0.79390  0.89460  0.05205  Biso   1.000  C
  H21      1.0000 0.32280  0.63480  0.98650  Biso   1.000  H
  H22      1.0000 0.17720  0.36520  0.48650  Biso   1.000  H
  H23      1.0000 0.67720  0.13480  0.51350  Biso   1.000  H
  H24      1.0000 0.82280  0.86520  0.01350  Biso   1.000  H
  H25      1.0000 0.38220  0.57900  0.92890  Biso   1.000  H
  H26      1.0000 0.11780  0.42100  0.42890  Biso   1.000  H
  H27      1.0000 0.61780  0.07900  0.57110  Biso   1.000  H
  H28      1.0000 0.88220  0.92100  0.07110  Biso   1.000  H
  H29      1.0000 0.22050  0.56020  0.95740  Biso   1.000  H
  H30      1.0000 0.27950  0.43980  0.45740  Biso   1.000  H
  H31      1.0000 0.77950  0.06020  0.54260  Biso   1.000  H
  H32      1.0000 0.72050  0.93980  0.04260  Biso   1.000  H
  C57      1.0000 0.33900  0.74210  0.88907  Biso   1.000  C
  C58      1.0000 0.16100  0.25790  0.38907  Biso   1.000  C
  C59      1.0000 0.66100  0.24210  0.61093  Biso   1.000  C
  C60      1.0000 0.83900  0.75790  0.11093  Biso   1.000  C
  H33      1.0000 0.29510  0.78580  0.86160  Biso   1.000  H
  H34      1.0000 0.20490  0.21420  0.36160  Biso   1.000  H
  H35      1.0000 0.70490  0.28580  0.63840  Biso   1.000  H
  H36      1.0000 0.79510  0.71420  0.13840  Biso   1.000  H
  H37      1.0000 0.42640  0.71640  0.86880  Biso   1.000  H
  H38      1.0000 0.07360  0.28360  0.36880  Biso   1.000  H
  H39      1.0000 0.57360  0.21640  0.63120  Biso   1.000  H
  H40      1.0000 0.92640  0.78360  0.13120  Biso   1.000  H
  H41      1.0000 0.36940  0.76930  0.92820  Biso   1.000  H
  H42      1.0000 0.13060  0.23070  0.42820  Biso   1.000  H
  H43      1.0000 0.63060  0.26930  0.57180  Biso   1.000  H
  H44      1.0000 0.86940  0.73070  0.07180  Biso   1.000  H
  C61      1.0000 0.12430  0.67100  0.78678  Biso   1.000  C
  C62      1.0000 0.37570  0.32900  0.28678  Biso   1.000  C
  C63      1.0000 0.87570  0.17100  0.71322  Biso   1.000  C
  C64      1.0000 0.62430  0.82900  0.21322  Biso   1.000  C
  C65      1.0000 0.09020  0.63077  0.73087  Biso   1.000  C
  C66      1.0000 0.40980  0.36923  0.23087  Biso   1.000  C
  C67      1.0000 0.90980  0.13077  0.76913  Biso   1.000  C
  C68      1.0000 0.59020  0.86923  0.26913  Biso   1.000  C
  H45      1.0000 0.09890  0.57050  0.72270  Biso   1.000  H
  H46      1.0000 0.40110  0.42950  0.22270  Biso   1.000  H
  H47      1.0000 0.90110  0.07050  0.77730  Biso   1.000  H
  H48      1.0000 0.59890  0.92950  0.27730  Biso   1.000  H
  N1       1.0000 0.04320  0.69039  0.69034  Biso   1.000  N
  N2       1.0000 0.45680  0.30961  0.19034  Biso   1.000  N
  N3       1.0000 0.95680  0.19039  0.80966  Biso   1.000  N
  N4       1.0000 0.54320  0.80961  0.30966  Biso   1.000  N
  C69      1.0000 0.00260  0.67740  0.62454  Biso   1.000  C
  C70      1.0000 0.49740  0.32260  0.12454  Biso   1.000  C
  C71      1.0000 0.99740  0.17740  0.87546  Biso   1.000  C
  C72      1.0000 0.50260  0.82260  0.37546  Biso   1.000  C
  H49      1.0000 0.92910  0.72190  0.61190  Biso   1.000  H
  H50      1.0000 0.57090  0.27810  0.11190  Biso   1.000  H
  H51      1.0000 0.07090  0.22190  0.88810  Biso   1.000  H
  H52      1.0000 0.42910  0.77810  0.38810  Biso   1.000  H
  H53      1.0000 0.95550  0.61990  0.61950  Biso   1.000  H
  H54      1.0000 0.54450  0.38010  0.11950  Biso   1.000  H
  H55      1.0000 0.04450  0.11990  0.88050  Biso   1.000  H
  H56      1.0000 0.45550  0.88010  0.38050  Biso   1.000  H
  C73      1.0000 0.14180  0.68350  0.58196  Biso   1.000  C
  C74      1.0000 0.35820  0.31650  0.08196  Biso   1.000  C
  C75      1.0000 0.85820  0.18350  0.91804  Biso   1.000  C
  C76      1.0000 0.64180  0.81650  0.41804  Biso   1.000  C
  H57      1.0000 0.18110  0.74330  0.58320  Biso   1.000  H
  H58      1.0000 0.31890  0.25670  0.08320  Biso   1.000  H
  H59      1.0000 0.81890  0.24330  0.91680  Biso   1.000  H
  H60      1.0000 0.68110  0.75670  0.41680  Biso   1.000  H
  H61      1.0000 0.22020  0.64440  0.59820  Biso   1.000  H
  H62      1.0000 0.27980  0.35560  0.09820  Biso   1.000  H
  H63      1.0000 0.77980  0.14440  0.90180  Biso   1.000  H
  H64      1.0000 0.72020  0.85560  0.40180  Biso   1.000  H
  C77      1.0000 0.10940  0.66000  0.51692  Biso   1.000  C
  C78      1.0000 0.39060  0.34000  0.01692  Biso   1.000  C
  C79      1.0000 0.89060  0.16000  0.98308  Biso   1.000  C
  C80      1.0000 0.60940  0.84000  0.48308  Biso   1.000  C
  H65      1.0000 0.20000  0.66650  0.49190  Biso   1.000  H
  H66      1.0000 0.30000  0.33350  0.99190  Biso   1.000  H
  H67      1.0000 0.80000  0.16650  0.00810  Biso   1.000  H
  H68      1.0000 0.70000  0.83350  0.50810  Biso   1.000  H
  H69      1.0000 0.03130  0.69820  0.50060  Biso   1.000  H
  H70      1.0000 0.46870  0.30180  0.00060  Biso   1.000  H
  H71      1.0000 0.96870  0.19820  0.99940  Biso   1.000  H
  H72      1.0000 0.53130  0.80180  0.49940  Biso   1.000  H
  H73      1.0000 0.07530  0.59980  0.51510  Biso   1.000  H
  H74      1.0000 0.42470  0.40020  0.01510  Biso   1.000  H
  H75      1.0000 0.92470  0.09980  0.98490  Biso   1.000  H
  H76      1.0000 0.57530  0.90020  0.48490  Biso   1.000  H
  N5       1.0000 0.04110  0.77155  0.71657  Biso   1.000  N
  N6       1.0000 0.45890  0.22845  0.21657  Biso   1.000  N
  N7       1.0000 0.95890  0.27155  0.78343  Biso   1.000  N
  N8       1.0000 0.54110  0.72845  0.28343  Biso   1.000  N
  C81      1.0000 0.09010  0.75932  0.77441  Biso   1.000  C
  C82      1.0000 0.40990  0.24068  0.27441  Biso   1.000  C
  C83      1.0000 0.90990  0.25932  0.72559  Biso   1.000  C
  C84      1.0000 0.59010  0.74068  0.22559  Biso   1.000  C
  H77      1.0000 0.10090  0.80450  0.80400  Biso   1.000  H
  H78      1.0000 0.39910  0.19550  0.30400  Biso   1.000  H
  H79      1.0000 0.89910  0.30450  0.69600  Biso   1.000  H
  H80      1.0000 0.60090  0.69550  0.19600  Biso   1.000  H
  F49      1.0000 0.55050  0.53490  0.79800  Biso   1.000  F
  F50      1.0000 0.94950  0.46510  0.29800  Biso   1.000  F
  F51      1.0000 0.44950  0.03490  0.70200  Biso   1.000  F
  F52      1.0000 0.05050  0.96510  0.20200  Biso   1.000  F
  F53      1.0000 0.68800  0.64420  0.80860  Biso   1.000  F
  F54      1.0000 0.81200  0.35580  0.30860  Biso   1.000  F
  F55      1.0000 0.31200  0.14420  0.69140  Biso   1.000  F
  F56      1.0000 0.18800  0.85580  0.19140  Biso   1.000  F
  F57      1.0000 0.70700  0.56800  0.72760  Biso   1.000  F
  F58      1.0000 0.79300  0.43200  0.22760  Biso   1.000  F
  F59      1.0000 0.29300  0.06800  0.77240  Biso   1.000  F
  F60      1.0000 0.20700  0.93200  0.27240  Biso   1.000  F
  F61      1.0000 0.57350  0.33800  0.86310  Biso   1.000  F
  F62      1.0000 0.92650  0.66200  0.36310  Biso   1.000  F
  F63      1.0000 0.42650  0.83800  0.63690  Biso   1.000  F
  F64      1.0000 0.07350  0.16200  0.13690  Biso   1.000  F
  F65      1.0000 0.44210  0.22320  0.87980  Biso   1.000  F
  F66      1.0000 0.05790  0.77680  0.37980  Biso   1.000  F
  F67      1.0000 0.55790  0.72320  0.62020  Biso   1.000  F
  F68      1.0000 0.94210  0.27680  0.12020  Biso   1.000  F
  F69      1.0000 0.30200  0.49190  0.63180  Biso   1.000  F
  F70      1.0000 0.19800  0.50810  0.13180  Biso   1.000  F
  F71      1.0000 0.69800  0.99190  0.86820  Biso   1.000  F
  F72      1.0000 0.80200  0.00810  0.36820  Biso   1.000  F
  F73      1.0000 0.42500  0.39210  0.62060  Biso   1.000  F
  F74      1.0000 0.07500  0.60790  0.12060  Biso   1.000  F
  F75      1.0000 0.57500  0.89210  0.87940  Biso   1.000  F
  F76      1.0000 0.92500  0.10790  0.37940  Biso   1.000  F
  F77      1.0000 0.20200  0.37100  0.60690  Biso   1.000  F
  F78      1.0000 0.29800  0.62900  0.10690  Biso   1.000  F
  F79      1.0000 0.79800  0.87100  0.89310  Biso   1.000  F
  F80      1.0000 0.70200  0.12900  0.39310  Biso   1.000  F
  F81      1.0000 0.86850  0.52670  0.01640  Biso   1.000  F
  F82      1.0000 0.63150  0.47330  0.51640  Biso   1.000  F
  F83      1.0000 0.13150  0.02670  0.48360  Biso   1.000  F
  F84      1.0000 0.36850  0.97330  0.98360  Biso   1.000  F
  F85      1.0000 0.76200  0.40800  0.00870  Biso   1.000  F
  F86      1.0000 0.73800  0.59200  0.50870  Biso   1.000  F
  F87      1.0000 0.23800  0.90800  0.49130  Biso   1.000  F
  F88      1.0000 0.26200  0.09200  0.99130  Biso   1.000  F
