data_image0
_cell_length_a       4.693
_cell_length_b       19.849
_cell_length_c       11.096
_cell_angle_alpha    90
_cell_angle_beta     96.9
_cell_angle_gamma    90

_symmetry_space_group_name_H-M    "P 1"
_symmetry_int_tables_number       1

loop_
  _symmetry_equiv_pos_as_xyz
  'x, y, z'

loop_
  _atom_site_label
  _atom_site_occupancy
  _atom_site_fract_x
  _atom_site_fract_y
  _atom_site_fract_z
  _atom_site_thermal_displace_type
  _atom_site_B_iso_or_equiv
  _atom_site_type_symbol
  Cu1      1.0000 0.72000  0.16065  0.06420  Biso   1.000  Cu
  Cu2      1.0000 0.72000  0.33935  0.56420  Biso   1.000  Cu
  Cu3      1.0000 0.28000  0.83935  0.93580  Biso   1.000  Cu
  Cu4      1.0000 0.28000  0.66065  0.43580  Biso   1.000  Cu
  O1       1.0000 0.89600  0.13490  0.22550  Biso   1.000  O
  O2       1.0000 0.89600  0.36510  0.72550  Biso   1.000  O
  O3       1.0000 0.10400  0.86510  0.77450  Biso   1.000  O
  O4       1.0000 0.10400  0.63490  0.27450  Biso   1.000  O
  O5       1.0000 0.16200  0.17340  0.38690  Biso   1.000  O
  O6       1.0000 0.16200  0.32660  0.88690  Biso   1.000  O
  O7       1.0000 0.83800  0.82660  0.61310  Biso   1.000  O
  O8       1.0000 0.83800  0.67340  0.11310  Biso   1.000  O
  O9       1.0000 0.52100  0.30970  0.40630  Biso   1.000  O
  O10      1.0000 0.52100  0.19030  0.90630  Biso   1.000  O
  O11      1.0000 0.47900  0.69030  0.59370  Biso   1.000  O
  O12      1.0000 0.47900  0.80970  0.09370  Biso   1.000  O
  O13      1.0000 0.14800  0.33150  0.50170  Biso   1.000  O
  O14      1.0000 0.14800  0.16850  0.00170  Biso   1.000  O
  O15      1.0000 0.85200  0.66850  0.49830  Biso   1.000  O
  O16      1.0000 0.85200  0.83150  0.99830  Biso   1.000  O
  O17      1.0000 0.24600  0.03240  0.45400  Biso   1.000  O
  O18      1.0000 0.24600  0.46760  0.95400  Biso   1.000  O
  O19      1.0000 0.75400  0.96760  0.54600  Biso   1.000  O
  O20      1.0000 0.75400  0.53240  0.04600  Biso   1.000  O
  N1       1.0000 0.78800  0.25260  0.13260  Biso   1.000  N
  N2       1.0000 0.78800  0.24740  0.63260  Biso   1.000  N
  N3       1.0000 0.21200  0.74740  0.86740  Biso   1.000  N
  N4       1.0000 0.21200  0.75260  0.36740  Biso   1.000  N
  N5       1.0000 0.99400  0.36860  0.24200  Biso   1.000  N
  N6       1.0000 0.99400  0.13140  0.74200  Biso   1.000  N
  N7       1.0000 0.00600  0.63140  0.75800  Biso   1.000  N
  N8       1.0000 0.00600  0.86860  0.25800  Biso   1.000  N
  N9       1.0000 0.60500  0.06340  0.02500  Biso   1.000  N
  N10      1.0000 0.60500  0.43660  0.52500  Biso   1.000  N
  N11      1.0000 0.39500  0.93660  0.97500  Biso   1.000  N
  N12      1.0000 0.39500  0.56340  0.47500  Biso   1.000  N
  C1       1.0000 0.96200  0.25110  0.23700  Biso   1.000  C
  C2       1.0000 0.96200  0.24890  0.73700  Biso   1.000  C
  C3       1.0000 0.03800  0.74890  0.76300  Biso   1.000  C
  C4       1.0000 0.03800  0.75110  0.26300  Biso   1.000  C
  C5       1.0000 0.06900  0.30960  0.29200  Biso   1.000  C
  C6       1.0000 0.06900  0.19040  0.79200  Biso   1.000  C
  C7       1.0000 0.93100  0.69040  0.70800  Biso   1.000  C
  C8       1.0000 0.93100  0.80960  0.20800  Biso   1.000  C
  C9       1.0000 0.81800  0.36980  0.14000  Biso   1.000  C
  C10      1.0000 0.81800  0.13020  0.64000  Biso   1.000  C
  C11      1.0000 0.18200  0.63020  0.86000  Biso   1.000  C
  C12      1.0000 0.18200  0.86980  0.36000  Biso   1.000  C
  C13      1.0000 0.71100  0.31240  0.08100  Biso   1.000  C
  C14      1.0000 0.71100  0.18760  0.58100  Biso   1.000  C
  C15      1.0000 0.28900  0.68760  0.91900  Biso   1.000  C
  C16      1.0000 0.28900  0.81240  0.41900  Biso   1.000  C
  C17      1.0000 0.02100  0.18010  0.28800  Biso   1.000  C
  C18      1.0000 0.02100  0.31990  0.78800  Biso   1.000  C
  C19      1.0000 0.97900  0.81990  0.71200  Biso   1.000  C
  C20      1.0000 0.97900  0.68010  0.21200  Biso   1.000  C
  C21      1.0000 0.25700  0.31590  0.41000  Biso   1.000  C
  C22      1.0000 0.25700  0.18410  0.91000  Biso   1.000  C
  C23      1.0000 0.74300  0.68410  0.59000  Biso   1.000  C
  C24      1.0000 0.74300  0.81590  0.09000  Biso   1.000  C
  C25      1.0000 0.46500  0.03140  0.10100  Biso   1.000  C
  C26      1.0000 0.46500  0.46860  0.60100  Biso   1.000  C
  C27      1.0000 0.53500  0.96860  0.89900  Biso   1.000  C
  C28      1.0000 0.53500  0.53140  0.39900  Biso   1.000  C
  C29      1.0000 0.64700  0.03280  0.92300  Biso   1.000  C
  C30      1.0000 0.64700  0.46720  0.42300  Biso   1.000  C
  C31      1.0000 0.35300  0.96720  0.07700  Biso   1.000  C
  C32      1.0000 0.35300  0.53280  0.57700  Biso   1.000  C
  H1       1.0000 0.76050  0.41340  0.10280  Biso   1.000  H
  H2       1.0000 0.76050  0.08660  0.60280  Biso   1.000  H
  H3       1.0000 0.23950  0.58660  0.89720  Biso   1.000  H
  H4       1.0000 0.23950  0.91340  0.39720  Biso   1.000  H
  H5       1.0000 0.58040  0.31360  0.00850  Biso   1.000  H
  H6       1.0000 0.58040  0.18640  0.50850  Biso   1.000  H
  H7       1.0000 0.41960  0.68640  0.99150  Biso   1.000  H
  H8       1.0000 0.41960  0.81360  0.49150  Biso   1.000  H
  H9       1.0000 0.43720  0.05080  0.17760  Biso   1.000  H
  H10      1.0000 0.43720  0.44920  0.67760  Biso   1.000  H
  H11      1.0000 0.56280  0.94920  0.82240  Biso   1.000  H
  H12      1.0000 0.56280  0.55080  0.32240  Biso   1.000  H
  H13      1.0000 0.75260  0.05420  0.86710  Biso   1.000  H
  H14      1.0000 0.75260  0.44580  0.36710  Biso   1.000  H
  H15      1.0000 0.24740  0.94580  0.13290  Biso   1.000  H
  H16      1.0000 0.24740  0.55420  0.63290  Biso   1.000  H
