data_image0
_cell_length_a       7.2605
_cell_length_b       9.1105
_cell_length_c       9.5071
_cell_angle_alpha    62.311
_cell_angle_beta     80.547
_cell_angle_gamma    88.11

_symmetry_space_group_name_H-M    "P 1"
_symmetry_int_tables_number       1

loop_
  _symmetry_equiv_pos_as_xyz
  'x, y, z'

loop_
  _atom_site_label
  _atom_site_occupancy
  _atom_site_fract_x
  _atom_site_fract_y
  _atom_site_fract_z
  _atom_site_thermal_displace_type
  _atom_site_B_iso_or_equiv
  _atom_site_type_symbol
  Cu1      1.0000 0.00000  0.00000  0.00000  Biso   1.000  Cu
  N1       1.0000 0.92120  0.07470  0.17000  Biso   1.000  N
  N2       1.0000 0.07880  0.92530  0.83000  Biso   1.000  N
  N3       1.0000 0.94030  0.23320  0.12780  Biso   1.000  N
  N4       1.0000 0.05970  0.76680  0.87220  Biso   1.000  N
  C1       1.0000 0.84250  0.98970  0.32850  Biso   1.000  C
  C2       1.0000 0.15750  0.01030  0.67150  Biso   1.000  C
  N5       1.0000 0.87300  0.25260  0.25660  Biso   1.000  N
  N6       1.0000 0.12700  0.74740  0.74340  Biso   1.000  N
  C3       1.0000 0.79490  0.82140  0.43120  Biso   1.000  C
  C4       1.0000 0.20510  0.17860  0.56880  Biso   1.000  C
  H1       1.0000 0.81670  0.74050  0.39460  Biso   1.000  H
  H2       1.0000 0.18330  0.25950  0.60540  Biso   1.000  H
  C5       1.0000 0.80910  0.10450  0.38630  Biso   1.000  C
  C6       1.0000 0.19090  0.89550  0.61370  Biso   1.000  C
  C7       1.0000 0.73010  0.06160  0.54560  Biso   1.000  C
  C8       1.0000 0.26990  0.93840  0.45440  Biso   1.000  C
  H3       1.0000 0.71080  0.14190  0.58320  Biso   1.000  H
  H4       1.0000 0.28920  0.85810  0.41680  Biso   1.000  H
  C9       1.0000 0.68230  0.89720  0.64400  Biso   1.000  C
  C10      1.0000 0.31770  0.10280  0.35600  Biso   1.000  C
  H5       1.0000 0.62570  0.86180  0.75290  Biso   1.000  H
  H6       1.0000 0.37430  0.13820  0.24710  Biso   1.000  H
  C11      1.0000 0.71530  0.77870  0.58720  Biso   1.000  C
  C12      1.0000 0.28470  0.22130  0.41280  Biso   1.000  C
  H7       1.0000 0.68110  0.66530  0.65960  Biso   1.000  H
  H8       1.0000 0.31890  0.33470  0.34040  Biso   1.000  H
  C13      1.0000 0.87240  0.41720  0.24650  Biso   1.000  C
  C14      1.0000 0.12760  0.58280  0.75350  Biso   1.000  C
  H9       1.0000 0.74360  0.45210  0.25370  Biso   1.000  H
  H10      1.0000 0.25640  0.54790  0.74630  Biso   1.000  H
  H11      1.0000 0.94600  0.49630  0.14350  Biso   1.000  H
  H12      1.0000 0.05400  0.50370  0.85650  Biso   1.000  H
  H13      1.0000 0.92730  0.41400  0.33530  Biso   1.000  H
  H14      1.0000 0.07270  0.58600  0.66470  Biso   1.000  H
  N7       1.0000 0.24020  0.13490  0.92960  Biso   1.000  N
  N8       1.0000 0.75980  0.86510  0.07040  Biso   1.000  N
  N9       1.0000 0.85490  0.23920  0.80540  Biso   1.000  N
  N10      1.0000 0.14510  0.76080  0.19460  Biso   1.000  N
  N11      1.0000 0.50000  0.50000  0.00000  Biso   1.000  N
  C15      1.0000 0.71270  0.26590  0.84470  Biso   1.000  C
  C16      1.0000 0.28730  0.73410  0.15530  Biso   1.000  C
  C17      1.0000 0.37750  0.20070  0.92510  Biso   1.000  C
  C18      1.0000 0.62250  0.79930  0.07490  Biso   1.000  C
  C19      1.0000 0.53140  0.30690  0.74090  Biso   1.000  C
  C20      1.0000 0.46860  0.69310  0.25910  Biso   1.000  C
  C21      1.0000 0.53520  0.28830  0.91780  Biso   1.000  C
  C22      1.0000 0.46480  0.71170  0.08220  Biso   1.000  C
  C23      1.0000 0.51620  0.40480  0.97450  Biso   1.000  C
  C24      1.0000 0.48380  0.59520  0.02550  Biso   1.000  C
  C25      1.0000 0.50700  0.44050  0.59030  Biso   1.000  C
  C26      1.0000 0.49300  0.55950  0.40970  Biso   1.000  C
  N12      1.0000 0.48420  0.54800  0.47160  Biso   1.000  N
  N13      1.0000 0.51580  0.45200  0.52840  Biso   1.000  N
  C27      1.0000 0.37000  0.21210  0.84800  Biso   1.000  C
  C28      1.0000 0.63000  0.78790  0.15200  Biso   1.000  C
  C29      1.0000 0.70830  0.26920  0.78630  Biso   1.000  C
  C30      1.0000 0.29170  0.73080  0.21370  Biso   1.000  C
