data_image0
_cell_length_a       16.35
_cell_length_b       8.1462
_cell_length_c       14.453
_cell_angle_alpha    90
_cell_angle_beta     90.03
_cell_angle_gamma    90

_symmetry_space_group_name_H-M    "P 1"
_symmetry_int_tables_number       1

loop_
  _symmetry_equiv_pos_as_xyz
  'x, y, z'

loop_
  _atom_site_label
  _atom_site_occupancy
  _atom_site_fract_x
  _atom_site_fract_y
  _atom_site_fract_z
  _atom_site_thermal_displace_type
  _atom_site_B_iso_or_equiv
  _atom_site_type_symbol
  Cu1      1.0000 0.25000  0.25000  0.50000  Biso   1.000  Cu
  Cu2      1.0000 0.75000  0.75000  0.50000  Biso   1.000  Cu
  Cu3      1.0000 0.75000  0.25000  0.00000  Biso   1.000  Cu
  Cu4      1.0000 0.25000  0.75000  0.00000  Biso   1.000  Cu
  N1       1.0000 0.25600  0.42210  0.40490  Biso   1.000  N
  N2       1.0000 0.75600  0.92210  0.40490  Biso   1.000  N
  N3       1.0000 0.74400  0.42210  0.09510  Biso   1.000  N
  N4       1.0000 0.24400  0.92210  0.09510  Biso   1.000  N
  N5       1.0000 0.74400  0.57790  0.59510  Biso   1.000  N
  N6       1.0000 0.24400  0.07790  0.59510  Biso   1.000  N
  N7       1.0000 0.25600  0.57790  0.90490  Biso   1.000  N
  N8       1.0000 0.75600  0.07790  0.90490  Biso   1.000  N
  N9       1.0000 0.26810  0.57730  0.26120  Biso   1.000  N
  N10      1.0000 0.76810  0.07730  0.26120  Biso   1.000  N
  N11      1.0000 0.73190  0.57730  0.23880  Biso   1.000  N
  N12      1.0000 0.23190  0.07730  0.23880  Biso   1.000  N
  N13      1.0000 0.73190  0.42270  0.73880  Biso   1.000  N
  N14      1.0000 0.23190  0.92270  0.73880  Biso   1.000  N
  N15      1.0000 0.26810  0.42270  0.76120  Biso   1.000  N
  N16      1.0000 0.76810  0.92270  0.76120  Biso   1.000  N
  N17      1.0000 0.17990  0.56140  0.12280  Biso   1.000  N
  N18      1.0000 0.67990  0.06140  0.12280  Biso   1.000  N
  N19      1.0000 0.82010  0.56140  0.37720  Biso   1.000  N
  N20      1.0000 0.32010  0.06140  0.37720  Biso   1.000  N
  N21      1.0000 0.82010  0.43860  0.87720  Biso   1.000  N
  N22      1.0000 0.32010  0.93860  0.87720  Biso   1.000  N
  N23      1.0000 0.17990  0.43860  0.62280  Biso   1.000  N
  N24      1.0000 0.67990  0.93860  0.62280  Biso   1.000  N
  N25      1.0000 0.14480  0.16850  0.44370  Biso   1.000  N
  N26      1.0000 0.64480  0.66850  0.44370  Biso   1.000  N
  N27      1.0000 0.85520  0.16850  0.05630  Biso   1.000  N
  N28      1.0000 0.35520  0.66850  0.05630  Biso   1.000  N
  N29      1.0000 0.85520  0.83150  0.55630  Biso   1.000  N
  N30      1.0000 0.35520  0.33150  0.55630  Biso   1.000  N
  N31      1.0000 0.14480  0.83150  0.94370  Biso   1.000  N
  N32      1.0000 0.64480  0.33150  0.94370  Biso   1.000  N
  N33      1.0000 0.09420  0.27730  0.40930  Biso   1.000  N
  N34      1.0000 0.59420  0.77730  0.40930  Biso   1.000  N
  N35      1.0000 0.90580  0.27730  0.09070  Biso   1.000  N
  N36      1.0000 0.40580  0.77730  0.09070  Biso   1.000  N
  N37      1.0000 0.90580  0.72270  0.59070  Biso   1.000  N
  N38      1.0000 0.40580  0.22270  0.59070  Biso   1.000  N
  N39      1.0000 0.09420  0.72270  0.90930  Biso   1.000  N
  N40      1.0000 0.59420  0.22270  0.90930  Biso   1.000  N
  N41      1.0000 0.02880  0.19580  0.37530  Biso   1.000  N
  N42      1.0000 0.52880  0.69580  0.37530  Biso   1.000  N
  N43      1.0000 0.97120  0.19580  0.12470  Biso   1.000  N
  N44      1.0000 0.47120  0.69580  0.12470  Biso   1.000  N
  N45      1.0000 0.97120  0.80420  0.62470  Biso   1.000  N
  N46      1.0000 0.47120  0.30420  0.62470  Biso   1.000  N
  N47      1.0000 0.02880  0.80420  0.87530  Biso   1.000  N
  N48      1.0000 0.52880  0.30420  0.87530  Biso   1.000  N
  C1       1.0000 0.25830  0.49000  0.33430  Biso   1.000  C
  C2       1.0000 0.75830  0.99000  0.33430  Biso   1.000  C
  C3       1.0000 0.74170  0.49000  0.16570  Biso   1.000  C
  C4       1.0000 0.24170  0.99000  0.16570  Biso   1.000  C
  C5       1.0000 0.74170  0.51000  0.66570  Biso   1.000  C
  C6       1.0000 0.24170  0.01000  0.66570  Biso   1.000  C
  C7       1.0000 0.25830  0.51000  0.83430  Biso   1.000  C
  C8       1.0000 0.75830  0.01000  0.83430  Biso   1.000  C
  C9       1.0000 0.21880  0.56240  0.19000  Biso   1.000  C
  C10      1.0000 0.71880  0.06240  0.19000  Biso   1.000  C
  C11      1.0000 0.78120  0.56240  0.31000  Biso   1.000  C
  C12      1.0000 0.28120  0.06240  0.31000  Biso   1.000  C
  C13      1.0000 0.78120  0.43760  0.81000  Biso   1.000  C
  C14      1.0000 0.28120  0.93760  0.81000  Biso   1.000  C
  C15      1.0000 0.21880  0.43760  0.69000  Biso   1.000  C
  C16      1.0000 0.71880  0.93760  0.69000  Biso   1.000  C
  C17      1.0000 0.11250  0.01470  0.43290  Biso   1.000  C
  C18      1.0000 0.61250  0.51470  0.43290  Biso   1.000  C
  C19      1.0000 0.88750  0.01470  0.06710  Biso   1.000  C
  C20      1.0000 0.38750  0.51470  0.06710  Biso   1.000  C
  C21      1.0000 0.88750  0.98530  0.56710  Biso   1.000  C
  C22      1.0000 0.38750  0.48530  0.56710  Biso   1.000  C
  C23      1.0000 0.11250  0.98530  0.93290  Biso   1.000  C
  C24      1.0000 0.61250  0.48530  0.93290  Biso   1.000  C
  C25      1.0000 0.14210  0.85850  0.45620  Biso   1.000  C
  C26      1.0000 0.64210  0.35850  0.45620  Biso   1.000  C
  C27      1.0000 0.85790  0.85850  0.04380  Biso   1.000  C
  C28      1.0000 0.35790  0.35850  0.04380  Biso   1.000  C
  C29      1.0000 0.85790  0.14150  0.54380  Biso   1.000  C
  C30      1.0000 0.35790  0.64150  0.54380  Biso   1.000  C
  C31      1.0000 0.14210  0.14150  0.95620  Biso   1.000  C
  C32      1.0000 0.64210  0.64150  0.95620  Biso   1.000  C
  H1       1.0000 0.19430  0.84450  0.48400  Biso   1.000  H
  H2       1.0000 0.69430  0.34450  0.48400  Biso   1.000  H
  H3       1.0000 0.80570  0.84450  0.01600  Biso   1.000  H
  H4       1.0000 0.30570  0.34450  0.01600  Biso   1.000  H
  H5       1.0000 0.80570  0.15550  0.51600  Biso   1.000  H
  H6       1.0000 0.30570  0.65550  0.51600  Biso   1.000  H
  H7       1.0000 0.19430  0.15550  0.98400  Biso   1.000  H
  H8       1.0000 0.69430  0.65550  0.98400  Biso   1.000  H
  C33      1.0000 0.09280  0.72750  0.43730  Biso   1.000  C
  C34      1.0000 0.59280  0.22750  0.43730  Biso   1.000  C
  C35      1.0000 0.90720  0.72750  0.06270  Biso   1.000  C
  C36      1.0000 0.40720  0.22750  0.06270  Biso   1.000  C
  C37      1.0000 0.90720  0.27250  0.56270  Biso   1.000  C
  C38      1.0000 0.40720  0.77250  0.56270  Biso   1.000  C
  C39      1.0000 0.09280  0.27250  0.93730  Biso   1.000  C
  C40      1.0000 0.59280  0.77250  0.93730  Biso   1.000  C
  H9       1.0000 0.11130  0.62010  0.45210  Biso   1.000  H
  H10      1.0000 0.61130  0.12010  0.45210  Biso   1.000  H
  H11      1.0000 0.88870  0.62010  0.04790  Biso   1.000  H
  H12      1.0000 0.38870  0.12010  0.04790  Biso   1.000  H
  H13      1.0000 0.88870  0.37990  0.54790  Biso   1.000  H
  H14      1.0000 0.38870  0.87990  0.54790  Biso   1.000  H
  H15      1.0000 0.11130  0.37990  0.95210  Biso   1.000  H
  H16      1.0000 0.61130  0.87990  0.95210  Biso   1.000  H
  C41      1.0000 0.01440  0.74800  0.39600  Biso   1.000  C
  C42      1.0000 0.51440  0.24800  0.39600  Biso   1.000  C
  C43      1.0000 0.98560  0.74800  0.10400  Biso   1.000  C
  C44      1.0000 0.48560  0.24800  0.10400  Biso   1.000  C
  C45      1.0000 0.98560  0.25200  0.60400  Biso   1.000  C
  C46      1.0000 0.48560  0.75200  0.60400  Biso   1.000  C
  C47      1.0000 0.01440  0.25200  0.89600  Biso   1.000  C
  C48      1.0000 0.51440  0.75200  0.89600  Biso   1.000  C
  H17      1.0000 0.98110  0.65410  0.38600  Biso   1.000  H
  H18      1.0000 0.48110  0.15410  0.38600  Biso   1.000  H
  H19      1.0000 0.01890  0.65410  0.11400  Biso   1.000  H
  H20      1.0000 0.51890  0.15410  0.11400  Biso   1.000  H
  H21      1.0000 0.01890  0.34590  0.61400  Biso   1.000  H
  H22      1.0000 0.51890  0.84590  0.61400  Biso   1.000  H
  H23      1.0000 0.98110  0.34590  0.88600  Biso   1.000  H
  H24      1.0000 0.48110  0.84590  0.88600  Biso   1.000  H
  C49      1.0000 0.98610  0.89720  0.37050  Biso   1.000  C
  C50      1.0000 0.48610  0.39720  0.37050  Biso   1.000  C
  C51      1.0000 0.01390  0.89720  0.12950  Biso   1.000  C
  C52      1.0000 0.51390  0.39720  0.12950  Biso   1.000  C
  C53      1.0000 0.01390  0.10280  0.62950  Biso   1.000  C
  C54      1.0000 0.51390  0.60280  0.62950  Biso   1.000  C
  C55      1.0000 0.98610  0.10280  0.87050  Biso   1.000  C
  C56      1.0000 0.48610  0.60280  0.87050  Biso   1.000  C
  H25      1.0000 0.93440  0.91000  0.34130  Biso   1.000  H
  H26      1.0000 0.43440  0.41000  0.34130  Biso   1.000  H
  H27      1.0000 0.06560  0.91000  0.15870  Biso   1.000  H
  H28      1.0000 0.56560  0.41000  0.15870  Biso   1.000  H
  H29      1.0000 0.06560  0.09000  0.65870  Biso   1.000  H
  H30      1.0000 0.56560  0.59000  0.65870  Biso   1.000  H
  H31      1.0000 0.93440  0.09000  0.84130  Biso   1.000  H
  H32      1.0000 0.43440  0.59000  0.84130  Biso   1.000  H
  C57      1.0000 0.03650  0.03130  0.38920  Biso   1.000  C
  C58      1.0000 0.53650  0.53130  0.38920  Biso   1.000  C
  C59      1.0000 0.96350  0.03130  0.11080  Biso   1.000  C
  C60      1.0000 0.46350  0.53130  0.11080  Biso   1.000  C
  C61      1.0000 0.96350  0.96870  0.61080  Biso   1.000  C
  C62      1.0000 0.46350  0.46870  0.61080  Biso   1.000  C
  C63      1.0000 0.03650  0.96870  0.88920  Biso   1.000  C
  C64      1.0000 0.53650  0.46870  0.88920  Biso   1.000  C
  C65      1.0000 0.96460  0.28990  0.32900  Biso   1.000  C
  C66      1.0000 0.46460  0.78990  0.32900  Biso   1.000  C
  C67      1.0000 0.03540  0.28990  0.17100  Biso   1.000  C
  C68      1.0000 0.53540  0.78990  0.17100  Biso   1.000  C
  C69      1.0000 0.03540  0.71010  0.67100  Biso   1.000  C
  C70      1.0000 0.53540  0.21010  0.67100  Biso   1.000  C
  C71      1.0000 0.96460  0.71010  0.82900  Biso   1.000  C
  C72      1.0000 0.46460  0.21010  0.82900  Biso   1.000  C
  H33      1.0000 0.93780  0.36340  0.37430  Biso   1.000  H
  H34      1.0000 0.43780  0.86340  0.37430  Biso   1.000  H
  H35      1.0000 0.06220  0.36340  0.12570  Biso   1.000  H
  H36      1.0000 0.56220  0.86340  0.12570  Biso   1.000  H
  H37      1.0000 0.06220  0.63660  0.62570  Biso   1.000  H
  H38      1.0000 0.56220  0.13660  0.62570  Biso   1.000  H
  H39      1.0000 0.93780  0.63660  0.87430  Biso   1.000  H
  H40      1.0000 0.43780  0.13660  0.87430  Biso   1.000  H
  H41      1.0000 0.92270  0.21380  0.30430  Biso   1.000  H
  H42      1.0000 0.42270  0.71380  0.30430  Biso   1.000  H
  H43      1.0000 0.07730  0.21380  0.19570  Biso   1.000  H
  H44      1.0000 0.57730  0.71380  0.19570  Biso   1.000  H
  H45      1.0000 0.07730  0.78620  0.69570  Biso   1.000  H
  H46      1.0000 0.57730  0.28620  0.69570  Biso   1.000  H
  H47      1.0000 0.92270  0.78620  0.80430  Biso   1.000  H
  H48      1.0000 0.42270  0.28620  0.80430  Biso   1.000  H
  C73      1.0000 0.00000  0.39200  0.25000  Biso   1.000  C
  C74      1.0000 0.50000  0.89200  0.25000  Biso   1.000  C
  C75      1.0000 0.00000  0.60800  0.75000  Biso   1.000  C
  C76      1.0000 0.50000  0.10800  0.75000  Biso   1.000  C
  H49      1.0000 0.04360  0.46370  0.27500  Biso   1.000  H
  H50      1.0000 0.54360  0.96370  0.27500  Biso   1.000  H
  H51      1.0000 0.95640  0.46370  0.22500  Biso   1.000  H
  H52      1.0000 0.45640  0.96370  0.22500  Biso   1.000  H
  H53      1.0000 0.95640  0.53630  0.72500  Biso   1.000  H
  H54      1.0000 0.45640  0.03630  0.72500  Biso   1.000  H
  H55      1.0000 0.04360  0.53630  0.77500  Biso   1.000  H
  H56      1.0000 0.54360  0.03630  0.77500  Biso   1.000  H
