data_image0
_cell_length_a       7.3355
_cell_length_b       8.1008
_cell_length_c       9.3443
_cell_angle_alpha    66.649
_cell_angle_beta     68.451
_cell_angle_gamma    76.274

_symmetry_space_group_name_H-M    "P 1"
_symmetry_int_tables_number       1

loop_
  _symmetry_equiv_pos_as_xyz
  'x, y, z'

loop_
  _atom_site_label
  _atom_site_occupancy
  _atom_site_fract_x
  _atom_site_fract_y
  _atom_site_fract_z
  _atom_site_thermal_displace_type
  _atom_site_B_iso_or_equiv
  _atom_site_type_symbol
  Cu1      1.0000 0.00000  0.00000  0.00000  Biso   1.000  Cu
  N1       1.0000 0.83480  0.79700  0.02550  Biso   1.000  N
  N2       1.0000 0.16520  0.20300  0.97450  Biso   1.000  N
  N3       1.0000 0.56790  0.65000  0.04930  Biso   1.000  N
  N4       1.0000 0.43210  0.35000  0.95070  Biso   1.000  N
  N5       1.0000 0.24510  0.80010  0.03000  Biso   1.000  N
  N6       1.0000 0.75490  0.19990  0.97000  Biso   1.000  N
  N7       1.0000 0.89220  0.95240  0.24620  Biso   1.000  N
  N8       1.0000 0.10780  0.04760  0.75380  Biso   1.000  N
  N9       1.0000 0.88200  0.78870  0.35040  Biso   1.000  N
  N10      1.0000 0.11800  0.21130  0.64960  Biso   1.000  N
  N11      1.0000 0.80510  0.79860  0.50200  Biso   1.000  N
  N12      1.0000 0.19490  0.20140  0.49800  Biso   1.000  N
  C1       1.0000 0.70530  0.73430  0.03610  Biso   1.000  C
  C2       1.0000 0.29470  0.26570  0.96390  Biso   1.000  C
  C3       1.0000 0.39870  0.73730  0.03770  Biso   1.000  C
  C4       1.0000 0.60130  0.26270  0.96230  Biso   1.000  C
  C5       1.0000 0.82140  0.07160  0.32970  Biso   1.000  C
  C6       1.0000 0.17860  0.92840  0.67030  Biso   1.000  C
  C7       1.0000 0.76370  0.97170  0.49730  Biso   1.000  C
  C8       1.0000 0.23630  0.02830  0.50270  Biso   1.000  C
  C9       1.0000 0.68380  0.04800  0.61900  Biso   1.000  C
  C10      1.0000 0.31620  0.95200  0.38100  Biso   1.000  C
  H1       1.0000 0.64450  0.97680  0.73190  Biso   1.000  H
  H2       1.0000 0.35550  0.02320  0.26810  Biso   1.000  H
  C11      1.0000 0.66500  0.23040  0.56670  Biso   1.000  C
  C12      1.0000 0.33500  0.76960  0.43330  Biso   1.000  C
  H3       1.0000 0.61080  0.28990  0.64510  Biso   1.000  H
  H4       1.0000 0.38920  0.71010  0.35490  Biso   1.000  H
  C13      1.0000 0.72500  0.33510  0.39840  Biso   1.000  C
  C14      1.0000 0.27500  0.66490  0.60160  Biso   1.000  C
  H5       1.0000 0.71160  0.46310  0.36690  Biso   1.000  H
  H6       1.0000 0.28840  0.53690  0.63310  Biso   1.000  H
  C15      1.0000 0.80300  0.25720  0.27950  Biso   1.000  C
  C16      1.0000 0.19700  0.74280  0.72050  Biso   1.000  C
  H7       1.0000 0.84190  0.32870  0.16670  Biso   1.000  H
  H8       1.0000 0.15810  0.67130  0.83330  Biso   1.000  H
  C17      1.0000 0.77300  0.63520  0.64690  Biso   1.000  C
  C18      1.0000 0.22700  0.36480  0.35310  Biso   1.000  C
  H9       1.0000 0.83640  0.52890  0.61480  Biso   1.000  H
  H10      1.0000 0.16360  0.47110  0.38520  Biso   1.000  H
  H11      1.0000 0.63070  0.62590  0.69830  Biso   1.000  H
  H12      1.0000 0.36930  0.37410  0.30170  Biso   1.000  H
  H13      1.0000 0.82880  0.64100  0.72490  Biso   1.000  H
  H14      1.0000 0.17120  0.35900  0.27510  Biso   1.000  H
