data_image0
_cell_length_a       9.0955
_cell_length_b       15.5302
_cell_length_c       14.9825
_cell_angle_alpha    90
_cell_angle_beta     103.421
_cell_angle_gamma    90

_symmetry_space_group_name_H-M    "P 1"
_symmetry_int_tables_number       1

loop_
  _symmetry_equiv_pos_as_xyz
  'x, y, z'

loop_
  _atom_site_label
  _atom_site_occupancy
  _atom_site_fract_x
  _atom_site_fract_y
  _atom_site_fract_z
  _atom_site_thermal_displace_type
  _atom_site_B_iso_or_equiv
  _atom_site_type_symbol
  Cu1      1.0000 0.32158  0.23161  0.13509  Biso   1.000  Cu
  Cu2      1.0000 0.67842  0.73161  0.36491  Biso   1.000  Cu
  Cu3      1.0000 0.67842  0.76839  0.86491  Biso   1.000  Cu
  Cu4      1.0000 0.32158  0.26839  0.63509  Biso   1.000  Cu
  N1       1.0000 0.32560  0.12390  0.25040  Biso   1.000  N
  N2       1.0000 0.67440  0.62390  0.24960  Biso   1.000  N
  N3       1.0000 0.67440  0.87610  0.74960  Biso   1.000  N
  N4       1.0000 0.32560  0.37610  0.75040  Biso   1.000  N
  C1       1.0000 0.32890  0.11340  0.32660  Biso   1.000  C
  C2       1.0000 0.67110  0.61340  0.17340  Biso   1.000  C
  C3       1.0000 0.67110  0.88660  0.67340  Biso   1.000  C
  C4       1.0000 0.32890  0.38660  0.82660  Biso   1.000  C
  N5       1.0000 0.33430  0.08720  0.40990  Biso   1.000  N
  N6       1.0000 0.66570  0.58720  0.09010  Biso   1.000  N
  N7       1.0000 0.66570  0.91280  0.59010  Biso   1.000  N
  N8       1.0000 0.33430  0.41280  0.90990  Biso   1.000  N
  C5       1.0000 0.32890  0.14300  0.47380  Biso   1.000  C
  C6       1.0000 0.67110  0.64300  0.02620  Biso   1.000  C
  C7       1.0000 0.67110  0.85700  0.52620  Biso   1.000  C
  C8       1.0000 0.32890  0.35700  0.97380  Biso   1.000  C
  N9       1.0000 0.32520  0.18530  0.53580  Biso   1.000  N
  N10      1.0000 0.67480  0.68530  0.96420  Biso   1.000  N
  N11      1.0000 0.67480  0.81470  0.46420  Biso   1.000  N
  N12      1.0000 0.32520  0.31470  0.03580  Biso   1.000  N
  N13      1.0000 0.27950  0.31920  0.22990  Biso   1.000  N
  N14      1.0000 0.72050  0.81920  0.27010  Biso   1.000  N
  N15      1.0000 0.72050  0.68080  0.77010  Biso   1.000  N
  N16      1.0000 0.27950  0.18080  0.72990  Biso   1.000  N
  C9       1.0000 0.27410  0.34450  0.30100  Biso   1.000  C
  C10      1.0000 0.72590  0.84450  0.19900  Biso   1.000  C
  C11      1.0000 0.72590  0.65550  0.69900  Biso   1.000  C
  C12      1.0000 0.27410  0.15550  0.80100  Biso   1.000  C
  N17      1.0000 0.23960  0.37990  0.37260  Biso   1.000  N
  N18      1.0000 0.76040  0.87990  0.12740  Biso   1.000  N
  N19      1.0000 0.76040  0.62010  0.62740  Biso   1.000  N
  N20      1.0000 0.23960  0.12010  0.87260  Biso   1.000  N
  C13      1.0000 0.33320  0.37460  0.45220  Biso   1.000  C
  C14      1.0000 0.66680  0.87460  0.04780  Biso   1.000  C
  C15      1.0000 0.66680  0.62540  0.54780  Biso   1.000  C
  C16      1.0000 0.33320  0.12540  0.95220  Biso   1.000  C
  N21      1.0000 0.39520  0.37870  0.52890  Biso   1.000  N
  N22      1.0000 0.60480  0.87870  0.97110  Biso   1.000  N
  N23      1.0000 0.60480  0.62130  0.47110  Biso   1.000  N
  N24      1.0000 0.39520  0.12130  0.02890  Biso   1.000  N
  N25      1.0000 0.54530  0.25090  0.18465  Biso   1.000  N
  N26      1.0000 0.45470  0.75090  0.31535  Biso   1.000  N
  N27      1.0000 0.45470  0.74910  0.81535  Biso   1.000  N
  N28      1.0000 0.54530  0.24910  0.68465  Biso   1.000  N
  N29      1.0000 0.59800  0.32994  0.19227  Biso   1.000  N
  N30      1.0000 0.40200  0.82994  0.30773  Biso   1.000  N
  N31      1.0000 0.40200  0.67006  0.80773  Biso   1.000  N
  N32      1.0000 0.59800  0.17006  0.69227  Biso   1.000  N
  N33      1.0000 0.74670  0.32641  0.22834  Biso   1.000  N
  N34      1.0000 0.25330  0.82641  0.27166  Biso   1.000  N
  N35      1.0000 0.25330  0.67359  0.77166  Biso   1.000  N
  N36      1.0000 0.74670  0.17359  0.72834  Biso   1.000  N
  N37      1.0000 0.09600  0.28300  0.58432  Biso   1.000  N
  N38      1.0000 0.90400  0.78300  0.91568  Biso   1.000  N
  N39      1.0000 0.90400  0.71700  0.41568  Biso   1.000  N
  N40      1.0000 0.09600  0.21700  0.08432  Biso   1.000  N
  N41      1.0000 0.03240  0.35944  0.56974  Biso   1.000  N
  N42      1.0000 0.96760  0.85944  0.93026  Biso   1.000  N
  N43      1.0000 0.96760  0.64056  0.43026  Biso   1.000  N
  N44      1.0000 0.03240  0.14056  0.06974  Biso   1.000  N
  N45      1.0000 0.88450  0.34800  0.53510  Biso   1.000  N
  N46      1.0000 0.11550  0.84800  0.96490  Biso   1.000  N
  N47      1.0000 0.11550  0.65200  0.46490  Biso   1.000  N
  N48      1.0000 0.88450  0.15200  0.03510  Biso   1.000  N
  C17      1.0000 0.66220  0.19444  0.21718  Biso   1.000  C
  C18      1.0000 0.33780  0.69444  0.28282  Biso   1.000  C
  C19      1.0000 0.33780  0.80556  0.78282  Biso   1.000  C
  C20      1.0000 0.66220  0.30556  0.71718  Biso   1.000  C
  C21      1.0000 0.66620  0.10436  0.22458  Biso   1.000  C
  C22      1.0000 0.33380  0.60436  0.27542  Biso   1.000  C
  C23      1.0000 0.33380  0.89564  0.77542  Biso   1.000  C
  C24      1.0000 0.66620  0.39564  0.72458  Biso   1.000  C
  H1       1.0000 0.57820  0.07020  0.20420  Biso   1.000  H
  H2       1.0000 0.42180  0.57020  0.29580  Biso   1.000  H
  H3       1.0000 0.42180  0.92980  0.79580  Biso   1.000  H
  H4       1.0000 0.57820  0.42980  0.70420  Biso   1.000  H
  C25      1.0000 0.80390  0.06840  0.26280  Biso   1.000  C
  C26      1.0000 0.19610  0.56840  0.23720  Biso   1.000  C
  C27      1.0000 0.19610  0.93160  0.73720  Biso   1.000  C
  C28      1.0000 0.80390  0.43160  0.76280  Biso   1.000  C
  H5       1.0000 0.81090  0.00770  0.27000  Biso   1.000  H
  H6       1.0000 0.18910  0.50770  0.23000  Biso   1.000  H
  H7       1.0000 0.18910  0.99230  0.73000  Biso   1.000  H
  H8       1.0000 0.81090  0.49230  0.77000  Biso   1.000  H
  C29      1.0000 0.93550  0.11830  0.29160  Biso   1.000  C
  C30      1.0000 0.06450  0.61830  0.20840  Biso   1.000  C
  C31      1.0000 0.06450  0.88170  0.70840  Biso   1.000  C
  C32      1.0000 0.93550  0.38170  0.79160  Biso   1.000  C
  H9       1.0000 0.02830  0.09010  0.31740  Biso   1.000  H
  H10      1.0000 0.97170  0.59010  0.18260  Biso   1.000  H
  H11      1.0000 0.97170  0.90990  0.68260  Biso   1.000  H
  H12      1.0000 0.02830  0.40990  0.81740  Biso   1.000  H
  C33      1.0000 0.93420  0.20603  0.28379  Biso   1.000  C
  C34      1.0000 0.06580  0.70603  0.21621  Biso   1.000  C
  C35      1.0000 0.06580  0.79397  0.71621  Biso   1.000  C
  C36      1.0000 0.93420  0.29397  0.78379  Biso   1.000  C
  H13      1.0000 0.02330  0.23960  0.30270  Biso   1.000  H
  H14      1.0000 0.97670  0.73960  0.19730  Biso   1.000  H
  H15      1.0000 0.97670  0.76040  0.69730  Biso   1.000  H
  H16      1.0000 0.02330  0.26040  0.80270  Biso   1.000  H
  C37      1.0000 0.79300  0.24338  0.24607  Biso   1.000  C
  C38      1.0000 0.20700  0.74338  0.25393  Biso   1.000  C
  C39      1.0000 0.20700  0.75662  0.75393  Biso   1.000  C
  C40      1.0000 0.79300  0.25662  0.74607  Biso   1.000  C
  C41      1.0000 0.83270  0.40638  0.25083  Biso   1.000  C
  C42      1.0000 0.16730  0.90638  0.24917  Biso   1.000  C
  C43      1.0000 0.16730  0.59362  0.74917  Biso   1.000  C
  C44      1.0000 0.83270  0.09362  0.75083  Biso   1.000  C
  H17      1.0000 0.77150  0.45530  0.22000  Biso   1.000  H
  H18      1.0000 0.22850  0.95530  0.28000  Biso   1.000  H
  H19      1.0000 0.22850  0.54470  0.78000  Biso   1.000  H
  H20      1.0000 0.77150  0.04470  0.72000  Biso   1.000  H
  H21      1.0000 0.92580  0.40310  0.22740  Biso   1.000  H
  H22      1.0000 0.07420  0.90310  0.27260  Biso   1.000  H
  H23      1.0000 0.07420  0.59690  0.77260  Biso   1.000  H
  H24      1.0000 0.92580  0.09690  0.72740  Biso   1.000  H
  C45      1.0000 0.87520  0.42240  0.35367  Biso   1.000  C
  C46      1.0000 0.12480  0.92240  0.14633  Biso   1.000  C
  C47      1.0000 0.12480  0.57760  0.64633  Biso   1.000  C
  C48      1.0000 0.87520  0.07760  0.85367  Biso   1.000  C
  H25      1.0000 0.94630  0.37690  0.38320  Biso   1.000  H
  H26      1.0000 0.05370  0.87690  0.11680  Biso   1.000  H
  H27      1.0000 0.05370  0.62310  0.61680  Biso   1.000  H
  H28      1.0000 0.94630  0.12310  0.88320  Biso   1.000  H
  H29      1.0000 0.92870  0.47820  0.36540  Biso   1.000  H
  H30      1.0000 0.07130  0.97820  0.13460  Biso   1.000  H
  H31      1.0000 0.07130  0.52180  0.63460  Biso   1.000  H
  H32      1.0000 0.92870  0.02180  0.86540  Biso   1.000  H
  C49      1.0000 0.74150  0.42377  0.39802  Biso   1.000  C
  C50      1.0000 0.25850  0.92377  0.10198  Biso   1.000  C
  C51      1.0000 0.25850  0.57623  0.60198  Biso   1.000  C
  C52      1.0000 0.74150  0.07623  0.89802  Biso   1.000  C
  H33      1.0000 0.67640  0.37340  0.37630  Biso   1.000  H
  H34      1.0000 0.32360  0.87340  0.12370  Biso   1.000  H
  H35      1.0000 0.32360  0.62660  0.62370  Biso   1.000  H
  H36      1.0000 0.67640  0.12660  0.87630  Biso   1.000  H
  H37      1.0000 0.68110  0.47630  0.37800  Biso   1.000  H
  H38      1.0000 0.31890  0.97630  0.12200  Biso   1.000  H
  H39      1.0000 0.31890  0.52370  0.62200  Biso   1.000  H
  H40      1.0000 0.68110  0.02370  0.87800  Biso   1.000  H
  C53      1.0000 0.78700  0.42216  0.50223  Biso   1.000  C
  C54      1.0000 0.21300  0.92216  0.99777  Biso   1.000  C
  C55      1.0000 0.21300  0.57784  0.49777  Biso   1.000  C
  C56      1.0000 0.78700  0.07784  0.00223  Biso   1.000  C
  H41      1.0000 0.84120  0.47600  0.52490  Biso   1.000  H
  H42      1.0000 0.15880  0.97600  0.97510  Biso   1.000  H
  H43      1.0000 0.15880  0.52400  0.47510  Biso   1.000  H
  H44      1.0000 0.84120  0.02400  0.02490  Biso   1.000  H
  H45      1.0000 0.69520  0.41910  0.52690  Biso   1.000  H
  H46      1.0000 0.30480  0.91910  0.97310  Biso   1.000  H
  H47      1.0000 0.30480  0.58090  0.47310  Biso   1.000  H
  H48      1.0000 0.69520  0.08090  0.02690  Biso   1.000  H
  C57      1.0000 0.98740  0.22050  0.55720  Biso   1.000  C
  C58      1.0000 0.01260  0.72050  0.94280  Biso   1.000  C
  C59      1.0000 0.01260  0.77950  0.44280  Biso   1.000  C
  C60      1.0000 0.98740  0.27950  0.05720  Biso   1.000  C
  C61      1.0000 0.99730  0.13018  0.55790  Biso   1.000  C
  C62      1.0000 0.00270  0.63018  0.94210  Biso   1.000  C
  C63      1.0000 0.00270  0.86982  0.44210  Biso   1.000  C
  C64      1.0000 0.99730  0.36982  0.05790  Biso   1.000  C
  H49      1.0000 0.09040  0.10100  0.58010  Biso   1.000  H
  H50      1.0000 0.90960  0.60100  0.91990  Biso   1.000  H
  H51      1.0000 0.90960  0.89900  0.41990  Biso   1.000  H
  H52      1.0000 0.09040  0.39900  0.08010  Biso   1.000  H
  C65      1.0000 0.86420  0.08645  0.52450  Biso   1.000  C
  C66      1.0000 0.13580  0.58645  0.97550  Biso   1.000  C
  C67      1.0000 0.13580  0.91355  0.47550  Biso   1.000  C
  C68      1.0000 0.86420  0.41355  0.02450  Biso   1.000  C
  H53      1.0000 0.86620  0.02530  0.52300  Biso   1.000  H
  H54      1.0000 0.13380  0.52530  0.97700  Biso   1.000  H
  H55      1.0000 0.13380  0.97470  0.47700  Biso   1.000  H
  H56      1.0000 0.86620  0.47470  0.02300  Biso   1.000  H
  C69      1.0000 0.72550  0.12900  0.49270  Biso   1.000  C
  C70      1.0000 0.27450  0.62900  0.00730  Biso   1.000  C
  C71      1.0000 0.27450  0.87100  0.50730  Biso   1.000  C
  C72      1.0000 0.72550  0.37100  0.99270  Biso   1.000  C
  H57      1.0000 0.63680  0.09580  0.47070  Biso   1.000  H
  H58      1.0000 0.36320  0.59580  0.02930  Biso   1.000  H
  H59      1.0000 0.36320  0.90420  0.52930  Biso   1.000  H
  H60      1.0000 0.63680  0.40420  0.97070  Biso   1.000  H
  C73      1.0000 0.71450  0.21761  0.49226  Biso   1.000  C
  C74      1.0000 0.28550  0.71761  0.00774  Biso   1.000  C
  C75      1.0000 0.28550  0.78239  0.50774  Biso   1.000  C
  C76      1.0000 0.71450  0.28239  0.99226  Biso   1.000  C
  H61      1.0000 0.62090  0.24650  0.47100  Biso   1.000  H
  H62      1.0000 0.37910  0.74650  0.02900  Biso   1.000  H
  H63      1.0000 0.37910  0.75350  0.52900  Biso   1.000  H
  H64      1.0000 0.62090  0.25350  0.97100  Biso   1.000  H
  C77      1.0000 0.84960  0.26204  0.52511  Biso   1.000  C
  C78      1.0000 0.15040  0.76204  0.97489  Biso   1.000  C
  C79      1.0000 0.15040  0.73796  0.47489  Biso   1.000  C
  C80      1.0000 0.84960  0.23796  0.02511  Biso   1.000  C
  N49      1.0000 0.31960  0.14870  0.23270  Biso   1.000  N
  N50      1.0000 0.68040  0.64870  0.26730  Biso   1.000  N
  N51      1.0000 0.68040  0.85130  0.76730  Biso   1.000  N
  N52      1.0000 0.31960  0.35130  0.73270  Biso   1.000  N
  C81      1.0000 0.33360  0.12200  0.30530  Biso   1.000  C
  C82      1.0000 0.66640  0.62200  0.19470  Biso   1.000  C
  C83      1.0000 0.66640  0.87800  0.69470  Biso   1.000  C
  C84      1.0000 0.33360  0.37800  0.80530  Biso   1.000  C
  N53      1.0000 0.35270  0.08500  0.38490  Biso   1.000  N
  N54      1.0000 0.64730  0.58500  0.11510  Biso   1.000  N
  N55      1.0000 0.64730  0.91500  0.61510  Biso   1.000  N
  N56      1.0000 0.35270  0.41500  0.88490  Biso   1.000  N
  C85      1.0000 0.33290  0.12840  0.45540  Biso   1.000  C
  C86      1.0000 0.66710  0.62840  0.04460  Biso   1.000  C
  C87      1.0000 0.66710  0.87160  0.54460  Biso   1.000  C
  C88      1.0000 0.33290  0.37160  0.95540  Biso   1.000  C
  N57      1.0000 0.31920  0.15940  0.52240  Biso   1.000  N
  N58      1.0000 0.68080  0.65940  0.97760  Biso   1.000  N
  N59      1.0000 0.68080  0.84060  0.47760  Biso   1.000  N
  N60      1.0000 0.31920  0.34060  0.02240  Biso   1.000  N
  N61      1.0000 0.26290  0.33850  0.24270  Biso   1.000  N
  N62      1.0000 0.73710  0.83850  0.25730  Biso   1.000  N
  N63      1.0000 0.73710  0.66150  0.75730  Biso   1.000  N
  N64      1.0000 0.26290  0.16150  0.74270  Biso   1.000  N
  C89      1.0000 0.31020  0.36820  0.31350  Biso   1.000  C
  C90      1.0000 0.68980  0.86820  0.18650  Biso   1.000  C
  C91      1.0000 0.68980  0.63180  0.68650  Biso   1.000  C
  C92      1.0000 0.31020  0.13180  0.81350  Biso   1.000  C
  N65      1.0000 0.36780  0.40690  0.38990  Biso   1.000  N
  N66      1.0000 0.63220  0.90690  0.11010  Biso   1.000  N
  N67      1.0000 0.63220  0.59310  0.61010  Biso   1.000  N
  N68      1.0000 0.36780  0.09310  0.88990  Biso   1.000  N
  C93      1.0000 0.36010  0.37850  0.46870  Biso   1.000  C
  C94      1.0000 0.63990  0.87850  0.03130  Biso   1.000  C
  C95      1.0000 0.63990  0.62150  0.53130  Biso   1.000  C
  C96      1.0000 0.36010  0.12150  0.96870  Biso   1.000  C
  N69      1.0000 0.35670  0.35640  0.54190  Biso   1.000  N
  N70      1.0000 0.64330  0.85640  0.95810  Biso   1.000  N
  N71      1.0000 0.64330  0.64360  0.45810  Biso   1.000  N
  N72      1.0000 0.35670  0.14360  0.04190  Biso   1.000  N
  Cu5      1.0000 0.31390  0.27120  0.13500  Biso   1.000  Cu
  Cu6      1.0000 0.68610  0.77120  0.36500  Biso   1.000  Cu
  Cu7      1.0000 0.68610  0.72880  0.86500  Biso   1.000  Cu
  Cu8      1.0000 0.31390  0.22880  0.63500  Biso   1.000  Cu
  N73      1.0000 0.27460  0.16600  0.22980  Biso   1.000  N
  N74      1.0000 0.72540  0.66600  0.27020  Biso   1.000  N
  N75      1.0000 0.72540  0.83400  0.77020  Biso   1.000  N
  N76      1.0000 0.27460  0.33400  0.72980  Biso   1.000  N
  C97      1.0000 0.28810  0.14130  0.30410  Biso   1.000  C
  C98      1.0000 0.71190  0.64130  0.19590  Biso   1.000  C
  C99      1.0000 0.71190  0.85870  0.69590  Biso   1.000  C
  C100     1.0000 0.28810  0.35870  0.80410  Biso   1.000  C
  N77      1.0000 0.29100  0.09250  0.37500  Biso   1.000  N
  N78      1.0000 0.70900  0.59250  0.12500  Biso   1.000  N
  N79      1.0000 0.70900  0.90750  0.62500  Biso   1.000  N
  N80      1.0000 0.29100  0.40750  0.87500  Biso   1.000  N
  C101     1.0000 0.32900  0.12400  0.45780  Biso   1.000  C
  C102     1.0000 0.67100  0.62400  0.04220  Biso   1.000  C
  C103     1.0000 0.67100  0.87600  0.54220  Biso   1.000  C
  C104     1.0000 0.32900  0.37600  0.95780  Biso   1.000  C
  N81      1.0000 0.35600  0.12880  0.53710  Biso   1.000  N
  N82      1.0000 0.64400  0.62880  0.96290  Biso   1.000  N
  N83      1.0000 0.64400  0.87120  0.46290  Biso   1.000  N
  N84      1.0000 0.35600  0.37120  0.03710  Biso   1.000  N
  N85      1.0000 0.30780  0.36090  0.23820  Biso   1.000  N
  N86      1.0000 0.69220  0.86090  0.26180  Biso   1.000  N
  N87      1.0000 0.69220  0.63910  0.76180  Biso   1.000  N
  N88      1.0000 0.30780  0.13910  0.73820  Biso   1.000  N
  C105     1.0000 0.33600  0.36140  0.31760  Biso   1.000  C
  C106     1.0000 0.66400  0.86140  0.18240  Biso   1.000  C
  C107     1.0000 0.66400  0.63860  0.68240  Biso   1.000  C
  C108     1.0000 0.33600  0.13860  0.81760  Biso   1.000  C
  N89      1.0000 0.40300  0.37720  0.40250  Biso   1.000  N
  N90      1.0000 0.59700  0.87720  0.09750  Biso   1.000  N
  N91      1.0000 0.59700  0.62280  0.59750  Biso   1.000  N
  N92      1.0000 0.40300  0.12280  0.90250  Biso   1.000  N
  C109     1.0000 0.35200  0.34720  0.46970  Biso   1.000  C
  C110     1.0000 0.64800  0.84720  0.03030  Biso   1.000  C
  C111     1.0000 0.64800  0.65280  0.53030  Biso   1.000  C
  C112     1.0000 0.35200  0.15280  0.96970  Biso   1.000  C
  N93      1.0000 0.32000  0.32540  0.53640  Biso   1.000  N
  N94      1.0000 0.68000  0.82540  0.96360  Biso   1.000  N
  N95      1.0000 0.68000  0.67460  0.46360  Biso   1.000  N
  N96      1.0000 0.32000  0.17460  0.03640  Biso   1.000  N
  N97      1.0000 0.54450  0.24190  0.18200  Biso   1.000  N
  N98      1.0000 0.45550  0.74190  0.31800  Biso   1.000  N
  N99      1.0000 0.45550  0.75810  0.81800  Biso   1.000  N
  N100     1.0000 0.54450  0.25810  0.68200  Biso   1.000  N
  N101     1.0000 0.60600  0.16490  0.18760  Biso   1.000  N
  N102     1.0000 0.39400  0.66490  0.31240  Biso   1.000  N
  N103     1.0000 0.39400  0.83510  0.81240  Biso   1.000  N
  N104     1.0000 0.60600  0.33510  0.68760  Biso   1.000  N
  N105     1.0000 0.75290  0.17290  0.22570  Biso   1.000  N
  N106     1.0000 0.24710  0.67290  0.27430  Biso   1.000  N
  N107     1.0000 0.24710  0.82710  0.77430  Biso   1.000  N
  N108     1.0000 0.75290  0.32710  0.72570  Biso   1.000  N
  N109     1.0000 0.08830  0.21970  0.58590  Biso   1.000  N
  N110     1.0000 0.91170  0.71970  0.91410  Biso   1.000  N
  N111     1.0000 0.91170  0.78030  0.41410  Biso   1.000  N
  N112     1.0000 0.08830  0.28030  0.08590  Biso   1.000  N
  N113     1.0000 0.02750  0.14250  0.57110  Biso   1.000  N
  N114     1.0000 0.97250  0.64250  0.92890  Biso   1.000  N
  N115     1.0000 0.97250  0.85750  0.42890  Biso   1.000  N
  N116     1.0000 0.02750  0.35750  0.07110  Biso   1.000  N
  N117     1.0000 0.88060  0.15210  0.53300  Biso   1.000  N
  N118     1.0000 0.11940  0.65210  0.96700  Biso   1.000  N
  N119     1.0000 0.11940  0.84790  0.46700  Biso   1.000  N
  N120     1.0000 0.88060  0.34790  0.03300  Biso   1.000  N
  C113     1.0000 0.65500  0.30160  0.21750  Biso   1.000  C
  C114     1.0000 0.34500  0.80160  0.28250  Biso   1.000  C
  C115     1.0000 0.34500  0.69840  0.78250  Biso   1.000  C
  C116     1.0000 0.65500  0.19840  0.71750  Biso   1.000  C
  C117     1.0000 0.64930  0.39110  0.22740  Biso   1.000  C
  C118     1.0000 0.35070  0.89110  0.27260  Biso   1.000  C
  C119     1.0000 0.35070  0.60890  0.77260  Biso   1.000  C
  C120     1.0000 0.64930  0.10890  0.72740  Biso   1.000  C
  H65      1.0000 0.55780  0.42250  0.20820  Biso   1.000  H
  H66      1.0000 0.44220  0.92250  0.29180  Biso   1.000  H
  H67      1.0000 0.44220  0.57750  0.79180  Biso   1.000  H
  H68      1.0000 0.55780  0.07750  0.70820  Biso   1.000  H
  C121     1.0000 0.78320  0.43090  0.26630  Biso   1.000  C
  C122     1.0000 0.21680  0.93090  0.23370  Biso   1.000  C
  C123     1.0000 0.21680  0.56910  0.73370  Biso   1.000  C
  C124     1.0000 0.78320  0.06910  0.76630  Biso   1.000  C
  H69      1.0000 0.78420  0.49160  0.27440  Biso   1.000  H
  H70      1.0000 0.21580  0.99160  0.22560  Biso   1.000  H
  H71      1.0000 0.21580  0.50840  0.72560  Biso   1.000  H
  H72      1.0000 0.78420  0.00840  0.77440  Biso   1.000  H
  C125     1.0000 0.91950  0.38480  0.29470  Biso   1.000  C
  C126     1.0000 0.08050  0.88480  0.20530  Biso   1.000  C
  C127     1.0000 0.08050  0.61520  0.70530  Biso   1.000  C
  C128     1.0000 0.91950  0.11520  0.79470  Biso   1.000  C
  H73      1.0000 0.00930  0.41560  0.32120  Biso   1.000  H
  H74      1.0000 0.99070  0.91560  0.17880  Biso   1.000  H
  H75      1.0000 0.99070  0.58440  0.67880  Biso   1.000  H
  H76      1.0000 0.00930  0.08440  0.82120  Biso   1.000  H
  C129     1.0000 0.92760  0.29760  0.28560  Biso   1.000  C
  C130     1.0000 0.07240  0.79760  0.21440  Biso   1.000  C
  C131     1.0000 0.07240  0.70240  0.71440  Biso   1.000  C
  C132     1.0000 0.92760  0.20240  0.78560  Biso   1.000  C
  H77      1.0000 0.01970  0.26670  0.30480  Biso   1.000  H
  H78      1.0000 0.98030  0.76670  0.19520  Biso   1.000  H
  H79      1.0000 0.98030  0.73330  0.69520  Biso   1.000  H
  H80      1.0000 0.01970  0.23330  0.80480  Biso   1.000  H
  C133     1.0000 0.79040  0.25670  0.24580  Biso   1.000  C
  C134     1.0000 0.20960  0.75670  0.25420  Biso   1.000  C
  C135     1.0000 0.20960  0.74330  0.75420  Biso   1.000  C
  C136     1.0000 0.79040  0.24330  0.74580  Biso   1.000  C
  C137     1.0000 0.84700  0.09560  0.24970  Biso   1.000  C
  C138     1.0000 0.15300  0.59560  0.25030  Biso   1.000  C
  C139     1.0000 0.15300  0.90440  0.75030  Biso   1.000  C
  C140     1.0000 0.84700  0.40440  0.74970  Biso   1.000  C
  H81      1.0000 0.94140  0.10250  0.22840  Biso   1.000  H
  H82      1.0000 0.05860  0.60250  0.27160  Biso   1.000  H
  H83      1.0000 0.05860  0.89750  0.77160  Biso   1.000  H
  H84      1.0000 0.94140  0.39750  0.72840  Biso   1.000  H
  H85      1.0000 0.79210  0.04510  0.21810  Biso   1.000  H
  H86      1.0000 0.20790  0.54510  0.28190  Biso   1.000  H
  H87      1.0000 0.20790  0.95490  0.78190  Biso   1.000  H
  H88      1.0000 0.79210  0.45490  0.71810  Biso   1.000  H
  C141     1.0000 0.88520  0.08020  0.35280  Biso   1.000  C
  C142     1.0000 0.11480  0.58020  0.14720  Biso   1.000  C
  C143     1.0000 0.11480  0.91980  0.64720  Biso   1.000  C
  C144     1.0000 0.88520  0.41980  0.85280  Biso   1.000  C
  H89      1.0000 0.94330  0.02590  0.36590  Biso   1.000  H
  H90      1.0000 0.05670  0.52590  0.13410  Biso   1.000  H
  H91      1.0000 0.05670  0.97410  0.63410  Biso   1.000  H
  H92      1.0000 0.94330  0.47410  0.86590  Biso   1.000  H
  H93      1.0000 0.95110  0.12750  0.38320  Biso   1.000  H
  H94      1.0000 0.04890  0.62750  0.11680  Biso   1.000  H
  H95      1.0000 0.04890  0.87250  0.61680  Biso   1.000  H
  H96      1.0000 0.95110  0.37250  0.88320  Biso   1.000  H
  C145     1.0000 0.74940  0.07460  0.39410  Biso   1.000  C
  C146     1.0000 0.25060  0.57460  0.10590  Biso   1.000  C
  C147     1.0000 0.25060  0.92540  0.60590  Biso   1.000  C
  C148     1.0000 0.74940  0.42540  0.89410  Biso   1.000  C
  H97      1.0000 0.69470  0.02040  0.37350  Biso   1.000  H
  H98      1.0000 0.30530  0.52040  0.12650  Biso   1.000  H
  H99      1.0000 0.30530  0.97960  0.62650  Biso   1.000  H
  H100     1.0000 0.69470  0.47960  0.87350  Biso   1.000  H
  H101     1.0000 0.68040  0.12300  0.37040  Biso   1.000  H
  H102     1.0000 0.31960  0.62300  0.12960  Biso   1.000  H
  H103     1.0000 0.31960  0.87700  0.62960  Biso   1.000  H
  H104     1.0000 0.68040  0.37700  0.87040  Biso   1.000  H
  C149     1.0000 0.78700  0.07730  0.49800  Biso   1.000  C
  C150     1.0000 0.21300  0.57730  0.00200  Biso   1.000  C
  C151     1.0000 0.21300  0.92270  0.50200  Biso   1.000  C
  C152     1.0000 0.78700  0.42270  0.99800  Biso   1.000  C
  H105     1.0000 0.69230  0.07970  0.51970  Biso   1.000  H
  H106     1.0000 0.30770  0.57970  0.98030  Biso   1.000  H
  H107     1.0000 0.30770  0.92030  0.48030  Biso   1.000  H
  H108     1.0000 0.69230  0.42030  0.01970  Biso   1.000  H
  H109     1.0000 0.84150  0.02400  0.52250  Biso   1.000  H
  H110     1.0000 0.15850  0.52400  0.97750  Biso   1.000  H
  H111     1.0000 0.15850  0.97600  0.47750  Biso   1.000  H
  H112     1.0000 0.84150  0.47600  0.02250  Biso   1.000  H
  C153     1.0000 0.97830  0.28070  0.55670  Biso   1.000  C
  C154     1.0000 0.02170  0.78070  0.94330  Biso   1.000  C
  C155     1.0000 0.02170  0.71930  0.44330  Biso   1.000  C
  C156     1.0000 0.97830  0.21930  0.05670  Biso   1.000  C
  C157     1.0000 0.98440  0.37110  0.55740  Biso   1.000  C
  C158     1.0000 0.01560  0.87110  0.94260  Biso   1.000  C
  C159     1.0000 0.01560  0.62890  0.44260  Biso   1.000  C
  C160     1.0000 0.98440  0.12890  0.05740  Biso   1.000  C
  H113     1.0000 0.07580  0.40150  0.58090  Biso   1.000  H
  H114     1.0000 0.92420  0.90150  0.91910  Biso   1.000  H
  H115     1.0000 0.92420  0.59850  0.41910  Biso   1.000  H
  H116     1.0000 0.07580  0.09850  0.08090  Biso   1.000  H
  C161     1.0000 0.85000  0.41320  0.52210  Biso   1.000  C
  C162     1.0000 0.15000  0.91320  0.97790  Biso   1.000  C
  C163     1.0000 0.15000  0.58680  0.47790  Biso   1.000  C
  C164     1.0000 0.85000  0.08680  0.02210  Biso   1.000  C
  H117     1.0000 0.84970  0.47430  0.52120  Biso   1.000  H
  H118     1.0000 0.15030  0.97430  0.97880  Biso   1.000  H
  H119     1.0000 0.15030  0.52570  0.47880  Biso   1.000  H
  H120     1.0000 0.84970  0.02570  0.02120  Biso   1.000  H
  C165     1.0000 0.71380  0.36890  0.48730  Biso   1.000  C
  C166     1.0000 0.28620  0.86890  0.01270  Biso   1.000  C
  C167     1.0000 0.28620  0.63110  0.51270  Biso   1.000  C
  C168     1.0000 0.71380  0.13110  0.98730  Biso   1.000  C
  H121     1.0000 0.62430  0.40100  0.46380  Biso   1.000  H
  H122     1.0000 0.37570  0.90100  0.03620  Biso   1.000  H
  H123     1.0000 0.37570  0.59900  0.53620  Biso   1.000  H
  H124     1.0000 0.62430  0.09900  0.96380  Biso   1.000  H
  C169     1.0000 0.70690  0.28030  0.48660  Biso   1.000  C
  C170     1.0000 0.29310  0.78030  0.01340  Biso   1.000  C
  C171     1.0000 0.29310  0.71970  0.51340  Biso   1.000  C
  C172     1.0000 0.70690  0.21970  0.98660  Biso   1.000  C
  H125     1.0000 0.61530  0.25010  0.46320  Biso   1.000  H
  H126     1.0000 0.38470  0.75010  0.03680  Biso   1.000  H
  H127     1.0000 0.38470  0.74990  0.53680  Biso   1.000  H
  H128     1.0000 0.61530  0.24990  0.96320  Biso   1.000  H
  C173     1.0000 0.84270  0.23780  0.52220  Biso   1.000  C
  C174     1.0000 0.15730  0.73780  0.97780  Biso   1.000  C
  C175     1.0000 0.15730  0.76220  0.47780  Biso   1.000  C
  C176     1.0000 0.84270  0.26220  0.02220  Biso   1.000  C
