data_image0
_cell_length_a       8.373
_cell_length_b       11.178
_cell_length_c       15.612
_cell_angle_alpha    90
_cell_angle_beta     100.652
_cell_angle_gamma    90

_symmetry_space_group_name_H-M    "P 1"
_symmetry_int_tables_number       1

loop_
  _symmetry_equiv_pos_as_xyz
  'x, y, z'

loop_
  _atom_site_label
  _atom_site_occupancy
  _atom_site_fract_x
  _atom_site_fract_y
  _atom_site_fract_z
  _atom_site_thermal_displace_type
  _atom_site_B_iso_or_equiv
  _atom_site_type_symbol
  Cu1      1.0000 0.75858  0.16189  0.77501  Biso   1.000  Cu
  Cu2      1.0000 0.74142  0.66189  0.72499  Biso   1.000  Cu
  Cu3      1.0000 0.24142  0.83811  0.22499  Biso   1.000  Cu
  Cu4      1.0000 0.25858  0.33811  0.27501  Biso   1.000  Cu
  Cu5      1.0000 0.71623  0.89620  0.08248  Biso   1.000  Cu
  Cu6      1.0000 0.78377  0.39620  0.41752  Biso   1.000  Cu
  Cu7      1.0000 0.28377  0.10380  0.91752  Biso   1.000  Cu
  Cu8      1.0000 0.21623  0.60380  0.58248  Biso   1.000  Cu
  O1       1.0000 0.74610  0.12820  0.89626  Biso   1.000  O
  O2       1.0000 0.75390  0.62820  0.60374  Biso   1.000  O
  O3       1.0000 0.25390  0.87180  0.10374  Biso   1.000  O
  O4       1.0000 0.24610  0.37180  0.39626  Biso   1.000  O
  O5       1.0000 0.74490  0.04750  0.02503  Biso   1.000  O
  O6       1.0000 0.75510  0.54750  0.47497  Biso   1.000  O
  O7       1.0000 0.25510  0.95250  0.97497  Biso   1.000  O
  O8       1.0000 0.24490  0.45250  0.52503  Biso   1.000  O
  O9       1.0000 0.68290  0.01240  0.72130  Biso   1.000  O
  O10      1.0000 0.81710  0.51240  0.77870  Biso   1.000  O
  O11      1.0000 0.31710  0.98760  0.27870  Biso   1.000  O
  O12      1.0000 0.18290  0.48760  0.22130  Biso   1.000  O
  O13      1.0000 0.68200  0.82340  0.68293  Biso   1.000  O
  O14      1.0000 0.81800  0.32340  0.81707  Biso   1.000  O
  O15      1.0000 0.31800  0.17660  0.31707  Biso   1.000  O
  O16      1.0000 0.18200  0.67660  0.18293  Biso   1.000  O
  O17      1.0000 0.64210  0.74530  0.12678  Biso   1.000  O
  O18      1.0000 0.85790  0.24530  0.37322  Biso   1.000  O
  O19      1.0000 0.35790  0.25470  0.87322  Biso   1.000  O
  O20      1.0000 0.14210  0.75470  0.62678  Biso   1.000  O
  O21      1.0000 0.80800  0.70960  0.26812  Biso   1.000  O
  O22      1.0000 0.69200  0.20960  0.23188  Biso   1.000  O
  O23      1.0000 0.19200  0.29040  0.73188  Biso   1.000  O
  O24      1.0000 0.30800  0.79040  0.76812  Biso   1.000  O
  O25      1.0000 0.95510  0.89080  0.19209  Biso   1.000  O
  O26      1.0000 0.54490  0.39080  0.30791  Biso   1.000  O
  O27      1.0000 0.04490  0.10920  0.80791  Biso   1.000  O
  O28      1.0000 0.45510  0.60920  0.69209  Biso   1.000  O
  O29      1.0000 0.56560  0.59480  0.21946  Biso   1.000  O
  O30      1.0000 0.93440  0.09480  0.28054  Biso   1.000  O
  O31      1.0000 0.43440  0.40520  0.78054  Biso   1.000  O
  O32      1.0000 0.06560  0.90520  0.71946  Biso   1.000  O
  O33      1.0000 0.54580  0.80180  0.25728  Biso   1.000  O
  O34      1.0000 0.95420  0.30180  0.24272  Biso   1.000  O
  O35      1.0000 0.45420  0.19820  0.74272  Biso   1.000  O
  O36      1.0000 0.04580  0.69820  0.75728  Biso   1.000  O
  N1       1.0000 0.86230  0.46690  0.08380  Biso   1.000  N
  N2       1.0000 0.63770  0.96690  0.41620  Biso   1.000  N
  N3       1.0000 0.13770  0.53310  0.91620  Biso   1.000  N
  N4       1.0000 0.36230  0.03310  0.58380  Biso   1.000  N
  H1       1.0000 0.92750  0.45110  0.13180  Biso   1.000  H
  H2       1.0000 0.57250  0.95110  0.36820  Biso   1.000  H
  H3       1.0000 0.07250  0.54890  0.86820  Biso   1.000  H
  H4       1.0000 0.42750  0.04890  0.63180  Biso   1.000  H
  N5       1.0000 0.76220  0.82590  0.97330  Biso   1.000  N
  N6       1.0000 0.73780  0.32590  0.52670  Biso   1.000  N
  N7       1.0000 0.23780  0.17410  0.02670  Biso   1.000  N
  N8       1.0000 0.26220  0.67410  0.47330  Biso   1.000  N
  N9       1.0000 0.73810  0.73930  0.84264  Biso   1.000  N
  N10      1.0000 0.76190  0.23930  0.65736  Biso   1.000  N
  N11      1.0000 0.26190  0.26070  0.15736  Biso   1.000  N
  N12      1.0000 0.23810  0.76070  0.34264  Biso   1.000  N
  O37      1.0000 0.60430  0.99010  0.16011  Biso   1.000  O
  O38      1.0000 0.89570  0.49010  0.33989  Biso   1.000  O
  O39      1.0000 0.39570  0.00990  0.83989  Biso   1.000  O
  O40      1.0000 0.10430  0.50990  0.66011  Biso   1.000  O
  C1       1.0000 0.75970  0.37880  0.04230  Biso   1.000  C
  C2       1.0000 0.74030  0.87880  0.45770  Biso   1.000  C
  C3       1.0000 0.24030  0.62120  0.95770  Biso   1.000  C
  C4       1.0000 0.25970  0.12120  0.54230  Biso   1.000  C
  H5       1.0000 0.76100  0.30250  0.06620  Biso   1.000  H
  H6       1.0000 0.73900  0.80250  0.43380  Biso   1.000  H
  H7       1.0000 0.23900  0.69750  0.93380  Biso   1.000  H
  H8       1.0000 0.26100  0.19750  0.56620  Biso   1.000  H
  C5       1.0000 0.65870  0.40430  0.96760  Biso   1.000  C
  C6       1.0000 0.84130  0.90430  0.53240  Biso   1.000  C
  C7       1.0000 0.34130  0.59570  0.03240  Biso   1.000  C
  C8       1.0000 0.15870  0.09570  0.46760  Biso   1.000  C
  H9       1.0000 0.58980  0.34510  0.94000  Biso   1.000  H
  H10      1.0000 0.91020  0.84510  0.56000  Biso   1.000  H
  H11      1.0000 0.41020  0.65490  0.06000  Biso   1.000  H
  H12      1.0000 0.08980  0.15490  0.44000  Biso   1.000  H
  C9       1.0000 0.65500  0.51350  0.93200  Biso   1.000  C
  C10      1.0000 0.84500  0.01350  0.56800  Biso   1.000  C
  C11      1.0000 0.34500  0.48650  0.06800  Biso   1.000  C
  C12      1.0000 0.15500  0.98650  0.43200  Biso   1.000  C
  H13      1.0000 0.58280  0.52890  0.88030  Biso   1.000  H
  H14      1.0000 0.91720  0.02890  0.61970  Biso   1.000  H
  H15      1.0000 0.41720  0.47110  0.11970  Biso   1.000  H
  H16      1.0000 0.08280  0.97110  0.38030  Biso   1.000  H
  C13      1.0000 0.75640  0.60360  0.97050  Biso   1.000  C
  C14      1.0000 0.74360  0.10360  0.52950  Biso   1.000  C
  C15      1.0000 0.24360  0.39640  0.02950  Biso   1.000  C
  C16      1.0000 0.25640  0.89640  0.47050  Biso   1.000  C
  C17      1.0000 0.86000  0.57880  0.04850  Biso   1.000  C
  C18      1.0000 0.64000  0.07880  0.45150  Biso   1.000  C
  C19      1.0000 0.14000  0.42120  0.95150  Biso   1.000  C
  C20      1.0000 0.36000  0.92120  0.54850  Biso   1.000  C
  H17      1.0000 0.92780  0.63820  0.07670  Biso   1.000  H
  H18      1.0000 0.57220  0.13820  0.42330  Biso   1.000  H
  H19      1.0000 0.07220  0.36180  0.92330  Biso   1.000  H
  H20      1.0000 0.42780  0.86180  0.57670  Biso   1.000  H
  C21      1.0000 0.75250  0.72240  0.92880  Biso   1.000  C
  C22      1.0000 0.74750  0.22240  0.57120  Biso   1.000  C
  C23      1.0000 0.24750  0.27760  0.07120  Biso   1.000  C
  C24      1.0000 0.25250  0.77760  0.42880  Biso   1.000  C
  C25      1.0000 0.75310  0.91480  0.91170  Biso   1.000  C
  C26      1.0000 0.74690  0.41480  0.58830  Biso   1.000  C
  C27      1.0000 0.24690  0.08520  0.08830  Biso   1.000  C
  C28      1.0000 0.25310  0.58520  0.41170  Biso   1.000  C
  C29      1.0000 0.73760  0.86080  0.83170  Biso   1.000  C
  C30      1.0000 0.76240  0.36080  0.66830  Biso   1.000  C
  C31      1.0000 0.26240  0.13920  0.16830  Biso   1.000  C
  C32      1.0000 0.23760  0.63920  0.33170  Biso   1.000  C
  C33      1.0000 0.74880  0.03850  0.94390  Biso   1.000  C
  C34      1.0000 0.75120  0.53850  0.55610  Biso   1.000  C
  C35      1.0000 0.25120  0.96150  0.05610  Biso   1.000  C
  C36      1.0000 0.24880  0.46150  0.44390  Biso   1.000  C
  C37      1.0000 0.70210  0.90310  0.74100  Biso   1.000  C
  C38      1.0000 0.79790  0.40310  0.75900  Biso   1.000  C
  C39      1.0000 0.29790  0.09690  0.25900  Biso   1.000  C
  C40      1.0000 0.20210  0.59690  0.24100  Biso   1.000  C
  S1       1.0000 0.64052  0.71194  0.22013  Biso   1.000  S
  S2       1.0000 0.85948  0.21194  0.27987  Biso   1.000  S
  S3       1.0000 0.35948  0.28806  0.77987  Biso   1.000  S
  S4       1.0000 0.14052  0.78806  0.72013  Biso   1.000  S
