data_image0
_cell_length_a       6.3906
_cell_length_b       13.613
_cell_length_c       15.466
_cell_angle_alpha    63.894
_cell_angle_beta     81.922
_cell_angle_gamma    80.455

_symmetry_space_group_name_H-M    "P 1"
_symmetry_int_tables_number       1

loop_
  _symmetry_equiv_pos_as_xyz
  'x, y, z'

loop_
  _atom_site_label
  _atom_site_occupancy
  _atom_site_fract_x
  _atom_site_fract_y
  _atom_site_fract_z
  _atom_site_thermal_displace_type
  _atom_site_B_iso_or_equiv
  _atom_site_type_symbol
  Cu1      1.0000 0.00000  0.50000  0.00000  Biso   1.000  Cu
  Cu2      1.0000 0.00000  0.50000  0.50000  Biso   1.000  Cu
  O1       1.0000 0.84490  0.58830  0.06410  Biso   1.000  O
  O2       1.0000 0.15510  0.41170  0.93590  Biso   1.000  O
  O3       1.0000 0.07030  0.59760  0.15800  Biso   1.000  O
  O4       1.0000 0.92970  0.40240  0.84200  Biso   1.000  O
  O5       1.0000 0.84200  0.64450  0.47280  Biso   1.000  O
  O6       1.0000 0.15800  0.35550  0.52720  Biso   1.000  O
  O7       1.0000 0.07920  0.76060  0.38090  Biso   1.000  O
  O8       1.0000 0.92080  0.23940  0.61910  Biso   1.000  O
  N1       1.0000 0.79090  0.38680  0.07070  Biso   1.000  N
  N2       1.0000 0.20910  0.61320  0.92930  Biso   1.000  N
  N3       1.0000 0.22620  0.38970  0.14820  Biso   1.000  N
  N4       1.0000 0.77380  0.61030  0.85180  Biso   1.000  N
  N5       1.0000 0.18050  0.03720  0.16290  Biso   1.000  N
  N6       1.0000 0.81950  0.96280  0.83710  Biso   1.000  N
  N7       1.0000 0.80730  0.48050  0.41350  Biso   1.000  N
  N8       1.0000 0.19270  0.51950  0.58650  Biso   1.000  N
  N9       1.0000 0.26570  0.57730  0.34000  Biso   1.000  N
  N10      1.0000 0.73430  0.42270  0.66000  Biso   1.000  N
  N11      1.0000 0.12520  0.17180  0.35880  Biso   1.000  N
  N12      1.0000 0.87480  0.82820  0.64120  Biso   1.000  N
  C1       1.0000 0.59130  0.41730  0.09510  Biso   1.000  C
  C2       1.0000 0.40870  0.58270  0.90490  Biso   1.000  C
  H1       1.0000 0.55610  0.48950  0.08770  Biso   1.000  H
  H2       1.0000 0.44390  0.51050  0.91230  Biso   1.000  H
  C3       1.0000 0.43250  0.34840  0.13100  Biso   1.000  C
  C4       1.0000 0.56750  0.65160  0.86900  Biso   1.000  C
  C5       1.0000 0.48850  0.24110  0.14390  Biso   1.000  C
  C6       1.0000 0.51150  0.75890  0.85610  Biso   1.000  C
  H3       1.0000 0.38680  0.19200  0.16640  Biso   1.000  H
  H4       1.0000 0.61320  0.80800  0.83360  Biso   1.000  H
  C7       1.0000 0.69660  0.20720  0.12310  Biso   1.000  C
  C8       1.0000 0.30340  0.79280  0.87690  Biso   1.000  C
  H5       1.0000 0.73810  0.13410  0.13420  Biso   1.000  H
  H6       1.0000 0.26190  0.86590  0.86580  Biso   1.000  H
  C9       1.0000 0.84130  0.28100  0.08610  Biso   1.000  C
  C10      1.0000 0.15870  0.71900  0.91390  Biso   1.000  C
  H7       1.0000 0.98070  0.25730  0.07100  Biso   1.000  H
  H8       1.0000 0.01930  0.74270  0.92900  Biso   1.000  H
  C11      1.0000 0.90150  0.62590  0.11920  Biso   1.000  C
  C12      1.0000 0.09850  0.37410  0.88080  Biso   1.000  C
  C13      1.0000 0.74120  0.71300  0.13230  Biso   1.000  C
  C14      1.0000 0.25880  0.28700  0.86770  Biso   1.000  C
  C15      1.0000 0.78760  0.77300  0.17720  Biso   1.000  C
  C16      1.0000 0.21240  0.22700  0.82280  Biso   1.000  C
  H9       1.0000 0.91900  0.75690  0.20270  Biso   1.000  H
  H10      1.0000 0.08100  0.24310  0.79730  Biso   1.000  H
  C17      1.0000 0.64380  0.85700  0.18550  Biso   1.000  C
  C18      1.0000 0.35620  0.14300  0.81450  Biso   1.000  C
  H11      1.0000 0.68030  0.89750  0.21530  Biso   1.000  H
  H12      1.0000 0.31970  0.10250  0.78470  Biso   1.000  H
  C19      1.0000 0.45020  0.88030  0.15040  Biso   1.000  C
  C20      1.0000 0.54980  0.11970  0.84960  Biso   1.000  C
  C21      1.0000 0.39440  0.81920  0.10670  Biso   1.000  C
  C22      1.0000 0.60560  0.18080  0.89330  Biso   1.000  C
  H13      1.0000 0.26050  0.83360  0.08370  Biso   1.000  H
  H14      1.0000 0.73950  0.16640  0.91630  Biso   1.000  H
  C23      1.0000 0.54190  0.73670  0.09790  Biso   1.000  C
  C24      1.0000 0.45810  0.26330  0.90210  Biso   1.000  C
  H15      1.0000 0.50610  0.69620  0.06810  Biso   1.000  H
  H16      1.0000 0.49390  0.30380  0.93190  Biso   1.000  H
  C25      1.0000 0.29730  0.96730  0.15830  Biso   1.000  C
  C26      1.0000 0.70270  0.03270  0.84170  Biso   1.000  C
  C27      1.0000 0.61580  0.53840  0.39640  Biso   1.000  C
  C28      1.0000 0.38420  0.46160  0.60360  Biso   1.000  C
  H17      1.0000 0.57980  0.59370  0.41750  Biso   1.000  H
  H18      1.0000 0.42020  0.40630  0.58250  Biso   1.000  H
  C29      1.0000 0.46580  0.52110  0.34850  Biso   1.000  C
  C30      1.0000 0.53420  0.47890  0.65150  Biso   1.000  C
  C31      1.0000 0.52800  0.44180  0.31350  Biso   1.000  C
  C32      1.0000 0.47200  0.55820  0.68650  Biso   1.000  C
  H19      1.0000 0.43480  0.42680  0.28100  Biso   1.000  H
  H20      1.0000 0.56520  0.57320  0.71900  Biso   1.000  H
  C33      1.0000 0.73060  0.38540  0.32770  Biso   1.000  C
  C34      1.0000 0.26940  0.61460  0.67230  Biso   1.000  C
  H21      1.0000 0.77550  0.33340  0.30310  Biso   1.000  H
  H22      1.0000 0.22450  0.66660  0.69690  Biso   1.000  H
  C35      1.0000 0.86540  0.40600  0.37800  Biso   1.000  C
  C36      1.0000 0.13460  0.59400  0.62200  Biso   1.000  C
  H23      1.0000 0.00060  0.36700  0.38760  Biso   1.000  H
  H24      1.0000 0.99940  0.63300  0.61240  Biso   1.000  H
  C37      1.0000 0.90460  0.73930  0.42290  Biso   1.000  C
  C38      1.0000 0.09540  0.26070  0.57710  Biso   1.000  C
  C39      1.0000 0.73250  0.83350  0.41580  Biso   1.000  C
  C40      1.0000 0.26750  0.16650  0.58420  Biso   1.000  C
  C41      1.0000 0.78370  0.94080  0.37290  Biso   1.000  C
  C42      1.0000 0.21630  0.05920  0.62710  Biso   1.000  C
  H25      1.0000 0.92360  0.95450  0.35070  Biso   1.000  H
  H26      1.0000 0.07640  0.04550  0.64930  Biso   1.000  H
  C43      1.0000 0.62720  0.02690  0.36310  Biso   1.000  C
  C44      1.0000 0.37280  0.97310  0.63690  Biso   1.000  C
  H27      1.0000 0.66250  0.09860  0.33600  Biso   1.000  H
  H28      1.0000 0.33750  0.90140  0.66400  Biso   1.000  H
  C45      1.0000 0.42040  0.00770  0.39300  Biso   1.000  C
  C46      1.0000 0.57960  0.99230  0.60700  Biso   1.000  C
  C47      1.0000 0.36560  0.90160  0.43750  Biso   1.000  C
  C48      1.0000 0.63440  0.09840  0.56250  Biso   1.000  C
  H29      1.0000 0.22530  0.88840  0.45910  Biso   1.000  H
  H30      1.0000 0.77470  0.11160  0.54090  Biso   1.000  H
  C49      1.0000 0.52560  0.81540  0.44900  Biso   1.000  C
  C50      1.0000 0.47440  0.18460  0.55100  Biso   1.000  C
  H31      1.0000 0.49150  0.74350  0.48000  Biso   1.000  H
  H32      1.0000 0.50850  0.25650  0.52000  Biso   1.000  H
  C51      1.0000 0.25360  0.09960  0.37670  Biso   1.000  C
  C52      1.0000 0.74640  0.90040  0.62330  Biso   1.000  C
  H33      1.0000 0.20500  0.45600  0.14900  Biso   1.000  H
  H34      1.0000 0.79500  0.54400  0.85100  Biso   1.000  H
  H35      1.0000 0.13800  0.33900  0.18300  Biso   1.000  H
  H36      1.0000 0.86200  0.66100  0.81700  Biso   1.000  H
  H37      1.0000 0.18700  0.58500  0.29400  Biso   1.000  H
  H38      1.0000 0.81300  0.41500  0.70600  Biso   1.000  H
  H39      1.0000 0.23200  0.63500  0.35400  Biso   1.000  H
  H40      1.0000 0.76800  0.36500  0.64600  Biso   1.000  H
