data_image0
_cell_length_a       11.86
_cell_length_b       29.3
_cell_length_c       7.71
_cell_angle_alpha    90
_cell_angle_beta     107.348
_cell_angle_gamma    90

_symmetry_space_group_name_H-M    "P 1"
_symmetry_int_tables_number       1

loop_
  _symmetry_equiv_pos_as_xyz
  'x, y, z'

loop_
  _atom_site_label
  _atom_site_occupancy
  _atom_site_fract_x
  _atom_site_fract_y
  _atom_site_fract_z
  _atom_site_thermal_displace_type
  _atom_site_B_iso_or_equiv
  _atom_site_type_symbol
  Pb1      1.0000 0.45318  0.75002  0.87314  Biso   1.000  Pb
  Pb2      1.0000 0.54682  0.25002  0.62686  Biso   1.000  Pb
  Pb3      1.0000 0.54682  0.24998  0.12686  Biso   1.000  Pb
  Pb4      1.0000 0.45318  0.74998  0.37314  Biso   1.000  Pb
  I1       1.0000 0.64439  0.79984  0.70007  Biso   1.000  I
  I2       1.0000 0.35561  0.29984  0.79993  Biso   1.000  I
  I3       1.0000 0.35561  0.20016  0.29993  Biso   1.000  I
  I4       1.0000 0.64439  0.70016  0.20007  Biso   1.000  I
  I5       1.0000 0.27270  0.79450  0.53542  Biso   1.000  I
  I6       1.0000 0.72730  0.29450  0.96458  Biso   1.000  I
  I7       1.0000 0.72730  0.20550  0.46458  Biso   1.000  I
  I8       1.0000 0.27270  0.70550  0.03542  Biso   1.000  I
  Cl1      1.0000 0.45066  0.67732  0.62744  Biso   1.000  Cl
  Cl2      1.0000 0.54934  0.17732  0.87256  Biso   1.000  Cl
  Cl3      1.0000 0.54934  0.32268  0.37256  Biso   1.000  Cl
  Cl4      1.0000 0.45066  0.82268  0.12744  Biso   1.000  Cl
  Cl5      1.0000 0.89032  0.52380  0.72937  Biso   1.000  Cl
  Cl6      1.0000 0.10968  0.02380  0.77063  Biso   1.000  Cl
  Cl7      1.0000 0.10968  0.47620  0.27063  Biso   1.000  Cl
  Cl8      1.0000 0.89032  0.97620  0.22937  Biso   1.000  Cl
  Cu1      1.0000 0.77796  0.55627  0.45513  Biso   1.000  Cu
  Cu2      1.0000 0.22204  0.05627  0.04487  Biso   1.000  Cu
  Cu3      1.0000 0.22204  0.44373  0.54487  Biso   1.000  Cu
  Cu4      1.0000 0.77796  0.94373  0.95513  Biso   1.000  Cu
  N1       1.0000 0.89160  0.58387  0.31370  Biso   1.000  N
  N2       1.0000 0.10840  0.08387  0.18630  Biso   1.000  N
  N3       1.0000 0.10840  0.41613  0.68630  Biso   1.000  N
  N4       1.0000 0.89160  0.91613  0.81370  Biso   1.000  N
  N5       1.0000 0.80780  0.61772  0.57210  Biso   1.000  N
  N6       1.0000 0.19220  0.11772  0.92790  Biso   1.000  N
  N7       1.0000 0.19220  0.38228  0.42790  Biso   1.000  N
  N8       1.0000 0.80780  0.88228  0.07210  Biso   1.000  N
  N9       1.0000 0.74950  0.49475  0.33480  Biso   1.000  N
  N10      1.0000 0.25050  0.99475  0.16520  Biso   1.000  N
  N11      1.0000 0.25050  0.50525  0.66520  Biso   1.000  N
  N12      1.0000 0.74950  0.00525  0.83480  Biso   1.000  N
  N13      1.0000 0.59570  0.55771  0.36460  Biso   1.000  N
  N14      1.0000 0.40430  0.05771  0.13540  Biso   1.000  N
  N15      1.0000 0.40430  0.44229  0.63540  Biso   1.000  N
  N16      1.0000 0.59570  0.94229  0.86460  Biso   1.000  N
  C1       1.0000 0.92920  0.56793  0.18060  Biso   1.000  C
  C2       1.0000 0.07080  0.06793  0.31940  Biso   1.000  C
  C3       1.0000 0.07080  0.43207  0.81940  Biso   1.000  C
  C4       1.0000 0.92920  0.93207  0.68060  Biso   1.000  C
  H1       1.0000 0.89630  0.54100  0.12390  Biso   1.000  H
  H2       1.0000 0.10370  0.04100  0.37610  Biso   1.000  H
  H3       1.0000 0.10370  0.45900  0.87610  Biso   1.000  H
  H4       1.0000 0.89630  0.95900  0.62390  Biso   1.000  H
  C5       1.0000 0.01540  0.58940  0.12070  Biso   1.000  C
  C6       1.0000 0.98460  0.08940  0.37930  Biso   1.000  C
  C7       1.0000 0.98460  0.41060  0.87930  Biso   1.000  C
  C8       1.0000 0.01540  0.91060  0.62070  Biso   1.000  C
  H5       1.0000 0.03800  0.57710  0.02480  Biso   1.000  H
  H6       1.0000 0.96200  0.07710  0.47520  Biso   1.000  H
  H7       1.0000 0.96200  0.42290  0.97520  Biso   1.000  H
  H8       1.0000 0.03800  0.92290  0.52480  Biso   1.000  H
  C9       1.0000 0.06640  0.62840  0.20390  Biso   1.000  C
  C10      1.0000 0.93360  0.12840  0.29610  Biso   1.000  C
  C11      1.0000 0.93360  0.37160  0.79610  Biso   1.000  C
  C12      1.0000 0.06640  0.87160  0.70390  Biso   1.000  C
  H9       1.0000 0.12480  0.64300  0.16650  Biso   1.000  H
  H10      1.0000 0.87520  0.14300  0.33350  Biso   1.000  H
  H11      1.0000 0.87520  0.35700  0.83350  Biso   1.000  H
  H12      1.0000 0.12480  0.85700  0.66650  Biso   1.000  H
  C13      1.0000 0.02950  0.64625  0.34680  Biso   1.000  C
  C14      1.0000 0.97050  0.14625  0.15320  Biso   1.000  C
  C15      1.0000 0.97050  0.35375  0.65320  Biso   1.000  C
  C16      1.0000 0.02950  0.85375  0.84680  Biso   1.000  C
  C17      1.0000 0.93920  0.62360  0.39510  Biso   1.000  C
  C18      1.0000 0.06080  0.12360  0.10490  Biso   1.000  C
  C19      1.0000 0.06080  0.37640  0.60490  Biso   1.000  C
  C20      1.0000 0.93920  0.87640  0.89510  Biso   1.000  C
  C21      1.0000 0.89470  0.64150  0.53370  Biso   1.000  C
  C22      1.0000 0.10530  0.14150  0.96630  Biso   1.000  C
  C23      1.0000 0.10530  0.35850  0.46630  Biso   1.000  C
  C24      1.0000 0.89470  0.85850  0.03370  Biso   1.000  C
  C25      1.0000 0.94140  0.68206  0.62440  Biso   1.000  C
  C26      1.0000 0.05860  0.18206  0.87560  Biso   1.000  C
  C27      1.0000 0.05860  0.31794  0.37560  Biso   1.000  C
  C28      1.0000 0.94140  0.81794  0.12440  Biso   1.000  C
  C29      1.0000 0.03570  0.70310  0.57190  Biso   1.000  C
  C30      1.0000 0.96430  0.20310  0.92810  Biso   1.000  C
  C31      1.0000 0.96430  0.29690  0.42810  Biso   1.000  C
  C32      1.0000 0.03570  0.79690  0.07190  Biso   1.000  C
  H13      1.0000 0.06940  0.72940  0.63320  Biso   1.000  H
  H14      1.0000 0.93060  0.22940  0.86680  Biso   1.000  H
  H15      1.0000 0.93060  0.27060  0.36680  Biso   1.000  H
  H16      1.0000 0.06940  0.77060  0.13320  Biso   1.000  H
  C33      1.0000 0.07760  0.68771  0.44270  Biso   1.000  C
  C34      1.0000 0.92240  0.18771  0.05730  Biso   1.000  C
  C35      1.0000 0.92240  0.31229  0.55730  Biso   1.000  C
  C36      1.0000 0.07760  0.81229  0.94270  Biso   1.000  C
  H17      1.0000 0.13770  0.70340  0.41340  Biso   1.000  H
  H18      1.0000 0.86230  0.20340  0.08660  Biso   1.000  H
  H19      1.0000 0.86230  0.29660  0.58660  Biso   1.000  H
  H20      1.0000 0.13770  0.79660  0.91340  Biso   1.000  H
  C37      1.0000 0.82860  0.46345  0.32670  Biso   1.000  C
  C38      1.0000 0.17140  0.96345  0.17330  Biso   1.000  C
  C39      1.0000 0.17140  0.53655  0.67330  Biso   1.000  C
  C40      1.0000 0.82860  0.03655  0.82670  Biso   1.000  C
  H21      1.0000 0.90840  0.47050  0.37360  Biso   1.000  H
  H22      1.0000 0.09160  0.97050  0.12640  Biso   1.000  H
  H23      1.0000 0.09160  0.52950  0.62640  Biso   1.000  H
  H24      1.0000 0.90840  0.02950  0.87360  Biso   1.000  H
  C41      1.0000 0.79700  0.42045  0.25080  Biso   1.000  C
  C42      1.0000 0.20300  0.92045  0.24920  Biso   1.000  C
  C43      1.0000 0.20300  0.57955  0.74920  Biso   1.000  C
  C44      1.0000 0.79700  0.07955  0.75080  Biso   1.000  C
  H25      1.0000 0.85530  0.39980  0.24520  Biso   1.000  H
  H26      1.0000 0.14470  0.89980  0.25480  Biso   1.000  H
  H27      1.0000 0.14470  0.60020  0.75480  Biso   1.000  H
  H28      1.0000 0.85530  0.10020  0.74520  Biso   1.000  H
  C45      1.0000 0.68160  0.40868  0.18500  Biso   1.000  C
  C46      1.0000 0.31840  0.90868  0.31500  Biso   1.000  C
  C47      1.0000 0.31840  0.59132  0.81500  Biso   1.000  C
  C48      1.0000 0.68160  0.09132  0.68500  Biso   1.000  C
  H29      1.0000 0.66030  0.38000  0.13410  Biso   1.000  H
  H30      1.0000 0.33970  0.88000  0.36590  Biso   1.000  H
  H31      1.0000 0.33970  0.62000  0.86590  Biso   1.000  H
  H32      1.0000 0.66030  0.12000  0.63410  Biso   1.000  H
  C49      1.0000 0.59390  0.44050  0.19450  Biso   1.000  C
  C50      1.0000 0.40610  0.94050  0.30550  Biso   1.000  C
  C51      1.0000 0.40610  0.55950  0.80550  Biso   1.000  C
  C52      1.0000 0.59390  0.05950  0.69450  Biso   1.000  C
  C53      1.0000 0.63190  0.48334  0.27270  Biso   1.000  C
  C54      1.0000 0.36810  0.98334  0.22730  Biso   1.000  C
  C55      1.0000 0.36810  0.51666  0.72730  Biso   1.000  C
  C56      1.0000 0.63190  0.01666  0.77270  Biso   1.000  C
  C57      1.0000 0.55060  0.51679  0.28740  Biso   1.000  C
  C58      1.0000 0.44940  0.01679  0.21260  Biso   1.000  C
  C59      1.0000 0.44940  0.48321  0.71260  Biso   1.000  C
  C60      1.0000 0.55060  0.98321  0.78740  Biso   1.000  C
  C61      1.0000 0.42870  0.50782  0.22590  Biso   1.000  C
  C62      1.0000 0.57130  0.00782  0.27410  Biso   1.000  C
  C63      1.0000 0.57130  0.49218  0.77410  Biso   1.000  C
  C64      1.0000 0.42870  0.99218  0.72590  Biso   1.000  C
  C65      1.0000 0.39310  0.46397  0.14610  Biso   1.000  C
  C66      1.0000 0.60690  0.96397  0.35390  Biso   1.000  C
  C67      1.0000 0.60690  0.53603  0.85390  Biso   1.000  C
  C68      1.0000 0.39310  0.03603  0.64610  Biso   1.000  C
  H33      1.0000 0.31280  0.45760  0.10350  Biso   1.000  H
  H34      1.0000 0.68720  0.95760  0.39650  Biso   1.000  H
  H35      1.0000 0.68720  0.54240  0.89650  Biso   1.000  H
  H36      1.0000 0.31280  0.04240  0.60350  Biso   1.000  H
  C69      1.0000 0.46850  0.43183  0.12940  Biso   1.000  C
  C70      1.0000 0.53150  0.93183  0.37060  Biso   1.000  C
  C71      1.0000 0.53150  0.56817  0.87060  Biso   1.000  C
  C72      1.0000 0.46850  0.06817  0.62940  Biso   1.000  C
  H37      1.0000 0.44060  0.40390  0.07610  Biso   1.000  H
  H38      1.0000 0.55940  0.90390  0.42390  Biso   1.000  H
  H39      1.0000 0.55940  0.59610  0.92390  Biso   1.000  H
  H40      1.0000 0.44060  0.09610  0.57610  Biso   1.000  H
  C73      1.0000 0.88950  0.69894  0.75500  Biso   1.000  C
  C74      1.0000 0.11050  0.19894  0.74500  Biso   1.000  C
  C75      1.0000 0.11050  0.30106  0.24500  Biso   1.000  C
  C76      1.0000 0.88950  0.80106  0.25500  Biso   1.000  C
  H41      1.0000 0.91560  0.72600  0.81700  Biso   1.000  H
  H42      1.0000 0.08440  0.22600  0.68300  Biso   1.000  H
  H43      1.0000 0.08440  0.27400  0.18300  Biso   1.000  H
  H44      1.0000 0.91560  0.77400  0.31700  Biso   1.000  H
  C77      1.0000 0.80250  0.67502  0.78650  Biso   1.000  C
  C78      1.0000 0.19750  0.17502  0.71350  Biso   1.000  C
  C79      1.0000 0.19750  0.32498  0.21350  Biso   1.000  C
  C80      1.0000 0.80250  0.82498  0.28650  Biso   1.000  C
  H45      1.0000 0.76700  0.68580  0.87100  Biso   1.000  H
  H46      1.0000 0.23300  0.18580  0.62900  Biso   1.000  H
  H47      1.0000 0.23300  0.31420  0.12900  Biso   1.000  H
  H48      1.0000 0.76700  0.81420  0.37100  Biso   1.000  H
  C81      1.0000 0.76340  0.63480  0.69760  Biso   1.000  C
  C82      1.0000 0.23660  0.13480  0.80240  Biso   1.000  C
  C83      1.0000 0.23660  0.36520  0.30240  Biso   1.000  C
  C84      1.0000 0.76340  0.86520  0.19760  Biso   1.000  C
  H49      1.0000 0.70360  0.61890  0.72630  Biso   1.000  H
  H50      1.0000 0.29640  0.11890  0.77370  Biso   1.000  H
  H51      1.0000 0.29640  0.38110  0.27370  Biso   1.000  H
  H52      1.0000 0.70360  0.88110  0.22630  Biso   1.000  H
  C85      1.0000 0.35390  0.54349  0.24620  Biso   1.000  C
  C86      1.0000 0.64610  0.04349  0.25380  Biso   1.000  C
  C87      1.0000 0.64610  0.45651  0.75380  Biso   1.000  C
  C88      1.0000 0.35390  0.95651  0.74620  Biso   1.000  C
  H53      1.0000 0.27260  0.53910  0.20940  Biso   1.000  H
  H54      1.0000 0.72740  0.03910  0.29060  Biso   1.000  H
  H55      1.0000 0.72740  0.46090  0.79060  Biso   1.000  H
  H56      1.0000 0.27260  0.96090  0.70940  Biso   1.000  H
  C89      1.0000 0.39850  0.58370  0.31800  Biso   1.000  C
  C90      1.0000 0.60150  0.08370  0.18200  Biso   1.000  C
  C91      1.0000 0.60150  0.41630  0.68200  Biso   1.000  C
  C92      1.0000 0.39850  0.91630  0.81800  Biso   1.000  C
  H57      1.0000 0.34810  0.60720  0.32830  Biso   1.000  H
  H58      1.0000 0.65190  0.10720  0.17170  Biso   1.000  H
  H59      1.0000 0.65190  0.39280  0.67170  Biso   1.000  H
  H60      1.0000 0.34810  0.89280  0.82830  Biso   1.000  H
  C93      1.0000 0.51940  0.59030  0.37650  Biso   1.000  C
  C94      1.0000 0.48060  0.09030  0.12350  Biso   1.000  C
  C95      1.0000 0.48060  0.40970  0.62350  Biso   1.000  C
  C96      1.0000 0.51940  0.90970  0.87650  Biso   1.000  C
  H61      1.0000 0.54870  0.61840  0.42600  Biso   1.000  H
  H62      1.0000 0.45130  0.11840  0.07400  Biso   1.000  H
  H63      1.0000 0.45130  0.38160  0.57400  Biso   1.000  H
  H64      1.0000 0.54870  0.88160  0.92600  Biso   1.000  H
