data_image0
_cell_length_a       11.869
_cell_length_b       28.971
_cell_length_c       7.572
_cell_angle_alpha    90
_cell_angle_beta     108.529
_cell_angle_gamma    90

_symmetry_space_group_name_H-M    "P 1"
_symmetry_int_tables_number       1

loop_
  _symmetry_equiv_pos_as_xyz
  'x, y, z'

loop_
  _atom_site_label
  _atom_site_occupancy
  _atom_site_fract_x
  _atom_site_fract_y
  _atom_site_fract_z
  _atom_site_thermal_displace_type
  _atom_site_B_iso_or_equiv
  _atom_site_type_symbol
  Pb1      1.0000 0.46385  0.75112  0.06044  Biso   1.000  Pb
  Pb2      1.0000 0.53615  0.25112  0.43956  Biso   1.000  Pb
  Pb3      1.0000 0.53615  0.24888  0.93956  Biso   1.000  Pb
  Pb4      1.0000 0.46385  0.74888  0.56044  Biso   1.000  Pb
  Cu1      1.0000 0.77899  0.56019  0.33374  Biso   1.000  Cu
  Cu2      1.0000 0.22101  0.06019  0.16626  Biso   1.000  Cu
  Cu3      1.0000 0.22101  0.43981  0.66626  Biso   1.000  Cu
  Cu4      1.0000 0.77899  0.93981  0.83374  Biso   1.000  Cu
  Cl1      1.0000 0.45506  0.67601  0.81210  Biso   1.000  Cl
  Cl2      1.0000 0.54494  0.17601  0.68790  Biso   1.000  Cl
  Cl3      1.0000 0.54494  0.32399  0.18790  Biso   1.000  Cl
  Cl4      1.0000 0.45506  0.82399  0.31210  Biso   1.000  Cl
  Cl5      1.0000 0.88861  0.52668  0.15813  Biso   1.000  Cl
  Cl6      1.0000 0.11139  0.02668  0.34187  Biso   1.000  Cl
  Cl7      1.0000 0.11139  0.47332  0.84187  Biso   1.000  Cl
  Cl8      1.0000 0.88861  0.97332  0.65813  Biso   1.000  Cl
  Cl9      1.0000 0.29550  0.79252  0.72982  Biso   1.000  Cl
  Cl10     1.0000 0.70450  0.29252  0.77018  Biso   1.000  Cl
  Cl11     1.0000 0.70450  0.20748  0.27018  Biso   1.000  Cl
  Cl12     1.0000 0.29550  0.70748  0.22982  Biso   1.000  Cl
  Cl13     1.0000 0.63845  0.79467  0.91386  Biso   1.000  Cl
  Cl14     1.0000 0.36155  0.29467  0.58614  Biso   1.000  Cl
  Cl15     1.0000 0.36155  0.20533  0.08614  Biso   1.000  Cl
  Cl16     1.0000 0.63845  0.70533  0.41386  Biso   1.000  Cl
  N1       1.0000 0.89740  0.58789  0.58270  Biso   1.000  N
  N2       1.0000 0.10260  0.08789  0.91730  Biso   1.000  N
  N3       1.0000 0.10260  0.41211  0.41730  Biso   1.000  N
  N4       1.0000 0.89740  0.91211  0.08270  Biso   1.000  N
  N5       1.0000 0.75120  0.49785  0.42600  Biso   1.000  N
  N6       1.0000 0.24880  0.99785  0.07400  Biso   1.000  N
  N7       1.0000 0.24880  0.50215  0.57400  Biso   1.000  N
  N8       1.0000 0.75120  0.00215  0.92600  Biso   1.000  N
  N9       1.0000 0.80730  0.62190  0.23840  Biso   1.000  N
  N10      1.0000 0.19270  0.12190  0.26160  Biso   1.000  N
  N11      1.0000 0.19270  0.37810  0.76160  Biso   1.000  N
  N12      1.0000 0.80730  0.87810  0.73840  Biso   1.000  N
  N13      1.0000 0.59580  0.56129  0.24500  Biso   1.000  N
  N14      1.0000 0.40420  0.06129  0.25500  Biso   1.000  N
  N15      1.0000 0.40420  0.43871  0.75500  Biso   1.000  N
  N16      1.0000 0.59580  0.93871  0.74500  Biso   1.000  N
  C1       1.0000 0.68350  0.40893  0.49800  Biso   1.000  C
  C2       1.0000 0.31650  0.90893  0.00200  Biso   1.000  C
  C3       1.0000 0.31650  0.59107  0.50200  Biso   1.000  C
  C4       1.0000 0.68350  0.09107  0.99800  Biso   1.000  C
  H1       1.0000 0.66240  0.37950  0.52510  Biso   1.000  H
  H2       1.0000 0.33760  0.87950  0.97490  Biso   1.000  H
  H3       1.0000 0.33760  0.62050  0.47490  Biso   1.000  H
  H4       1.0000 0.66240  0.12050  0.02510  Biso   1.000  H
  C5       1.0000 0.47170  0.43128  0.33300  Biso   1.000  C
  C6       1.0000 0.52830  0.93128  0.16700  Biso   1.000  C
  C7       1.0000 0.52830  0.56872  0.66700  Biso   1.000  C
  C8       1.0000 0.47170  0.06872  0.83300  Biso   1.000  C
  H5       1.0000 0.44390  0.40270  0.35730  Biso   1.000  H
  H6       1.0000 0.55610  0.90270  0.14270  Biso   1.000  H
  H7       1.0000 0.55610  0.59730  0.64270  Biso   1.000  H
  H8       1.0000 0.44390  0.09730  0.85730  Biso   1.000  H
  C9       1.0000 0.63240  0.48509  0.36740  Biso   1.000  C
  C10      1.0000 0.36760  0.98509  0.13260  Biso   1.000  C
  C11      1.0000 0.36760  0.51491  0.63260  Biso   1.000  C
  C12      1.0000 0.63240  0.01491  0.86740  Biso   1.000  C
  C13      1.0000 0.59550  0.44076  0.39890  Biso   1.000  C
  C14      1.0000 0.40450  0.94076  0.10110  Biso   1.000  C
  C15      1.0000 0.40450  0.55924  0.60110  Biso   1.000  C
  C16      1.0000 0.59550  0.05924  0.89890  Biso   1.000  C
  C17      1.0000 0.79890  0.42224  0.55250  Biso   1.000  C
  C18      1.0000 0.20110  0.92224  0.94750  Biso   1.000  C
  C19      1.0000 0.20110  0.57776  0.44750  Biso   1.000  C
  C20      1.0000 0.79890  0.07776  0.05250  Biso   1.000  C
  H9       1.0000 0.85740  0.40150  0.61700  Biso   1.000  H
  H10      1.0000 0.14260  0.90150  0.88300  Biso   1.000  H
  H11      1.0000 0.14260  0.59850  0.38300  Biso   1.000  H
  H12      1.0000 0.85740  0.09850  0.11700  Biso   1.000  H
  C21      1.0000 0.52150  0.59310  0.16270  Biso   1.000  C
  C22      1.0000 0.47850  0.09310  0.33730  Biso   1.000  C
  C23      1.0000 0.47850  0.40690  0.83730  Biso   1.000  C
  C24      1.0000 0.52150  0.90690  0.66270  Biso   1.000  C
  H13      1.0000 0.55080  0.62240  0.15150  Biso   1.000  H
  H14      1.0000 0.44920  0.12240  0.34850  Biso   1.000  H
  H15      1.0000 0.44920  0.37760  0.84850  Biso   1.000  H
  H16      1.0000 0.55080  0.87760  0.65150  Biso   1.000  H
  C25      1.0000 0.39710  0.58539  0.08820  Biso   1.000  C
  C26      1.0000 0.60290  0.08539  0.41180  Biso   1.000  C
  C27      1.0000 0.60290  0.41461  0.91180  Biso   1.000  C
  C28      1.0000 0.39710  0.91461  0.58820  Biso   1.000  C
  H17      1.0000 0.34660  0.60910  0.02850  Biso   1.000  H
  H18      1.0000 0.65340  0.10910  0.47150  Biso   1.000  H
  H19      1.0000 0.65340  0.39090  0.97150  Biso   1.000  H
  H20      1.0000 0.34660  0.89090  0.52850  Biso   1.000  H
  C29      1.0000 0.35350  0.54377  0.10490  Biso   1.000  C
  C30      1.0000 0.64650  0.04377  0.39510  Biso   1.000  C
  C31      1.0000 0.64650  0.45623  0.89510  Biso   1.000  C
  C32      1.0000 0.35350  0.95623  0.60490  Biso   1.000  C
  H21      1.0000 0.27250  0.53820  0.05390  Biso   1.000  H
  H22      1.0000 0.72750  0.03820  0.44610  Biso   1.000  H
  H23      1.0000 0.72750  0.46180  0.94610  Biso   1.000  H
  H24      1.0000 0.27250  0.96180  0.55390  Biso   1.000  H
  C33      1.0000 0.04030  0.65012  0.67190  Biso   1.000  C
  C34      1.0000 0.95970  0.15012  0.82810  Biso   1.000  C
  C35      1.0000 0.95970  0.34988  0.32810  Biso   1.000  C
  C36      1.0000 0.04030  0.84988  0.17190  Biso   1.000  C
  C37      1.0000 0.93810  0.57182  0.75580  Biso   1.000  C
  C38      1.0000 0.06190  0.07182  0.74420  Biso   1.000  C
  C39      1.0000 0.06190  0.42818  0.24420  Biso   1.000  C
  C40      1.0000 0.93810  0.92818  0.25580  Biso   1.000  C
  H25      1.0000 0.90450  0.54490  0.78400  Biso   1.000  H
  H26      1.0000 0.09550  0.04490  0.71600  Biso   1.000  H
  H27      1.0000 0.09550  0.45510  0.21600  Biso   1.000  H
  H28      1.0000 0.90450  0.95510  0.28400  Biso   1.000  H
  C41      1.0000 0.55090  0.51898  0.26580  Biso   1.000  C
  C42      1.0000 0.44910  0.01898  0.23420  Biso   1.000  C
  C43      1.0000 0.44910  0.48102  0.73420  Biso   1.000  C
  C44      1.0000 0.55090  0.98102  0.76580  Biso   1.000  C
  C45      1.0000 0.39320  0.46344  0.23490  Biso   1.000  C
  C46      1.0000 0.60680  0.96344  0.26510  Biso   1.000  C
  C47      1.0000 0.60680  0.53656  0.76510  Biso   1.000  C
  C48      1.0000 0.39320  0.03656  0.73490  Biso   1.000  C
  H29      1.0000 0.31300  0.45590  0.18940  Biso   1.000  H
  H30      1.0000 0.68700  0.95590  0.31060  Biso   1.000  H
  H31      1.0000 0.68700  0.54410  0.81060  Biso   1.000  H
  H32      1.0000 0.31300  0.04410  0.68940  Biso   1.000  H
  C49      1.0000 0.43010  0.50837  0.19950  Biso   1.000  C
  C50      1.0000 0.56990  0.00837  0.30050  Biso   1.000  C
  C51      1.0000 0.56990  0.49163  0.80050  Biso   1.000  C
  C52      1.0000 0.43010  0.99163  0.69950  Biso   1.000  C
  C53      1.0000 0.94640  0.62779  0.54200  Biso   1.000  C
  C54      1.0000 0.05360  0.12779  0.95800  Biso   1.000  C
  C55      1.0000 0.05360  0.37221  0.45800  Biso   1.000  C
  C56      1.0000 0.94640  0.87221  0.04200  Biso   1.000  C
  C57      1.0000 0.02820  0.59298  0.89740  Biso   1.000  C
  C58      1.0000 0.97180  0.09298  0.60260  Biso   1.000  C
  C59      1.0000 0.97180  0.40702  0.10260  Biso   1.000  C
  C60      1.0000 0.02820  0.90702  0.39740  Biso   1.000  C
  H33      1.0000 0.05350  0.58080  0.01720  Biso   1.000  H
  H34      1.0000 0.94650  0.08080  0.48280  Biso   1.000  H
  H35      1.0000 0.94650  0.41920  0.98280  Biso   1.000  H
  H36      1.0000 0.05350  0.91920  0.51720  Biso   1.000  H
  C61      1.0000 0.76130  0.63867  0.07020  Biso   1.000  C
  C62      1.0000 0.23870  0.13867  0.42980  Biso   1.000  C
  C63      1.0000 0.23870  0.36133  0.92980  Biso   1.000  C
  C64      1.0000 0.76130  0.86133  0.57020  Biso   1.000  C
  H37      1.0000 0.69900  0.62240  0.98800  Biso   1.000  H
  H38      1.0000 0.30100  0.12240  0.51200  Biso   1.000  H
  H39      1.0000 0.30100  0.37760  0.01200  Biso   1.000  H
  H40      1.0000 0.69900  0.87760  0.48800  Biso   1.000  H
  C65      1.0000 0.83190  0.46690  0.51340  Biso   1.000  C
  C66      1.0000 0.16810  0.96690  0.98660  Biso   1.000  C
  C67      1.0000 0.16810  0.53310  0.48660  Biso   1.000  C
  C68      1.0000 0.83190  0.03310  0.01340  Biso   1.000  C
  H41      1.0000 0.91190  0.47480  0.54970  Biso   1.000  H
  H42      1.0000 0.08810  0.97480  0.95030  Biso   1.000  H
  H43      1.0000 0.08810  0.52520  0.45030  Biso   1.000  H
  H44      1.0000 0.91190  0.02520  0.04970  Biso   1.000  H
  C69      1.0000 0.07880  0.63258  0.85470  Biso   1.000  C
  C70      1.0000 0.92120  0.13258  0.64530  Biso   1.000  C
  C71      1.0000 0.92120  0.36742  0.14530  Biso   1.000  C
  C72      1.0000 0.07880  0.86742  0.35470  Biso   1.000  C
  H45      1.0000 0.13840  0.64770  0.94680  Biso   1.000  H
  H46      1.0000 0.86160  0.14770  0.55320  Biso   1.000  H
  H47      1.0000 0.86160  0.35230  0.05320  Biso   1.000  H
  H48      1.0000 0.13840  0.85230  0.44680  Biso   1.000  H
  C73      1.0000 0.89950  0.64538  0.35930  Biso   1.000  C
  C74      1.0000 0.10050  0.14538  0.14070  Biso   1.000  C
  C75      1.0000 0.10050  0.35462  0.64070  Biso   1.000  C
  C76      1.0000 0.89950  0.85462  0.85930  Biso   1.000  C
  C77      1.0000 0.79860  0.67912  0.00430  Biso   1.000  C
  C78      1.0000 0.20140  0.17912  0.49570  Biso   1.000  C
  C79      1.0000 0.20140  0.32088  0.99570  Biso   1.000  C
  C80      1.0000 0.79860  0.82088  0.50430  Biso   1.000  C
  H49      1.0000 0.76090  0.69010  0.88470  Biso   1.000  H
  H50      1.0000 0.23910  0.19010  0.61530  Biso   1.000  H
  H51      1.0000 0.23910  0.30990  0.11530  Biso   1.000  H
  H52      1.0000 0.76090  0.80990  0.38470  Biso   1.000  H
  C81      1.0000 0.94620  0.68607  0.30760  Biso   1.000  C
  C82      1.0000 0.05380  0.18607  0.19240  Biso   1.000  C
  C83      1.0000 0.05380  0.31393  0.69240  Biso   1.000  C
  C84      1.0000 0.94620  0.81393  0.80760  Biso   1.000  C
  C85      1.0000 0.89400  0.70186  0.12610  Biso   1.000  C
  C86      1.0000 0.10600  0.20186  0.37390  Biso   1.000  C
  C87      1.0000 0.10600  0.29814  0.87390  Biso   1.000  C
  C88      1.0000 0.89400  0.79814  0.62610  Biso   1.000  C
  H53      1.0000 0.92400  0.72810  0.08630  Biso   1.000  H
  H54      1.0000 0.07600  0.22810  0.41370  Biso   1.000  H
  H55      1.0000 0.07600  0.27190  0.91370  Biso   1.000  H
  H56      1.0000 0.92400  0.77190  0.58630  Biso   1.000  H
  C89      1.0000 0.04390  0.70657  0.43690  Biso   1.000  C
  C90      1.0000 0.95610  0.20657  0.06310  Biso   1.000  C
  C91      1.0000 0.95610  0.29343  0.56310  Biso   1.000  C
  C92      1.0000 0.04390  0.79343  0.93690  Biso   1.000  C
  H57      1.0000 0.07810  0.73240  0.40150  Biso   1.000  H
  H58      1.0000 0.92190  0.23240  0.09850  Biso   1.000  H
  H59      1.0000 0.92190  0.26760  0.59850  Biso   1.000  H
  H60      1.0000 0.07810  0.76760  0.90150  Biso   1.000  H
  C93      1.0000 0.08970  0.69065  0.60800  Biso   1.000  C
  C94      1.0000 0.91030  0.19065  0.89200  Biso   1.000  C
  C95      1.0000 0.91030  0.30935  0.39200  Biso   1.000  C
  C96      1.0000 0.08970  0.80935  0.10800  Biso   1.000  C
  H61      1.0000 0.15490  0.70550  0.68990  Biso   1.000  H
  H62      1.0000 0.84510  0.20550  0.81010  Biso   1.000  H
  H63      1.0000 0.84510  0.29450  0.31010  Biso   1.000  H
  H64      1.0000 0.15490  0.79450  0.18990  Biso   1.000  H
