data_image0
_cell_length_a       18.717
_cell_length_b       19.673
_cell_length_c       7.8746
_cell_angle_alpha    90
_cell_angle_beta     93.08
_cell_angle_gamma    90

_symmetry_space_group_name_H-M    "P 1"
_symmetry_int_tables_number       1

loop_
  _symmetry_equiv_pos_as_xyz
  'x, y, z'

loop_
  _atom_site_label
  _atom_site_occupancy
  _atom_site_fract_x
  _atom_site_fract_y
  _atom_site_fract_z
  _atom_site_thermal_displace_type
  _atom_site_B_iso_or_equiv
  _atom_site_type_symbol
  Pb1      1.0000 0.15496  0.25138  0.29255  Biso   1.000  Pb
  Pb2      1.0000 0.84504  0.75138  0.20745  Biso   1.000  Pb
  Pb3      1.0000 0.84504  0.74862  0.70745  Biso   1.000  Pb
  Pb4      1.0000 0.15496  0.24862  0.79255  Biso   1.000  Pb
  I1       1.0000 0.15026  0.37995  0.55952  Biso   1.000  I
  I2       1.0000 0.84974  0.87995  0.94048  Biso   1.000  I
  I3       1.0000 0.84974  0.62005  0.44048  Biso   1.000  I
  I4       1.0000 0.15026  0.12005  0.05952  Biso   1.000  I
  I5       1.0000 0.03613  0.18842  0.52559  Biso   1.000  I
  I6       1.0000 0.96387  0.68842  0.97441  Biso   1.000  I
  I7       1.0000 0.96387  0.81158  0.47441  Biso   1.000  I
  I8       1.0000 0.03613  0.31158  0.02559  Biso   1.000  I
  I9       1.0000 0.28222  0.19196  0.55790  Biso   1.000  I
  I10      1.0000 0.71778  0.69196  0.94210  Biso   1.000  I
  I11      1.0000 0.71778  0.80804  0.44210  Biso   1.000  I
  I12      1.0000 0.28222  0.30804  0.05790  Biso   1.000  I
  I13      1.0000 0.35734  0.63126  0.01513  Biso   1.000  I
  I14      1.0000 0.64266  0.13126  0.48487  Biso   1.000  I
  I15      1.0000 0.64266  0.36874  0.98487  Biso   1.000  I
  I16      1.0000 0.35734  0.86874  0.51513  Biso   1.000  I
  Cu1      1.0000 0.32469  0.59627  0.32325  Biso   1.000  Cu
  Cu2      1.0000 0.67531  0.09627  0.17675  Biso   1.000  Cu
  Cu3      1.0000 0.67531  0.40373  0.67675  Biso   1.000  Cu
  Cu4      1.0000 0.32469  0.90373  0.82325  Biso   1.000  Cu
  N1       1.0000 0.41290  0.63891  0.43390  Biso   1.000  N
  N2       1.0000 0.58710  0.13891  0.06610  Biso   1.000  N
  N3       1.0000 0.58710  0.36109  0.56610  Biso   1.000  N
  N4       1.0000 0.41290  0.86109  0.93390  Biso   1.000  N
  N5       1.0000 0.35720  0.51700  0.49300  Biso   1.000  N
  N6       1.0000 0.64280  0.01700  0.00700  Biso   1.000  N
  N7       1.0000 0.64280  0.48300  0.50700  Biso   1.000  N
  N8       1.0000 0.35720  0.98300  0.99300  Biso   1.000  N
  N9       1.0000 0.23450  0.55150  0.23470  Biso   1.000  N
  N10      1.0000 0.76550  0.05150  0.26530  Biso   1.000  N
  N11      1.0000 0.76550  0.44850  0.76530  Biso   1.000  N
  N12      1.0000 0.23450  0.94850  0.73470  Biso   1.000  N
  N13      1.0000 0.25160  0.64530  0.47980  Biso   1.000  N
  N14      1.0000 0.74840  0.14530  0.02020  Biso   1.000  N
  N15      1.0000 0.74840  0.35470  0.52020  Biso   1.000  N
  N16      1.0000 0.25160  0.85470  0.97980  Biso   1.000  N
  C1       1.0000 0.44060  0.69940  0.40190  Biso   1.000  C
  C2       1.0000 0.55940  0.19940  0.09810  Biso   1.000  C
  C3       1.0000 0.55940  0.30060  0.59810  Biso   1.000  C
  C4       1.0000 0.44060  0.80060  0.90190  Biso   1.000  C
  H1       1.0000 0.41750  0.72670  0.31970  Biso   1.000  H
  H2       1.0000 0.58250  0.22670  0.18030  Biso   1.000  H
  H3       1.0000 0.58250  0.27330  0.68030  Biso   1.000  H
  H4       1.0000 0.41750  0.77330  0.81970  Biso   1.000  H
  C5       1.0000 0.50310  0.72390  0.48620  Biso   1.000  C
  C6       1.0000 0.49690  0.22390  0.01380  Biso   1.000  C
  C7       1.0000 0.49690  0.27610  0.51380  Biso   1.000  C
  C8       1.0000 0.50310  0.77610  0.98620  Biso   1.000  C
  H5       1.0000 0.52030  0.76690  0.46130  Biso   1.000  H
  H6       1.0000 0.47970  0.26690  0.03870  Biso   1.000  H
  H7       1.0000 0.47970  0.23310  0.53870  Biso   1.000  H
  H8       1.0000 0.52030  0.73310  0.96130  Biso   1.000  H
  C9       1.0000 0.53820  0.68480  0.60400  Biso   1.000  C
  C10      1.0000 0.46180  0.18480  0.89600  Biso   1.000  C
  C11      1.0000 0.46180  0.31520  0.39600  Biso   1.000  C
  C12      1.0000 0.53820  0.81520  0.10400  Biso   1.000  C
  H9       1.0000 0.58040  0.70020  0.65850  Biso   1.000  H
  H10      1.0000 0.41960  0.20020  0.84150  Biso   1.000  H
  H11      1.0000 0.41960  0.29980  0.34150  Biso   1.000  H
  H12      1.0000 0.58040  0.79980  0.15850  Biso   1.000  H
  C13      1.0000 0.51090  0.62060  0.64400  Biso   1.000  C
  C14      1.0000 0.48910  0.12060  0.85600  Biso   1.000  C
  C15      1.0000 0.48910  0.37940  0.35600  Biso   1.000  C
  C16      1.0000 0.51090  0.87940  0.14400  Biso   1.000  C
  C17      1.0000 0.44790  0.59980  0.55570  Biso   1.000  C
  C18      1.0000 0.55210  0.09980  0.94430  Biso   1.000  C
  C19      1.0000 0.55210  0.40020  0.44430  Biso   1.000  C
  C20      1.0000 0.44790  0.90020  0.05570  Biso   1.000  C
  C21      1.0000 0.41710  0.53480  0.58710  Biso   1.000  C
  C22      1.0000 0.58290  0.03480  0.91290  Biso   1.000  C
  C23      1.0000 0.58290  0.46520  0.41290  Biso   1.000  C
  C24      1.0000 0.41710  0.96520  0.08710  Biso   1.000  C
  C25      1.0000 0.45020  0.49250  0.71080  Biso   1.000  C
  C26      1.0000 0.54980  0.99250  0.78920  Biso   1.000  C
  C27      1.0000 0.54980  0.50750  0.28920  Biso   1.000  C
  C28      1.0000 0.45020  0.00750  0.21080  Biso   1.000  C
  C29      1.0000 0.51570  0.51490  0.79670  Biso   1.000  C
  C30      1.0000 0.48430  0.01490  0.70330  Biso   1.000  C
  C31      1.0000 0.48430  0.48510  0.20330  Biso   1.000  C
  C32      1.0000 0.51570  0.98510  0.29670  Biso   1.000  C
  H13      1.0000 0.53900  0.48640  0.87590  Biso   1.000  H
  H14      1.0000 0.46100  0.98640  0.62410  Biso   1.000  H
  H15      1.0000 0.46100  0.51360  0.12410  Biso   1.000  H
  H16      1.0000 0.53900  0.01360  0.37590  Biso   1.000  H
  C33      1.0000 0.54420  0.57570  0.76570  Biso   1.000  C
  C34      1.0000 0.45580  0.07570  0.73430  Biso   1.000  C
  C35      1.0000 0.45580  0.42430  0.23430  Biso   1.000  C
  C36      1.0000 0.54420  0.92430  0.26570  Biso   1.000  C
  H17      1.0000 0.58630  0.58880  0.82450  Biso   1.000  H
  H18      1.0000 0.41370  0.08880  0.67550  Biso   1.000  H
  H19      1.0000 0.41370  0.41120  0.17550  Biso   1.000  H
  H20      1.0000 0.58630  0.91120  0.32450  Biso   1.000  H
  C37      1.0000 0.22710  0.50520  0.11270  Biso   1.000  C
  C38      1.0000 0.77290  0.00520  0.38730  Biso   1.000  C
  C39      1.0000 0.77290  0.49480  0.88730  Biso   1.000  C
  C40      1.0000 0.22710  0.99480  0.61270  Biso   1.000  C
  H21      1.0000 0.26740  0.49120  0.05810  Biso   1.000  H
  H22      1.0000 0.73260  0.99120  0.44190  Biso   1.000  H
  H23      1.0000 0.73260  0.50880  0.94190  Biso   1.000  H
  H24      1.0000 0.26740  0.00880  0.55810  Biso   1.000  H
  C41      1.0000 0.16100  0.47680  0.06330  Biso   1.000  C
  C42      1.0000 0.83900  0.97680  0.43670  Biso   1.000  C
  C43      1.0000 0.83900  0.52320  0.93670  Biso   1.000  C
  C44      1.0000 0.16100  0.02320  0.56330  Biso   1.000  C
  H25      1.0000 0.15780  0.44450  0.97700  Biso   1.000  H
  H26      1.0000 0.84220  0.94450  0.52300  Biso   1.000  H
  H27      1.0000 0.84220  0.55550  0.02300  Biso   1.000  H
  H28      1.0000 0.15780  0.05550  0.47700  Biso   1.000  H
  C45      1.0000 0.10170  0.49600  0.14070  Biso   1.000  C
  C46      1.0000 0.89830  0.99600  0.35930  Biso   1.000  C
  C47      1.0000 0.89830  0.50400  0.85930  Biso   1.000  C
  C48      1.0000 0.10170  0.00400  0.64070  Biso   1.000  C
  H29      1.0000 0.05770  0.47690  0.10790  Biso   1.000  H
  H30      1.0000 0.94230  0.97690  0.39210  Biso   1.000  H
  H31      1.0000 0.94230  0.52310  0.89210  Biso   1.000  H
  H32      1.0000 0.05770  0.02310  0.60790  Biso   1.000  H
  C49      1.0000 0.10650  0.54470  0.27090  Biso   1.000  C
  C50      1.0000 0.89350  0.04470  0.22910  Biso   1.000  C
  C51      1.0000 0.89350  0.45530  0.72910  Biso   1.000  C
  C52      1.0000 0.10650  0.95530  0.77090  Biso   1.000  C
  C53      1.0000 0.17530  0.57100  0.31460  Biso   1.000  C
  C54      1.0000 0.82470  0.07100  0.18540  Biso   1.000  C
  C55      1.0000 0.82470  0.42900  0.68540  Biso   1.000  C
  C56      1.0000 0.17530  0.92900  0.81460  Biso   1.000  C
  C57      1.0000 0.04790  0.56810  0.36270  Biso   1.000  C
  C58      1.0000 0.95210  0.06810  0.13730  Biso   1.000  C
  C59      1.0000 0.95210  0.43190  0.63730  Biso   1.000  C
  C60      1.0000 0.04790  0.93190  0.86270  Biso   1.000  C
  H33      1.0000 0.00250  0.55020  0.33720  Biso   1.000  H
  H34      1.0000 0.99750  0.05020  0.16280  Biso   1.000  H
  H35      1.0000 0.99750  0.44980  0.66280  Biso   1.000  H
  H36      1.0000 0.00250  0.94980  0.83720  Biso   1.000  H
  C61      1.0000 0.05610  0.61500  0.48470  Biso   1.000  C
  C62      1.0000 0.94390  0.11500  0.01530  Biso   1.000  C
  C63      1.0000 0.94390  0.38500  0.51530  Biso   1.000  C
  C64      1.0000 0.05610  0.88500  0.98470  Biso   1.000  C
  H37      1.0000 0.01630  0.62960  0.54040  Biso   1.000  H
  H38      1.0000 0.98370  0.12960  0.95960  Biso   1.000  H
  H39      1.0000 0.98370  0.37040  0.45960  Biso   1.000  H
  H40      1.0000 0.01630  0.87040  0.04040  Biso   1.000  H
  C65      1.0000 0.12460  0.64330  0.53140  Biso   1.000  C
  C66      1.0000 0.87540  0.14330  0.96860  Biso   1.000  C
  C67      1.0000 0.87540  0.35670  0.46860  Biso   1.000  C
  C68      1.0000 0.12460  0.85670  0.03140  Biso   1.000  C
  C69      1.0000 0.18440  0.62080  0.44570  Biso   1.000  C
  C70      1.0000 0.81560  0.12080  0.05430  Biso   1.000  C
  C71      1.0000 0.81560  0.37920  0.55430  Biso   1.000  C
  C72      1.0000 0.18440  0.87920  0.94570  Biso   1.000  C
  C73      1.0000 0.41600  0.43020  0.73770  Biso   1.000  C
  C74      1.0000 0.58400  0.93020  0.76230  Biso   1.000  C
  C75      1.0000 0.58400  0.56980  0.26230  Biso   1.000  C
  C76      1.0000 0.41600  0.06980  0.23770  Biso   1.000  C
  H41      1.0000 0.43560  0.40020  0.81900  Biso   1.000  H
  H42      1.0000 0.56440  0.90020  0.68100  Biso   1.000  H
  H43      1.0000 0.56440  0.59980  0.18100  Biso   1.000  H
  H44      1.0000 0.43560  0.09980  0.31900  Biso   1.000  H
  C77      1.0000 0.35530  0.41290  0.64770  Biso   1.000  C
  C78      1.0000 0.64470  0.91290  0.85230  Biso   1.000  C
  C79      1.0000 0.64470  0.58710  0.35230  Biso   1.000  C
  C80      1.0000 0.35530  0.08710  0.14770  Biso   1.000  C
  H45      1.0000 0.33240  0.37200  0.66860  Biso   1.000  H
  H46      1.0000 0.66760  0.87200  0.83140  Biso   1.000  H
  H47      1.0000 0.66760  0.62800  0.33140  Biso   1.000  H
  H48      1.0000 0.33240  0.12800  0.16860  Biso   1.000  H
  C81      1.0000 0.32740  0.45760  0.52220  Biso   1.000  C
  C82      1.0000 0.67260  0.95760  0.97780  Biso   1.000  C
  C83      1.0000 0.67260  0.54240  0.47780  Biso   1.000  C
  C84      1.0000 0.32740  0.04240  0.02220  Biso   1.000  C
  H49      1.0000 0.28650  0.44490  0.45740  Biso   1.000  H
  H50      1.0000 0.71350  0.94490  0.04260  Biso   1.000  H
  H51      1.0000 0.71350  0.55510  0.54260  Biso   1.000  H
  H52      1.0000 0.28650  0.05510  0.95740  Biso   1.000  H
  C85      1.0000 0.26040  0.69120  0.60030  Biso   1.000  C
  C86      1.0000 0.73960  0.19120  0.89970  Biso   1.000  C
  C87      1.0000 0.73960  0.30880  0.39970  Biso   1.000  C
  C88      1.0000 0.26040  0.80880  0.10030  Biso   1.000  C
  H53      1.0000 0.30630  0.70790  0.62550  Biso   1.000  H
  H54      1.0000 0.69370  0.20790  0.87450  Biso   1.000  H
  H55      1.0000 0.69370  0.29210  0.37450  Biso   1.000  H
  H56      1.0000 0.30630  0.79210  0.12550  Biso   1.000  H
  C89      1.0000 0.20440  0.71630  0.69240  Biso   1.000  C
  C90      1.0000 0.79560  0.21630  0.80760  Biso   1.000  C
  C91      1.0000 0.79560  0.28370  0.30760  Biso   1.000  C
  C92      1.0000 0.20440  0.78370  0.19240  Biso   1.000  C
  H57      1.0000 0.21320  0.74910  0.77610  Biso   1.000  H
  H58      1.0000 0.78680  0.24910  0.72390  Biso   1.000  H
  H59      1.0000 0.78680  0.25090  0.22390  Biso   1.000  H
  H60      1.0000 0.21320  0.75090  0.27610  Biso   1.000  H
  C93      1.0000 0.13690  0.69240  0.65880  Biso   1.000  C
  C94      1.0000 0.86310  0.19240  0.84120  Biso   1.000  C
  C95      1.0000 0.86310  0.30760  0.34120  Biso   1.000  C
  C96      1.0000 0.13690  0.80760  0.15880  Biso   1.000  C
  H61      1.0000 0.09920  0.70850  0.71980  Biso   1.000  H
  H62      1.0000 0.90080  0.20850  0.78020  Biso   1.000  H
  H63      1.0000 0.90080  0.29150  0.28020  Biso   1.000  H
  H64      1.0000 0.09920  0.79150  0.21980  Biso   1.000  H
