data_image0
_cell_length_a       15.853
_cell_length_b       10.785
_cell_length_c       11.629
_cell_angle_alpha    90
_cell_angle_beta     111.321
_cell_angle_gamma    90

_symmetry_space_group_name_H-M    "P 1"
_symmetry_int_tables_number       1

loop_
  _symmetry_equiv_pos_as_xyz
  'x, y, z'

loop_
  _atom_site_label
  _atom_site_occupancy
  _atom_site_fract_x
  _atom_site_fract_y
  _atom_site_fract_z
  _atom_site_thermal_displace_type
  _atom_site_B_iso_or_equiv
  _atom_site_type_symbol
  Cu1      1.0000 0.25000  0.25000  0.25000  Biso   1.000  Cu
  Cu2      1.0000 0.75000  0.75000  0.75000  Biso   1.000  Cu
  Cu3      1.0000 0.25000  0.25000  0.75000  Biso   1.000  Cu
  Cu4      1.0000 0.75000  0.75000  0.25000  Biso   1.000  Cu
  O1       1.0000 0.26440  0.07210  0.21900  Biso   1.000  O
  O2       1.0000 0.76440  0.57210  0.71900  Biso   1.000  O
  O3       1.0000 0.23560  0.07210  0.78100  Biso   1.000  O
  O4       1.0000 0.73560  0.57210  0.28100  Biso   1.000  O
  O5       1.0000 0.73560  0.92790  0.78100  Biso   1.000  O
  O6       1.0000 0.23560  0.42790  0.28100  Biso   1.000  O
  O7       1.0000 0.76440  0.92790  0.21900  Biso   1.000  O
  O8       1.0000 0.26440  0.42790  0.71900  Biso   1.000  O
  O9       1.0000 0.17000  0.13680  0.03750  Biso   1.000  O
  O10      1.0000 0.67000  0.63680  0.53750  Biso   1.000  O
  O11      1.0000 0.33000  0.13680  0.96250  Biso   1.000  O
  O12      1.0000 0.83000  0.63680  0.46250  Biso   1.000  O
  O13      1.0000 0.83000  0.86320  0.96250  Biso   1.000  O
  O14      1.0000 0.33000  0.36320  0.46250  Biso   1.000  O
  O15      1.0000 0.67000  0.86320  0.03750  Biso   1.000  O
  O16      1.0000 0.17000  0.36320  0.53750  Biso   1.000  O
  N1       1.0000 0.35520  0.28280  0.19470  Biso   1.000  N
  N2       1.0000 0.85520  0.78280  0.69470  Biso   1.000  N
  N3       1.0000 0.14480  0.28280  0.80530  Biso   1.000  N
  N4       1.0000 0.64480  0.78280  0.30530  Biso   1.000  N
  N5       1.0000 0.64480  0.71720  0.80530  Biso   1.000  N
  N6       1.0000 0.14480  0.21720  0.30530  Biso   1.000  N
  N7       1.0000 0.85520  0.71720  0.19470  Biso   1.000  N
  N8       1.0000 0.35520  0.21720  0.69470  Biso   1.000  N
  C1       1.0000 0.44240  0.23870  0.28620  Biso   1.000  C
  C2       1.0000 0.94240  0.73870  0.78620  Biso   1.000  C
  C3       1.0000 0.05760  0.23870  0.71380  Biso   1.000  C
  C4       1.0000 0.55760  0.73870  0.21380  Biso   1.000  C
  C5       1.0000 0.55760  0.76130  0.71380  Biso   1.000  C
  C6       1.0000 0.05760  0.26130  0.21380  Biso   1.000  C
  C7       1.0000 0.94240  0.76130  0.28620  Biso   1.000  C
  C8       1.0000 0.44240  0.26130  0.78620  Biso   1.000  C
  C9       1.0000 0.51780  0.24470  0.23510  Biso   1.000  C
  C10      1.0000 0.01780  0.74470  0.73510  Biso   1.000  C
  C11      1.0000 0.98220  0.24470  0.76490  Biso   1.000  C
  C12      1.0000 0.48220  0.74470  0.26490  Biso   1.000  C
  C13      1.0000 0.48220  0.75530  0.76490  Biso   1.000  C
  C14      1.0000 0.98220  0.25530  0.26490  Biso   1.000  C
  C15      1.0000 0.01780  0.75530  0.23510  Biso   1.000  C
  C16      1.0000 0.51780  0.25530  0.73510  Biso   1.000  C
  C17      1.0000 0.52850  0.37450  0.19300  Biso   1.000  C
  C18      1.0000 0.02850  0.87450  0.69300  Biso   1.000  C
  C19      1.0000 0.97150  0.37450  0.80700  Biso   1.000  C
  C20      1.0000 0.47150  0.87450  0.30700  Biso   1.000  C
  C21      1.0000 0.47150  0.62550  0.80700  Biso   1.000  C
  C22      1.0000 0.97150  0.12550  0.30700  Biso   1.000  C
  C23      1.0000 0.02850  0.62550  0.19300  Biso   1.000  C
  C24      1.0000 0.52850  0.12550  0.69300  Biso   1.000  C
  C25      1.0000 0.43930  0.41990  0.10090  Biso   1.000  C
  C26      1.0000 0.93930  0.91990  0.60090  Biso   1.000  C
  C27      1.0000 0.06070  0.41990  0.89910  Biso   1.000  C
  C28      1.0000 0.56070  0.91990  0.39910  Biso   1.000  C
  C29      1.0000 0.56070  0.58010  0.89910  Biso   1.000  C
  C30      1.0000 0.06070  0.08010  0.39910  Biso   1.000  C
  C31      1.0000 0.93930  0.58010  0.10090  Biso   1.000  C
  C32      1.0000 0.43930  0.08010  0.60090  Biso   1.000  C
  C33      1.0000 0.36570  0.41050  0.15460  Biso   1.000  C
  C34      1.0000 0.86570  0.91050  0.65460  Biso   1.000  C
  C35      1.0000 0.13430  0.41050  0.84540  Biso   1.000  C
  C36      1.0000 0.63430  0.91050  0.34540  Biso   1.000  C
  C37      1.0000 0.63430  0.58950  0.84540  Biso   1.000  C
  C38      1.0000 0.13430  0.08950  0.34540  Biso   1.000  C
  C39      1.0000 0.86570  0.58950  0.15460  Biso   1.000  C
  C40      1.0000 0.36570  0.08950  0.65460  Biso   1.000  C
  C41      1.0000 0.22060  0.05730  0.10390  Biso   1.000  C
  C42      1.0000 0.72060  0.55730  0.60390  Biso   1.000  C
  C43      1.0000 0.27940  0.05730  0.89610  Biso   1.000  C
  C44      1.0000 0.77940  0.55730  0.39610  Biso   1.000  C
  C45      1.0000 0.77940  0.94270  0.89610  Biso   1.000  C
  C46      1.0000 0.27940  0.44270  0.39610  Biso   1.000  C
  C47      1.0000 0.72060  0.94270  0.10390  Biso   1.000  C
  C48      1.0000 0.22060  0.44270  0.60390  Biso   1.000  C
  C49      1.0000 0.23540  0.93600  0.04980  Biso   1.000  C
  C50      1.0000 0.73540  0.43600  0.54980  Biso   1.000  C
  C51      1.0000 0.26460  0.93600  0.95020  Biso   1.000  C
  C52      1.0000 0.76460  0.43600  0.45020  Biso   1.000  C
  C53      1.0000 0.76460  0.06400  0.95020  Biso   1.000  C
  C54      1.0000 0.26460  0.56400  0.45020  Biso   1.000  C
  C55      1.0000 0.73540  0.06400  0.04980  Biso   1.000  C
  C56      1.0000 0.23540  0.56400  0.54980  Biso   1.000  C
  C57      1.0000 0.22010  0.82360  0.09760  Biso   1.000  C
  C58      1.0000 0.72010  0.32360  0.59760  Biso   1.000  C
  C59      1.0000 0.27990  0.82360  0.90240  Biso   1.000  C
  C60      1.0000 0.77990  0.32360  0.40240  Biso   1.000  C
  C61      1.0000 0.77990  0.17640  0.90240  Biso   1.000  C
  C62      1.0000 0.27990  0.67640  0.40240  Biso   1.000  C
  C63      1.0000 0.72010  0.17640  0.09760  Biso   1.000  C
  C64      1.0000 0.22010  0.67640  0.59760  Biso   1.000  C
  C65      1.0000 0.23440  0.71290  0.04820  Biso   1.000  C
  C66      1.0000 0.73440  0.21290  0.54820  Biso   1.000  C
  C67      1.0000 0.26560  0.71290  0.95180  Biso   1.000  C
  C68      1.0000 0.76560  0.21290  0.45180  Biso   1.000  C
  C69      1.0000 0.76560  0.28710  0.95180  Biso   1.000  C
  C70      1.0000 0.26560  0.78710  0.45180  Biso   1.000  C
  C71      1.0000 0.73440  0.28710  0.04820  Biso   1.000  C
  C72      1.0000 0.23440  0.78710  0.54820  Biso   1.000  C
  H1       1.0000 0.34400  0.23800  0.13600  Biso   1.000  H
  H2       1.0000 0.84400  0.73800  0.63600  Biso   1.000  H
  H3       1.0000 0.15600  0.23800  0.86400  Biso   1.000  H
  H4       1.0000 0.65600  0.73800  0.36400  Biso   1.000  H
  H5       1.0000 0.65600  0.76200  0.86400  Biso   1.000  H
  H6       1.0000 0.15600  0.26200  0.36400  Biso   1.000  H
  H7       1.0000 0.84400  0.76200  0.13600  Biso   1.000  H
  H8       1.0000 0.34400  0.26200  0.63600  Biso   1.000  H
  H9       1.0000 0.45800  0.29100  0.35800  Biso   1.000  H
  H10      1.0000 0.95800  0.79100  0.85800  Biso   1.000  H
  H11      1.0000 0.04200  0.29100  0.64200  Biso   1.000  H
  H12      1.0000 0.54200  0.79100  0.14200  Biso   1.000  H
  H13      1.0000 0.54200  0.70900  0.64200  Biso   1.000  H
  H14      1.0000 0.04200  0.20900  0.14200  Biso   1.000  H
  H15      1.0000 0.95800  0.70900  0.35800  Biso   1.000  H
  H16      1.0000 0.45800  0.20900  0.85800  Biso   1.000  H
  H17      1.0000 0.43600  0.15500  0.31100  Biso   1.000  H
  H18      1.0000 0.93600  0.65500  0.81100  Biso   1.000  H
  H19      1.0000 0.06400  0.15500  0.68900  Biso   1.000  H
  H20      1.0000 0.56400  0.65500  0.18900  Biso   1.000  H
  H21      1.0000 0.56400  0.84500  0.68900  Biso   1.000  H
  H22      1.0000 0.06400  0.34500  0.18900  Biso   1.000  H
  H23      1.0000 0.93600  0.84500  0.31100  Biso   1.000  H
  H24      1.0000 0.43600  0.34500  0.81100  Biso   1.000  H
  H25      1.0000 0.57300  0.22000  0.30200  Biso   1.000  H
  H26      1.0000 0.07300  0.72000  0.80200  Biso   1.000  H
  H27      1.0000 0.92700  0.22000  0.69800  Biso   1.000  H
  H28      1.0000 0.42700  0.72000  0.19800  Biso   1.000  H
  H29      1.0000 0.42700  0.78000  0.69800  Biso   1.000  H
  H30      1.0000 0.92700  0.28000  0.19800  Biso   1.000  H
  H31      1.0000 0.07300  0.78000  0.30200  Biso   1.000  H
  H32      1.0000 0.57300  0.28000  0.80200  Biso   1.000  H
  H33      1.0000 0.50600  0.18800  0.17000  Biso   1.000  H
  H34      1.0000 0.00600  0.68800  0.67000  Biso   1.000  H
  H35      1.0000 0.99400  0.18800  0.83000  Biso   1.000  H
  H36      1.0000 0.49400  0.68800  0.33000  Biso   1.000  H
  H37      1.0000 0.49400  0.81200  0.83000  Biso   1.000  H
  H38      1.0000 0.99400  0.31200  0.33000  Biso   1.000  H
  H39      1.0000 0.00600  0.81200  0.17000  Biso   1.000  H
  H40      1.0000 0.50600  0.31200  0.67000  Biso   1.000  H
  H41      1.0000 0.57000  0.37900  0.15500  Biso   1.000  H
  H42      1.0000 0.07000  0.87900  0.65500  Biso   1.000  H
  H43      1.0000 0.93000  0.37900  0.84500  Biso   1.000  H
  H44      1.0000 0.43000  0.87900  0.34500  Biso   1.000  H
  H45      1.0000 0.43000  0.62100  0.84500  Biso   1.000  H
  H46      1.0000 0.93000  0.12100  0.34500  Biso   1.000  H
  H47      1.0000 0.07000  0.62100  0.15500  Biso   1.000  H
  H48      1.0000 0.57000  0.12100  0.65500  Biso   1.000  H
  H49      1.0000 0.54500  0.42600  0.26200  Biso   1.000  H
  H50      1.0000 0.04500  0.92600  0.76200  Biso   1.000  H
  H51      1.0000 0.95500  0.42600  0.73800  Biso   1.000  H
  H52      1.0000 0.45500  0.92600  0.23800  Biso   1.000  H
  H53      1.0000 0.45500  0.57400  0.73800  Biso   1.000  H
  H54      1.0000 0.95500  0.07400  0.23800  Biso   1.000  H
  H55      1.0000 0.04500  0.57400  0.26200  Biso   1.000  H
  H56      1.0000 0.54500  0.07400  0.76200  Biso   1.000  H
  H57      1.0000 0.42100  0.37100  0.03100  Biso   1.000  H
  H58      1.0000 0.92100  0.87100  0.53100  Biso   1.000  H
  H59      1.0000 0.07900  0.37100  0.96900  Biso   1.000  H
  H60      1.0000 0.57900  0.87100  0.46900  Biso   1.000  H
  H61      1.0000 0.57900  0.62900  0.96900  Biso   1.000  H
  H62      1.0000 0.07900  0.12900  0.46900  Biso   1.000  H
  H63      1.0000 0.92100  0.62900  0.03100  Biso   1.000  H
  H64      1.0000 0.42100  0.12900  0.53100  Biso   1.000  H
  H65      1.0000 0.44500  0.50400  0.08000  Biso   1.000  H
  H66      1.0000 0.94500  0.00400  0.58000  Biso   1.000  H
  H67      1.0000 0.05500  0.50400  0.92000  Biso   1.000  H
  H68      1.0000 0.55500  0.00400  0.42000  Biso   1.000  H
  H69      1.0000 0.55500  0.49600  0.92000  Biso   1.000  H
  H70      1.0000 0.05500  0.99600  0.42000  Biso   1.000  H
  H71      1.0000 0.94500  0.49600  0.08000  Biso   1.000  H
  H72      1.0000 0.44500  0.99600  0.58000  Biso   1.000  H
  H73      1.0000 0.38200  0.46000  0.22600  Biso   1.000  H
  H74      1.0000 0.88200  0.96000  0.72600  Biso   1.000  H
  H75      1.0000 0.11800  0.46000  0.77400  Biso   1.000  H
  H76      1.0000 0.61800  0.96000  0.27400  Biso   1.000  H
  H77      1.0000 0.61800  0.54000  0.77400  Biso   1.000  H
  H78      1.0000 0.11800  0.04000  0.27400  Biso   1.000  H
  H79      1.0000 0.88200  0.54000  0.22600  Biso   1.000  H
  H80      1.0000 0.38200  0.04000  0.72600  Biso   1.000  H
  H81      1.0000 0.31100  0.43300  0.10100  Biso   1.000  H
  H82      1.0000 0.81100  0.93300  0.60100  Biso   1.000  H
  H83      1.0000 0.18900  0.43300  0.89900  Biso   1.000  H
  H84      1.0000 0.68900  0.93300  0.39900  Biso   1.000  H
  H85      1.0000 0.68900  0.56700  0.89900  Biso   1.000  H
  H86      1.0000 0.18900  0.06700  0.39900  Biso   1.000  H
  H87      1.0000 0.81100  0.56700  0.10100  Biso   1.000  H
  H88      1.0000 0.31100  0.06700  0.60100  Biso   1.000  H
  H89      1.0000 0.20300  0.82200  0.16300  Biso   1.000  H
  H90      1.0000 0.70300  0.32200  0.66300  Biso   1.000  H
  H91      1.0000 0.29700  0.82200  0.83700  Biso   1.000  H
  H92      1.0000 0.79700  0.32200  0.33700  Biso   1.000  H
  H93      1.0000 0.79700  0.17800  0.83700  Biso   1.000  H
  H94      1.0000 0.29700  0.67800  0.33700  Biso   1.000  H
  H95      1.0000 0.70300  0.17800  0.16300  Biso   1.000  H
  H96      1.0000 0.20300  0.67800  0.66300  Biso   1.000  H
  H97      1.0000 0.22500  0.64300  0.08200  Biso   1.000  H
  H98      1.0000 0.72500  0.14300  0.58200  Biso   1.000  H
  H99      1.0000 0.27500  0.64300  0.91800  Biso   1.000  H
  H100     1.0000 0.77500  0.14300  0.41800  Biso   1.000  H
  H101     1.0000 0.77500  0.35700  0.91800  Biso   1.000  H
  H102     1.0000 0.27500  0.85700  0.41800  Biso   1.000  H
  H103     1.0000 0.72500  0.35700  0.08200  Biso   1.000  H
  H104     1.0000 0.22500  0.85700  0.58200  Biso   1.000  H
