data_image0
_cell_length_a       8.654
_cell_length_b       22.64
_cell_length_c       8.8048
_cell_angle_alpha    90
_cell_angle_beta     103.76
_cell_angle_gamma    90

_symmetry_space_group_name_H-M    "P 1"
_symmetry_int_tables_number       1

loop_
  _symmetry_equiv_pos_as_xyz
  'x, y, z'

loop_
  _atom_site_label
  _atom_site_occupancy
  _atom_site_fract_x
  _atom_site_fract_y
  _atom_site_fract_z
  _atom_site_thermal_displace_type
  _atom_site_B_iso_or_equiv
  _atom_site_type_symbol
  Cu1      1.0000 0.18997  0.02339  0.09886  Biso   1.000  Cu
  Cu2      1.0000 0.81003  0.52339  0.40114  Biso   1.000  Cu
  Cu3      1.0000 0.81003  0.97661  0.90114  Biso   1.000  Cu
  Cu4      1.0000 0.18997  0.47661  0.59886  Biso   1.000  Cu
  O1       1.0000 0.41860  0.20370  0.64376  Biso   1.000  O
  O2       1.0000 0.58140  0.70370  0.85624  Biso   1.000  O
  O3       1.0000 0.58140  0.79630  0.35624  Biso   1.000  O
  O4       1.0000 0.41860  0.29630  0.14376  Biso   1.000  O
  O5       1.0000 0.25330  0.09360  0.00340  Biso   1.000  O
  O6       1.0000 0.74670  0.59360  0.49660  Biso   1.000  O
  O7       1.0000 0.74670  0.90640  0.99660  Biso   1.000  O
  O8       1.0000 0.25330  0.40640  0.50340  Biso   1.000  O
  O9       1.0000 0.55940  0.01050  0.68180  Biso   1.000  O
  O10      1.0000 0.44060  0.51050  0.81820  Biso   1.000  O
  O11      1.0000 0.44060  0.98950  0.31820  Biso   1.000  O
  O12      1.0000 0.55940  0.48950  0.18180  Biso   1.000  O
  O13      1.0000 0.07150  0.96160  0.16740  Biso   1.000  O
  O14      1.0000 0.92850  0.46160  0.33260  Biso   1.000  O
  O15      1.0000 0.92850  0.03840  0.83260  Biso   1.000  O
  O16      1.0000 0.07150  0.53840  0.66740  Biso   1.000  O
  O17      1.0000 0.05630  0.87540  0.27540  Biso   1.000  O
  O18      1.0000 0.94370  0.37540  0.22460  Biso   1.000  O
  O19      1.0000 0.94370  0.12460  0.72460  Biso   1.000  O
  O20      1.0000 0.05630  0.62460  0.77540  Biso   1.000  O
  N1       1.0000 0.47180  0.10550  0.64680  Biso   1.000  N
  N2       1.0000 0.52820  0.60550  0.85320  Biso   1.000  N
  N3       1.0000 0.52820  0.89450  0.35320  Biso   1.000  N
  N4       1.0000 0.47180  0.39450  0.14680  Biso   1.000  N
  N5       1.0000 0.33580  0.14800  0.82250  Biso   1.000  N
  N6       1.0000 0.66420  0.64800  0.67750  Biso   1.000  N
  N7       1.0000 0.66420  0.85200  0.17750  Biso   1.000  N
  N8       1.0000 0.33580  0.35200  0.32250  Biso   1.000  N
  N9       1.0000 0.35080  0.98710  0.86030  Biso   1.000  N
  N10      1.0000 0.64920  0.48710  0.63970  Biso   1.000  N
  N11      1.0000 0.64920  0.01290  0.13970  Biso   1.000  N
  N12      1.0000 0.35080  0.51290  0.36030  Biso   1.000  N
  N13      1.0000 0.26970  0.97060  0.95930  Biso   1.000  N
  N14      1.0000 0.73030  0.47060  0.54070  Biso   1.000  N
  N15      1.0000 0.73030  0.02940  0.04070  Biso   1.000  N
  N16      1.0000 0.26970  0.52940  0.45930  Biso   1.000  N
  N17      1.0000 0.13190  0.07600  0.25660  Biso   1.000  N
  N18      1.0000 0.86810  0.57600  0.24340  Biso   1.000  N
  N19      1.0000 0.86810  0.92400  0.74340  Biso   1.000  N
  N20      1.0000 0.13190  0.42400  0.75660  Biso   1.000  N
  N21      1.0000 0.05330  0.10350  0.46460  Biso   1.000  N
  N22      1.0000 0.94670  0.60350  0.03540  Biso   1.000  N
  N23      1.0000 0.94670  0.89650  0.53540  Biso   1.000  N
  N24      1.0000 0.05330  0.39650  0.96460  Biso   1.000  N
  C1       1.0000 0.55220  0.11290  0.51770  Biso   1.000  C
  C2       1.0000 0.44780  0.61290  0.98230  Biso   1.000  C
  C3       1.0000 0.44780  0.88710  0.48230  Biso   1.000  C
  C4       1.0000 0.55220  0.38710  0.01770  Biso   1.000  C
  C5       1.0000 0.40890  0.15570  0.69940  Biso   1.000  C
  C6       1.0000 0.59110  0.65570  0.80060  Biso   1.000  C
  C7       1.0000 0.59110  0.84430  0.30060  Biso   1.000  C
  C8       1.0000 0.40890  0.34430  0.19940  Biso   1.000  C
  C9       1.0000 0.27430  0.20140  0.88340  Biso   1.000  C
  C10      1.0000 0.72570  0.70140  0.61660  Biso   1.000  C
  C11      1.0000 0.72570  0.79860  0.11660  Biso   1.000  C
  C12      1.0000 0.27430  0.29860  0.38340  Biso   1.000  C
  C13      1.0000 0.31650  0.09480  0.88920  Biso   1.000  C
  C14      1.0000 0.68350  0.59480  0.61080  Biso   1.000  C
  C15      1.0000 0.68350  0.90520  0.11080  Biso   1.000  C
  C16      1.0000 0.31650  0.40520  0.38920  Biso   1.000  C
  C17      1.0000 0.37470  0.04350  0.82570  Biso   1.000  C
  C18      1.0000 0.62530  0.54350  0.67430  Biso   1.000  C
  C19      1.0000 0.62530  0.95650  0.17430  Biso   1.000  C
  C20      1.0000 0.37470  0.45650  0.32570  Biso   1.000  C
  C21      1.0000 0.47580  0.05030  0.71510  Biso   1.000  C
  C22      1.0000 0.52420  0.55030  0.78490  Biso   1.000  C
  C23      1.0000 0.52420  0.94970  0.28490  Biso   1.000  C
  C24      1.0000 0.47580  0.44970  0.21510  Biso   1.000  C
  C25      1.0000 0.26020  0.90680  0.96440  Biso   1.000  C
  C26      1.0000 0.73980  0.40680  0.53560  Biso   1.000  C
  C27      1.0000 0.73980  0.09320  0.03560  Biso   1.000  C
  C28      1.0000 0.26020  0.59320  0.46440  Biso   1.000  C
  C29      1.0000 0.18730  0.87760  0.06950  Biso   1.000  C
  C30      1.0000 0.81270  0.37760  0.43050  Biso   1.000  C
  C31      1.0000 0.81270  0.12240  0.93050  Biso   1.000  C
  C32      1.0000 0.18730  0.62240  0.56950  Biso   1.000  C
  C33      1.0000 0.19080  0.81600  0.07170  Biso   1.000  C
  C34      1.0000 0.80920  0.31600  0.42830  Biso   1.000  C
  C35      1.0000 0.80920  0.18400  0.92830  Biso   1.000  C
  C36      1.0000 0.19080  0.68400  0.57170  Biso   1.000  C
  C37      1.0000 0.25570  0.78350  0.97170  Biso   1.000  C
  C38      1.0000 0.74430  0.28350  0.52830  Biso   1.000  C
  C39      1.0000 0.74430  0.21650  0.02830  Biso   1.000  C
  C40      1.0000 0.25570  0.71650  0.47170  Biso   1.000  C
  C41      1.0000 0.32510  0.81210  0.86740  Biso   1.000  C
  C42      1.0000 0.67490  0.31210  0.63260  Biso   1.000  C
  C43      1.0000 0.67490  0.18790  0.13260  Biso   1.000  C
  C44      1.0000 0.32510  0.68790  0.36740  Biso   1.000  C
  C45      1.0000 0.32700  0.87280  0.86330  Biso   1.000  C
  C46      1.0000 0.67300  0.37280  0.63670  Biso   1.000  C
  C47      1.0000 0.67300  0.12720  0.13670  Biso   1.000  C
  C48      1.0000 0.32700  0.62720  0.36330  Biso   1.000  C
  C49      1.0000 0.10100  0.90680  0.17940  Biso   1.000  C
  C50      1.0000 0.89900  0.40680  0.32060  Biso   1.000  C
  C51      1.0000 0.89900  0.09320  0.82060  Biso   1.000  C
  C52      1.0000 0.10100  0.59320  0.67940  Biso   1.000  C
  C53      1.0000 0.08540  0.05840  0.38070  Biso   1.000  C
  C54      1.0000 0.91460  0.55840  0.11930  Biso   1.000  C
  C55      1.0000 0.91460  0.94160  0.61930  Biso   1.000  C
  C56      1.0000 0.08540  0.44160  0.88070  Biso   1.000  C
  C57      1.0000 0.08320  0.15340  0.39320  Biso   1.000  C
  C58      1.0000 0.91680  0.65340  0.10680  Biso   1.000  C
  C59      1.0000 0.91680  0.84660  0.60680  Biso   1.000  C
  C60      1.0000 0.08320  0.34660  0.89320  Biso   1.000  C
  C61      1.0000 0.13100  0.13620  0.26480  Biso   1.000  C
  C62      1.0000 0.86900  0.63620  0.23520  Biso   1.000  C
  C63      1.0000 0.86900  0.86380  0.73520  Biso   1.000  C
  C64      1.0000 0.13100  0.36380  0.76480  Biso   1.000  C
  H1       1.0000 0.64100  0.13900  0.55100  Biso   1.000  H
  H2       1.0000 0.35900  0.63900  0.94900  Biso   1.000  H
  H3       1.0000 0.35900  0.86100  0.44900  Biso   1.000  H
  H4       1.0000 0.64100  0.36100  0.05100  Biso   1.000  H
  H5       1.0000 0.58600  0.07400  0.50100  Biso   1.000  H
  H6       1.0000 0.41400  0.57400  0.99900  Biso   1.000  H
  H7       1.0000 0.41400  0.92600  0.49900  Biso   1.000  H
  H8       1.0000 0.58600  0.42600  0.00100  Biso   1.000  H
  H9       1.0000 0.49300  0.13900  0.45900  Biso   1.000  H
  H10      1.0000 0.50700  0.63900  0.04100  Biso   1.000  H
  H11      1.0000 0.50700  0.86100  0.54100  Biso   1.000  H
  H12      1.0000 0.49300  0.36100  0.95900  Biso   1.000  H
  H13      1.0000 0.28700  0.22800  0.81900  Biso   1.000  H
  H14      1.0000 0.71300  0.72800  0.68100  Biso   1.000  H
  H15      1.0000 0.71300  0.77200  0.18100  Biso   1.000  H
  H16      1.0000 0.28700  0.27200  0.31900  Biso   1.000  H
  H17      1.0000 0.33700  0.22100  0.98100  Biso   1.000  H
  H18      1.0000 0.66300  0.72100  0.51900  Biso   1.000  H
  H19      1.0000 0.66300  0.77900  0.01900  Biso   1.000  H
  H20      1.0000 0.33700  0.27900  0.48100  Biso   1.000  H
  H21      1.0000 0.18600  0.19600  0.89500  Biso   1.000  H
  H22      1.0000 0.81400  0.69600  0.60500  Biso   1.000  H
  H23      1.0000 0.81400  0.80400  0.10500  Biso   1.000  H
  H24      1.0000 0.18600  0.30400  0.39500  Biso   1.000  H
  H25      1.0000 0.14300  0.79800  0.14000  Biso   1.000  H
  H26      1.0000 0.85700  0.29800  0.36000  Biso   1.000  H
  H27      1.0000 0.85700  0.20200  0.86000  Biso   1.000  H
  H28      1.0000 0.14300  0.70200  0.64000  Biso   1.000  H
  H29      1.0000 0.25300  0.74400  0.97600  Biso   1.000  H
  H30      1.0000 0.74700  0.24400  0.52400  Biso   1.000  H
  H31      1.0000 0.74700  0.25600  0.02400  Biso   1.000  H
  H32      1.0000 0.25300  0.75600  0.47600  Biso   1.000  H
  H33      1.0000 0.36200  0.78600  0.78800  Biso   1.000  H
  H34      1.0000 0.63800  0.28600  0.71200  Biso   1.000  H
  H35      1.0000 0.63800  0.21400  0.21200  Biso   1.000  H
  H36      1.0000 0.36200  0.71400  0.28800  Biso   1.000  H
  H37      1.0000 0.37000  0.88700  0.79900  Biso   1.000  H
  H38      1.0000 0.63000  0.38700  0.70100  Biso   1.000  H
  H39      1.0000 0.63000  0.11300  0.20100  Biso   1.000  H
  H40      1.0000 0.37000  0.61300  0.29900  Biso   1.000  H
  H41      1.0000 0.10100  0.02200  0.41200  Biso   1.000  H
  H42      1.0000 0.89900  0.52200  0.08800  Biso   1.000  H
  H43      1.0000 0.89900  0.97800  0.58800  Biso   1.000  H
  H44      1.0000 0.10100  0.47800  0.91200  Biso   1.000  H
  H45      1.0000 0.03400  0.10200  0.54300  Biso   1.000  H
  H46      1.0000 0.96600  0.60200  0.95700  Biso   1.000  H
  H47      1.0000 0.96600  0.89800  0.45700  Biso   1.000  H
  H48      1.0000 0.03400  0.39800  0.04300  Biso   1.000  H
  H49      1.0000 0.06700  0.19400  0.43000  Biso   1.000  H
  H50      1.0000 0.93300  0.69400  0.07000  Biso   1.000  H
  H51      1.0000 0.93300  0.80600  0.57000  Biso   1.000  H
  H52      1.0000 0.06700  0.30600  0.93000  Biso   1.000  H
  H53      1.0000 0.16000  0.15900  0.19400  Biso   1.000  H
  H54      1.0000 0.84000  0.65900  0.30600  Biso   1.000  H
  H55      1.0000 0.84000  0.84100  0.80600  Biso   1.000  H
  H56      1.0000 0.16000  0.34100  0.69400  Biso   1.000  H
