data_image0
_cell_length_a       9.7
_cell_length_b       13.36
_cell_length_c       6.92
_cell_angle_alpha    90
_cell_angle_beta     90
_cell_angle_gamma    90

_symmetry_space_group_name_H-M    "P 1"
_symmetry_int_tables_number       1

loop_
  _symmetry_equiv_pos_as_xyz
  'x, y, z'

loop_
  _atom_site_label
  _atom_site_occupancy
  _atom_site_fract_x
  _atom_site_fract_y
  _atom_site_fract_z
  _atom_site_thermal_displace_type
  _atom_site_B_iso_or_equiv
  _atom_site_type_symbol
  Cu1      1.0000 0.99800  0.01800  0.01900  Biso   1.000  Cu
  Cu2      1.0000 0.49800  0.48200  0.98100  Biso   1.000  Cu
  Cu3      1.0000 0.00200  0.51800  0.48100  Biso   1.000  Cu
  Cu4      1.0000 0.50200  0.98200  0.51900  Biso   1.000  Cu
  O1       1.0000 0.84300  0.08400  0.90000  Biso   1.000  O
  O2       1.0000 0.34300  0.41600  0.10000  Biso   1.000  O
  O3       1.0000 0.15700  0.58400  0.60000  Biso   1.000  O
  O4       1.0000 0.65700  0.91600  0.40000  Biso   1.000  O
  O5       1.0000 0.66900  0.05100  0.73900  Biso   1.000  O
  O6       1.0000 0.16900  0.44900  0.26100  Biso   1.000  O
  O7       1.0000 0.33100  0.55100  0.76100  Biso   1.000  O
  O8       1.0000 0.83100  0.94900  0.23900  Biso   1.000  O
  O9       1.0000 0.12700  0.92600  0.13300  Biso   1.000  O
  O10      1.0000 0.62700  0.57400  0.86700  Biso   1.000  O
  O11      1.0000 0.87300  0.42600  0.36700  Biso   1.000  O
  O12      1.0000 0.37300  0.07400  0.63300  Biso   1.000  O
  O13      1.0000 0.12000  0.76600  0.20500  Biso   1.000  O
  O14      1.0000 0.62000  0.73400  0.79500  Biso   1.000  O
  O15      1.0000 0.88000  0.26600  0.29500  Biso   1.000  O
  O16      1.0000 0.38000  0.23400  0.70500  Biso   1.000  O
  O17      1.0000 0.13300  0.06300  0.74600  Biso   1.000  O
  O18      1.0000 0.63300  0.43700  0.25400  Biso   1.000  O
  O19      1.0000 0.86700  0.56300  0.75400  Biso   1.000  O
  O20      1.0000 0.36700  0.93700  0.24600  Biso   1.000  O
  O21      1.0000 0.99900  0.12900  0.18200  Biso   1.000  O
  O22      1.0000 0.49900  0.37100  0.81800  Biso   1.000  O
  O23      1.0000 0.00100  0.62900  0.31800  Biso   1.000  O
  O24      1.0000 0.50100  0.87100  0.68200  Biso   1.000  O
  O25      1.0000 0.23300  0.24900  0.03900  Biso   1.000  O
  O26      1.0000 0.73300  0.25100  0.96100  Biso   1.000  O
  O27      1.0000 0.76700  0.74900  0.46100  Biso   1.000  O
  O28      1.0000 0.26700  0.75100  0.53900  Biso   1.000  O
  N1       1.0000 0.94500  0.90500  0.84300  Biso   1.000  N
  N2       1.0000 0.44500  0.59500  0.15700  Biso   1.000  N
  N3       1.0000 0.05500  0.40500  0.65700  Biso   1.000  N
  N4       1.0000 0.55500  0.09500  0.34300  Biso   1.000  N
  C1       1.0000 0.77300  0.02600  0.82200  Biso   1.000  C
  C2       1.0000 0.27300  0.47400  0.17800  Biso   1.000  C
  C3       1.0000 0.22700  0.52600  0.67800  Biso   1.000  C
  C4       1.0000 0.72700  0.97400  0.32200  Biso   1.000  C
  C5       1.0000 0.80600  0.91500  0.78900  Biso   1.000  C
  C6       1.0000 0.30600  0.58500  0.21100  Biso   1.000  C
  C7       1.0000 0.19400  0.41500  0.71100  Biso   1.000  C
  C8       1.0000 0.69400  0.08500  0.28900  Biso   1.000  C
  C9       1.0000 0.98600  0.81400  0.97400  Biso   1.000  C
  C10      1.0000 0.48600  0.68600  0.02600  Biso   1.000  C
  C11      1.0000 0.01400  0.31400  0.52600  Biso   1.000  C
  C12      1.0000 0.51400  0.18600  0.47400  Biso   1.000  C
  C13      1.0000 0.07900  0.83200  0.10500  Biso   1.000  C
  C14      1.0000 0.57900  0.66800  0.89500  Biso   1.000  C
  C15      1.0000 0.92100  0.33200  0.39500  Biso   1.000  C
  C16      1.0000 0.42100  0.16800  0.60500  Biso   1.000  C
  C17      1.0000 0.03800  0.90400  0.68200  Biso   1.000  C
  C18      1.0000 0.53800  0.59600  0.31800  Biso   1.000  C
  C19      1.0000 0.96200  0.40400  0.81800  Biso   1.000  C
  C20      1.0000 0.46200  0.09600  0.18200  Biso   1.000  C
  C21      1.0000 0.07400  0.00300  0.59900  Biso   1.000  C
  C22      1.0000 0.57400  0.49700  0.40100  Biso   1.000  C
  C23      1.0000 0.92600  0.50300  0.90100  Biso   1.000  C
  C24      1.0000 0.42600  0.99700  0.09900  Biso   1.000  C
