data_image0
_cell_length_a       9.7
_cell_length_b       13.36
_cell_length_c       6.92
_cell_angle_alpha    90
_cell_angle_beta     90
_cell_angle_gamma    90

_symmetry_space_group_name_H-M    "P 1"
_symmetry_int_tables_number       1

loop_
  _symmetry_equiv_pos_as_xyz
  'x, y, z'

loop_
  _atom_site_label
  _atom_site_occupancy
  _atom_site_fract_x
  _atom_site_fract_y
  _atom_site_fract_z
  _atom_site_thermal_displace_type
  _atom_site_B_iso_or_equiv
  _atom_site_type_symbol
  Cu1      1.0000 0.50130  0.98210  0.52120  Biso   1.000  Cu
  Cu2      1.0000 0.00130  0.51790  0.47880  Biso   1.000  Cu
  Cu3      1.0000 0.49870  0.48210  0.97880  Biso   1.000  Cu
  Cu4      1.0000 0.99870  0.01790  0.02120  Biso   1.000  Cu
  O1       1.0000 0.65330  0.91630  0.40450  Biso   1.000  O
  O2       1.0000 0.15330  0.58370  0.59550  Biso   1.000  O
  O3       1.0000 0.34670  0.41630  0.09550  Biso   1.000  O
  O4       1.0000 0.84670  0.08370  0.90450  Biso   1.000  O
  O5       1.0000 0.83810  0.94160  0.23700  Biso   1.000  O
  O6       1.0000 0.33810  0.55840  0.76300  Biso   1.000  O
  O7       1.0000 0.16190  0.44160  0.26300  Biso   1.000  O
  O8       1.0000 0.66190  0.05840  0.73700  Biso   1.000  O
  O9       1.0000 0.37020  0.07630  0.64590  Biso   1.000  O
  O10      1.0000 0.87020  0.42370  0.35410  Biso   1.000  O
  O11      1.0000 0.62980  0.57630  0.85410  Biso   1.000  O
  O12      1.0000 0.12980  0.92370  0.14590  Biso   1.000  O
  O13      1.0000 0.37740  0.23700  0.70470  Biso   1.000  O
  O14      1.0000 0.87740  0.26300  0.29530  Biso   1.000  O
  O15      1.0000 0.62260  0.73700  0.79530  Biso   1.000  O
  O16      1.0000 0.12260  0.76300  0.20470  Biso   1.000  O
  O17      1.0000 0.37010  0.93680  0.24920  Biso   1.000  O
  O18      1.0000 0.87010  0.56320  0.75080  Biso   1.000  O
  O19      1.0000 0.62990  0.43680  0.25080  Biso   1.000  O
  O20      1.0000 0.12990  0.06320  0.74920  Biso   1.000  O
  O21      1.0000 0.44840  0.87290  0.68240  Biso   1.000  O
  O22      1.0000 0.94840  0.62710  0.31760  Biso   1.000  O
  O23      1.0000 0.55160  0.37290  0.81760  Biso   1.000  O
  O24      1.0000 0.05160  0.12710  0.18240  Biso   1.000  O
  O25      1.0000 0.23030  0.24560  0.04100  Biso   1.000  O
  O26      1.0000 0.73030  0.25440  0.95900  Biso   1.000  O
  O27      1.0000 0.76970  0.74560  0.45900  Biso   1.000  O
  O28      1.0000 0.26970  0.75440  0.54100  Biso   1.000  O
  N1       1.0000 0.55640  0.09690  0.35150  Biso   1.000  N
  N2       1.0000 0.05640  0.40310  0.64850  Biso   1.000  N
  N3       1.0000 0.44360  0.59690  0.14850  Biso   1.000  N
  N4       1.0000 0.94360  0.90310  0.85150  Biso   1.000  N
  C1       1.0000 0.69790  0.08360  0.29120  Biso   1.000  C
  C2       1.0000 0.19790  0.41640  0.70880  Biso   1.000  C
  C3       1.0000 0.30210  0.58360  0.20880  Biso   1.000  C
  C4       1.0000 0.80210  0.91640  0.79120  Biso   1.000  C
  C5       1.0000 0.73610  0.97550  0.32510  Biso   1.000  C
  C6       1.0000 0.23610  0.52450  0.67490  Biso   1.000  C
  C7       1.0000 0.26390  0.47550  0.17490  Biso   1.000  C
  C8       1.0000 0.76390  0.02450  0.82510  Biso   1.000  C
  C9       1.0000 0.52860  0.18590  0.47130  Biso   1.000  C
  C10      1.0000 0.02860  0.31410  0.52870  Biso   1.000  C
  C11      1.0000 0.47140  0.68590  0.02870  Biso   1.000  C
  C12      1.0000 0.97140  0.81410  0.97130  Biso   1.000  C
  C13      1.0000 0.42060  0.16940  0.62180  Biso   1.000  C
  C14      1.0000 0.92060  0.33060  0.37820  Biso   1.000  C
  C15      1.0000 0.57940  0.66940  0.87820  Biso   1.000  C
  C16      1.0000 0.07940  0.83060  0.12180  Biso   1.000  C
  C17      1.0000 0.47730  0.10340  0.17050  Biso   1.000  C
  C18      1.0000 0.97730  0.39660  0.82950  Biso   1.000  C
  C19      1.0000 0.52270  0.60340  0.32950  Biso   1.000  C
  C20      1.0000 0.02270  0.89660  0.67050  Biso   1.000  C
  C21      1.0000 0.43290  0.00070  0.10210  Biso   1.000  C
  C22      1.0000 0.93290  0.49930  0.89790  Biso   1.000  C
  C23      1.0000 0.56710  0.50070  0.39790  Biso   1.000  C
  C24      1.0000 0.06710  0.99930  0.60210  Biso   1.000  C
