data_image0
_cell_length_a       13.261
_cell_length_b       25.14
_cell_length_c       8.476
_cell_angle_alpha    90
_cell_angle_beta     98.396
_cell_angle_gamma    90

_symmetry_space_group_name_H-M    "P 1"
_symmetry_int_tables_number       1

loop_
  _symmetry_equiv_pos_as_xyz
  'x, y, z'

loop_
  _atom_site_label
  _atom_site_occupancy
  _atom_site_fract_x
  _atom_site_fract_y
  _atom_site_fract_z
  _atom_site_thermal_displace_type
  _atom_site_B_iso_or_equiv
  _atom_site_type_symbol
  Cu1      1.0000 0.33526  0.40009  0.54963  Biso   1.000  Cu
  Cu2      1.0000 0.33526  0.59991  0.04963  Biso   1.000  Cu
  Cu3      1.0000 0.83526  0.90009  0.54963  Biso   1.000  Cu
  Cu4      1.0000 0.83526  0.09991  0.04963  Biso   1.000  Cu
  O1       1.0000 0.19300  0.60590  0.10360  Biso   1.000  O
  O2       1.0000 0.19300  0.39410  0.60360  Biso   1.000  O
  O3       1.0000 0.69300  0.10590  0.10360  Biso   1.000  O
  O4       1.0000 0.69300  0.89410  0.60360  Biso   1.000  O
  O5       1.0000 0.40160  0.38390  0.77200  Biso   1.000  O
  O6       1.0000 0.40160  0.61610  0.27200  Biso   1.000  O
  O7       1.0000 0.90160  0.88390  0.77200  Biso   1.000  O
  O8       1.0000 0.90160  0.11610  0.27200  Biso   1.000  O
  N1       1.0000 0.78690  0.12770  0.82950  Biso   1.000  N
  N2       1.0000 0.78690  0.87230  0.32950  Biso   1.000  N
  N3       1.0000 0.28690  0.62770  0.82950  Biso   1.000  N
  N4       1.0000 0.28690  0.37230  0.32950  Biso   1.000  N
  C1       1.0000 0.72220  0.20180  0.67420  Biso   1.000  C
  C2       1.0000 0.72220  0.79820  0.17420  Biso   1.000  C
  C3       1.0000 0.22220  0.70180  0.67420  Biso   1.000  C
  C4       1.0000 0.22220  0.29820  0.17420  Biso   1.000  C
  H1       1.0000 0.70370  0.23750  0.67290  Biso   1.000  H
  H2       1.0000 0.70370  0.76250  0.17290  Biso   1.000  H
  H3       1.0000 0.20370  0.73750  0.67290  Biso   1.000  H
  H4       1.0000 0.20370  0.26250  0.17290  Biso   1.000  H
  C5       1.0000 0.62030  0.24200  0.35880  Biso   1.000  C
  C6       1.0000 0.62030  0.75800  0.85880  Biso   1.000  C
  C7       1.0000 0.12030  0.74200  0.35880  Biso   1.000  C
  C8       1.0000 0.12030  0.25800  0.85880  Biso   1.000  C
  H5       1.0000 0.61750  0.26260  0.44930  Biso   1.000  H
  H6       1.0000 0.61750  0.73740  0.94930  Biso   1.000  H
  H7       1.0000 0.11750  0.76260  0.44930  Biso   1.000  H
  H8       1.0000 0.11750  0.23740  0.94930  Biso   1.000  H
  N5       1.0000 0.45970  0.43500  0.49340  Biso   1.000  N
  N6       1.0000 0.45970  0.56500  0.99340  Biso   1.000  N
  N7       1.0000 0.95970  0.93500  0.49340  Biso   1.000  N
  N8       1.0000 0.95970  0.06500  0.99340  Biso   1.000  N
  O9       1.0000 0.24110  0.52270  0.08130  Biso   1.000  O
  O10      1.0000 0.24110  0.47730  0.58130  Biso   1.000  O
  O11      1.0000 0.74110  0.02270  0.08130  Biso   1.000  O
  O12      1.0000 0.74110  0.97730  0.58130  Biso   1.000  O
  C9       1.0000 0.07750  0.53840  0.16210  Biso   1.000  C
  C10      1.0000 0.07750  0.46160  0.66210  Biso   1.000  C
  C11      1.0000 0.57750  0.03840  0.16210  Biso   1.000  C
  C12      1.0000 0.57750  0.96160  0.66210  Biso   1.000  C
  C13      1.0000 0.76170  0.17960  0.81550  Biso   1.000  C
  C14      1.0000 0.76170  0.82040  0.31550  Biso   1.000  C
  C15      1.0000 0.26170  0.67960  0.81550  Biso   1.000  C
  C16      1.0000 0.26170  0.32040  0.31550  Biso   1.000  C
  H9       1.0000 0.77190  0.20090  0.90610  Biso   1.000  H
  H10      1.0000 0.77190  0.79910  0.40610  Biso   1.000  H
  H11      1.0000 0.27190  0.70090  0.90610  Biso   1.000  H
  H12      1.0000 0.27190  0.29910  0.40610  Biso   1.000  H
  O13      1.0000 0.41610  0.30860  0.64170  Biso   1.000  O
  O14      1.0000 0.41610  0.69140  0.14170  Biso   1.000  O
  O15      1.0000 0.91610  0.80860  0.64170  Biso   1.000  O
  O16      1.0000 0.91610  0.19140  0.14170  Biso   1.000  O
  C17      1.0000 0.72450  0.50710  0.34320  Biso   1.000  C
  C18      1.0000 0.72450  0.49290  0.84320  Biso   1.000  C
  C19      1.0000 0.22450  0.00710  0.34320  Biso   1.000  C
  C20      1.0000 0.22450  0.99290  0.84320  Biso   1.000  C
  H13      1.0000 0.72170  0.54330  0.31920  Biso   1.000  H
  H14      1.0000 0.72170  0.45670  0.81920  Biso   1.000  H
  H15      1.0000 0.22170  0.04330  0.31920  Biso   1.000  H
  H16      1.0000 0.22170  0.95670  0.81920  Biso   1.000  H
  C21      1.0000 0.47850  0.31140  0.91920  Biso   1.000  C
  C22      1.0000 0.47850  0.68860  0.41920  Biso   1.000  C
  C23      1.0000 0.97850  0.81140  0.91920  Biso   1.000  C
  C24      1.0000 0.97850  0.18860  0.41920  Biso   1.000  C
  C25      1.0000 0.80550  0.48170  0.32520  Biso   1.000  C
  C26      1.0000 0.80550  0.51830  0.82520  Biso   1.000  C
  C27      1.0000 0.30550  0.98170  0.32520  Biso   1.000  C
  C28      1.0000 0.30550  0.01830  0.82520  Biso   1.000  C
  H17      1.0000 0.80770  0.44610  0.35520  Biso   1.000  H
  H18      1.0000 0.80770  0.55390  0.85520  Biso   1.000  H
  H19      1.0000 0.30770  0.94610  0.35520  Biso   1.000  H
  H20      1.0000 0.30770  0.05390  0.85520  Biso   1.000  H
  C29      1.0000 0.45650  0.48510  0.43220  Biso   1.000  C
  C30      1.0000 0.45650  0.51490  0.93220  Biso   1.000  C
  C31      1.0000 0.95650  0.98510  0.43220  Biso   1.000  C
  C32      1.0000 0.95650  0.01490  0.93220  Biso   1.000  C
  H21      1.0000 0.39590  0.50420  0.42120  Biso   1.000  H
  H22      1.0000 0.39590  0.49580  0.92120  Biso   1.000  H
  H23      1.0000 0.89590  0.00420  0.42120  Biso   1.000  H
  H24      1.0000 0.89590  0.99580  0.92120  Biso   1.000  H
  C33      1.0000 0.48260  0.33830  0.06070  Biso   1.000  C
  C34      1.0000 0.48260  0.66170  0.56070  Biso   1.000  C
  C35      1.0000 0.98260  0.83830  0.06070  Biso   1.000  C
  C36      1.0000 0.98260  0.16170  0.56070  Biso   1.000  C
  H25      1.0000 0.45480  0.37220  0.06190  Biso   1.000  H
  H26      1.0000 0.45480  0.62780  0.56190  Biso   1.000  H
  H27      1.0000 0.95480  0.87220  0.06190  Biso   1.000  H
  H28      1.0000 0.95480  0.12780  0.56190  Biso   1.000  H
  C37      1.0000 0.42620  0.33560  0.76640  Biso   1.000  C
  C38      1.0000 0.42620  0.66440  0.26640  Biso   1.000  C
  C39      1.0000 0.92620  0.83560  0.76640  Biso   1.000  C
  C40      1.0000 0.92620  0.16440  0.26640  Biso   1.000  C
  C41      1.0000 0.54280  0.50800  0.38620  Biso   1.000  C
  C42      1.0000 0.54280  0.49200  0.88620  Biso   1.000  C
  C43      1.0000 0.04280  0.00800  0.38620  Biso   1.000  C
  C44      1.0000 0.04280  0.99200  0.88620  Biso   1.000  C
  H29      1.0000 0.53870  0.54220  0.34380  Biso   1.000  H
  H30      1.0000 0.53870  0.45780  0.84380  Biso   1.000  H
  H31      1.0000 0.03870  0.04220  0.34380  Biso   1.000  H
  H32      1.0000 0.03870  0.95780  0.84380  Biso   1.000  H
  C45      1.0000 0.52860  0.31490  0.20370  Biso   1.000  C
  C46      1.0000 0.52860  0.68510  0.70370  Biso   1.000  C
  C47      1.0000 0.02860  0.81490  0.20370  Biso   1.000  C
  C48      1.0000 0.02860  0.18510  0.70370  Biso   1.000  C
  H33      1.0000 0.52950  0.33300  0.29960  Biso   1.000  H
  H34      1.0000 0.52950  0.66700  0.79960  Biso   1.000  H
  H35      1.0000 0.02950  0.83300  0.29960  Biso   1.000  H
  H36      1.0000 0.02950  0.16700  0.79960  Biso   1.000  H
  C49      1.0000 0.66540  0.19560  0.37860  Biso   1.000  C
  C50      1.0000 0.66540  0.80440  0.87860  Biso   1.000  C
  C51      1.0000 0.16540  0.69560  0.37860  Biso   1.000  C
  C52      1.0000 0.16540  0.30440  0.87860  Biso   1.000  C
  H37      1.0000 0.67030  0.17510  0.28870  Biso   1.000  H
  H38      1.0000 0.67030  0.82490  0.78870  Biso   1.000  H
  H39      1.0000 0.17030  0.67510  0.28870  Biso   1.000  H
  H40      1.0000 0.17030  0.32490  0.78870  Biso   1.000  H
  C53      1.0000 0.63910  0.43170  0.47000  Biso   1.000  C
  C54      1.0000 0.63910  0.56830  0.97000  Biso   1.000  C
  C55      1.0000 0.13910  0.93170  0.47000  Biso   1.000  C
  C56      1.0000 0.13910  0.06830  0.97000  Biso   1.000  C
  H41      1.0000 0.70010  0.41290  0.48560  Biso   1.000  H
  H42      1.0000 0.70010  0.58710  0.98560  Biso   1.000  H
  H43      1.0000 0.20010  0.91290  0.48560  Biso   1.000  H
  H44      1.0000 0.20010  0.08710  0.98560  Biso   1.000  H
  C57      1.0000 0.17630  0.55610  0.10880  Biso   1.000  C
  C58      1.0000 0.17630  0.44390  0.60880  Biso   1.000  C
  C59      1.0000 0.67630  0.05610  0.10880  Biso   1.000  C
  C60      1.0000 0.67630  0.94390  0.60880  Biso   1.000  C
  C61      1.0000 0.63280  0.48200  0.40120  Biso   1.000  C
  C62      1.0000 0.63280  0.51800  0.90120  Biso   1.000  C
  C63      1.0000 0.13280  0.98200  0.40120  Biso   1.000  C
  C64      1.0000 0.13280  0.01800  0.90120  Biso   1.000  C
  C65      1.0000 0.00590  0.57280  0.19390  Biso   1.000  C
  C66      1.0000 0.00590  0.42720  0.69390  Biso   1.000  C
  C67      1.0000 0.50590  0.07280  0.19390  Biso   1.000  C
  C68      1.0000 0.50590  0.92720  0.69390  Biso   1.000  C
  H45      1.0000 0.01680  0.60910  0.18350  Biso   1.000  H
  H46      1.0000 0.01680  0.39090  0.68350  Biso   1.000  H
  H47      1.0000 0.51680  0.10910  0.18350  Biso   1.000  H
  H48      1.0000 0.51680  0.89090  0.68350  Biso   1.000  H
  C69      1.0000 0.70840  0.17430  0.53410  Biso   1.000  C
  C70      1.0000 0.70840  0.82570  0.03410  Biso   1.000  C
  C71      1.0000 0.20840  0.67430  0.53410  Biso   1.000  C
  C72      1.0000 0.20840  0.32570  0.03410  Biso   1.000  C
  C73      1.0000 0.77500  0.10040  0.69580  Biso   1.000  C
  C74      1.0000 0.77500  0.89960  0.19580  Biso   1.000  C
  C75      1.0000 0.27500  0.60040  0.69580  Biso   1.000  C
  C76      1.0000 0.27500  0.39960  0.19580  Biso   1.000  C
  H49      1.0000 0.79370  0.06470  0.70050  Biso   1.000  H
  H50      1.0000 0.79370  0.93530  0.20050  Biso   1.000  H
  H51      1.0000 0.29370  0.56470  0.70050  Biso   1.000  H
  H52      1.0000 0.29370  0.43530  0.20050  Biso   1.000  H
  C77      1.0000 0.06100  0.48630  0.18500  Biso   1.000  C
  C78      1.0000 0.06100  0.51370  0.68500  Biso   1.000  C
  C79      1.0000 0.56100  0.98630  0.18500  Biso   1.000  C
  C80      1.0000 0.56100  0.01370  0.68500  Biso   1.000  C
  H53      1.0000 0.11040  0.46180  0.16570  Biso   1.000  H
  H54      1.0000 0.11040  0.53820  0.66570  Biso   1.000  H
  H55      1.0000 0.61040  0.96180  0.16570  Biso   1.000  H
  H56      1.0000 0.61040  0.03820  0.66570  Biso   1.000  H
  C81      1.0000 0.91480  0.55530  0.24250  Biso   1.000  C
  C82      1.0000 0.91480  0.44470  0.74250  Biso   1.000  C
  C83      1.0000 0.41480  0.05530  0.24250  Biso   1.000  C
  C84      1.0000 0.41480  0.94470  0.74250  Biso   1.000  C
  H57      1.0000 0.86620  0.58020  0.26170  Biso   1.000  H
  H58      1.0000 0.86620  0.41980  0.76170  Biso   1.000  H
  H59      1.0000 0.36620  0.08020  0.26170  Biso   1.000  H
  H60      1.0000 0.36620  0.91980  0.76170  Biso   1.000  H
  C85      1.0000 0.56870  0.23770  0.06070  Biso   1.000  C
  C86      1.0000 0.56870  0.76230  0.56070  Biso   1.000  C
  C87      1.0000 0.06870  0.73770  0.06070  Biso   1.000  C
  C88      1.0000 0.06870  0.26230  0.56070  Biso   1.000  C
  H61      1.0000 0.59830  0.20430  0.05890  Biso   1.000  H
  H62      1.0000 0.59830  0.79570  0.55890  Biso   1.000  H
  H63      1.0000 0.09830  0.70430  0.05890  Biso   1.000  H
  H64      1.0000 0.09830  0.29570  0.55890  Biso   1.000  H
  C89      1.0000 0.57290  0.26460  0.20220  Biso   1.000  C
  C90      1.0000 0.57290  0.73540  0.70220  Biso   1.000  C
  C91      1.0000 0.07290  0.76460  0.20220  Biso   1.000  C
  C92      1.0000 0.07290  0.23540  0.70220  Biso   1.000  C
  C93      1.0000 0.97180  0.46790  0.23600  Biso   1.000  C
  C94      1.0000 0.97180  0.53210  0.73600  Biso   1.000  C
  C95      1.0000 0.47180  0.96790  0.23600  Biso   1.000  C
  C96      1.0000 0.47180  0.03210  0.73600  Biso   1.000  C
  H65      1.0000 0.96380  0.43160  0.25290  Biso   1.000  H
  H66      1.0000 0.96380  0.56840  0.75290  Biso   1.000  H
  H67      1.0000 0.46380  0.93160  0.25290  Biso   1.000  H
  H68      1.0000 0.46380  0.06840  0.75290  Biso   1.000  H
  C97      1.0000 0.55070  0.41090  0.51450  Biso   1.000  C
  C98      1.0000 0.55070  0.58910  0.01450  Biso   1.000  C
  C99      1.0000 0.05070  0.91090  0.51450  Biso   1.000  C
  C100     1.0000 0.05070  0.08910  0.01450  Biso   1.000  C
  H69      1.0000 0.55490  0.37760  0.56280  Biso   1.000  H
  H70      1.0000 0.55490  0.62240  0.06280  Biso   1.000  H
  H71      1.0000 0.05490  0.87760  0.56280  Biso   1.000  H
  H72      1.0000 0.05490  0.12240  0.06280  Biso   1.000  H
  C101     1.0000 0.89590  0.50230  0.26230  Biso   1.000  C
  C102     1.0000 0.89590  0.49770  0.76230  Biso   1.000  C
  C103     1.0000 0.39590  0.00230  0.26230  Biso   1.000  C
  C104     1.0000 0.39590  0.99770  0.76230  Biso   1.000  C
  C105     1.0000 0.73650  0.12140  0.54880  Biso   1.000  C
  C106     1.0000 0.73650  0.87860  0.04880  Biso   1.000  C
  C107     1.0000 0.23650  0.62140  0.54880  Biso   1.000  C
  C108     1.0000 0.23650  0.37860  0.04880  Biso   1.000  C
  H73      1.0000 0.72940  0.09970  0.45890  Biso   1.000  H
  H74      1.0000 0.72940  0.90030  0.95890  Biso   1.000  H
  H75      1.0000 0.22940  0.59970  0.45890  Biso   1.000  H
  H76      1.0000 0.22940  0.40030  0.95890  Biso   1.000  H
  C109     1.0000 0.51990  0.26050  0.91860  Biso   1.000  C
  C110     1.0000 0.51990  0.73950  0.41860  Biso   1.000  C
  C111     1.0000 0.01990  0.76050  0.91860  Biso   1.000  C
  C112     1.0000 0.01990  0.23950  0.41860  Biso   1.000  C
  H77      1.0000 0.51520  0.24150  0.82370  Biso   1.000  H
  H78      1.0000 0.51520  0.75850  0.32370  Biso   1.000  H
  H79      1.0000 0.01520  0.74150  0.82370  Biso   1.000  H
  H80      1.0000 0.01520  0.25850  0.32370  Biso   1.000  H
  N9       1.0000 0.81410  0.32870  0.01400  Biso   1.000  N
  N10      1.0000 0.81410  0.67130  0.51400  Biso   1.000  N
  N11      1.0000 0.31410  0.82870  0.01400  Biso   1.000  N
  N12      1.0000 0.31410  0.17130  0.51400  Biso   1.000  N
  O17      1.0000 0.72490  0.34230  0.76000  Biso   1.000  O
  O18      1.0000 0.72490  0.65770  0.26000  Biso   1.000  O
  O19      1.0000 0.22490  0.84230  0.76000  Biso   1.000  O
  O20      1.0000 0.22490  0.15770  0.26000  Biso   1.000  O
  C113     1.0000 0.73860  0.34410  0.91200  Biso   1.000  C
  C114     1.0000 0.73860  0.65590  0.41200  Biso   1.000  C
  C115     1.0000 0.23860  0.84410  0.91200  Biso   1.000  C
  C116     1.0000 0.23860  0.15590  0.41200  Biso   1.000  C
  H81      1.0000 0.68500  0.35900  0.95660  Biso   1.000  H
  H82      1.0000 0.68500  0.64100  0.45660  Biso   1.000  H
  H83      1.0000 0.18500  0.85900  0.95660  Biso   1.000  H
  H84      1.0000 0.18500  0.14100  0.45660  Biso   1.000  H
  C117     1.0000 0.90610  0.31140  0.95300  Biso   1.000  C
  C118     1.0000 0.90610  0.68860  0.45300  Biso   1.000  C
  C119     1.0000 0.40610  0.81140  0.95300  Biso   1.000  C
  C120     1.0000 0.40610  0.18860  0.45300  Biso   1.000  C
  H85      1.0000 0.89220  0.30830  0.83930  Biso   1.000  H
  H86      1.0000 0.89220  0.69170  0.33930  Biso   1.000  H
  H87      1.0000 0.39220  0.80830  0.83930  Biso   1.000  H
  H88      1.0000 0.39220  0.19170  0.33930  Biso   1.000  H
  H89      1.0000 0.92730  0.27750  0.99870  Biso   1.000  H
  H90      1.0000 0.92730  0.72250  0.49870  Biso   1.000  H
  H91      1.0000 0.42730  0.77750  0.99870  Biso   1.000  H
  H92      1.0000 0.42730  0.22250  0.49870  Biso   1.000  H
  H93      1.0000 0.95940  0.33700  0.98170  Biso   1.000  H
  H94      1.0000 0.95940  0.66300  0.48170  Biso   1.000  H
  H95      1.0000 0.45940  0.83700  0.98170  Biso   1.000  H
  H96      1.0000 0.45940  0.16300  0.48170  Biso   1.000  H
  C121     1.0000 0.82080  0.32610  0.18800  Biso   1.000  C
  C122     1.0000 0.82080  0.67390  0.68800  Biso   1.000  C
  C123     1.0000 0.32080  0.82610  0.18800  Biso   1.000  C
  C124     1.0000 0.32080  0.17390  0.68800  Biso   1.000  C
  H97      1.0000 0.77250  0.35030  0.22310  Biso   1.000  H
  H98      1.0000 0.77250  0.64970  0.72310  Biso   1.000  H
  H99      1.0000 0.27250  0.85030  0.22310  Biso   1.000  H
  H100     1.0000 0.27250  0.14970  0.72310  Biso   1.000  H
  H101     1.0000 0.88840  0.33570  0.23670  Biso   1.000  H
  H102     1.0000 0.88840  0.66430  0.73670  Biso   1.000  H
  H103     1.0000 0.38840  0.83570  0.23670  Biso   1.000  H
  H104     1.0000 0.38840  0.16430  0.73670  Biso   1.000  H
  H105     1.0000 0.80600  0.29050  0.21950  Biso   1.000  H
  H106     1.0000 0.80600  0.70950  0.71950  Biso   1.000  H
  H107     1.0000 0.30600  0.79050  0.21950  Biso   1.000  H
  H108     1.0000 0.30600  0.20950  0.71950  Biso   1.000  H
