data_image0
_cell_length_a       38.71
_cell_length_b       38.71
_cell_length_c       5.453
_cell_angle_alpha    90
_cell_angle_beta     90
_cell_angle_gamma    90

_symmetry_space_group_name_H-M    "P 1"
_symmetry_int_tables_number       1

loop_
  _symmetry_equiv_pos_as_xyz
  'x, y, z'

loop_
  _atom_site_label
  _atom_site_occupancy
  _atom_site_fract_x
  _atom_site_fract_y
  _atom_site_fract_z
  _atom_site_thermal_displace_type
  _atom_site_B_iso_or_equiv
  _atom_site_type_symbol
  Cu1      1.0000 0.00000  0.00000  0.00000  Biso   1.000  Cu
  Cu2      1.0000 0.75000  0.25000  0.25000  Biso   1.000  Cu
  Cu3      1.0000 0.50000  0.00000  0.50000  Biso   1.000  Cu
  Cu4      1.0000 0.75000  0.75000  0.75000  Biso   1.000  Cu
  Cu5      1.0000 0.50000  0.50000  0.50000  Biso   1.000  Cu
  Cu6      1.0000 0.25000  0.75000  0.75000  Biso   1.000  Cu
  Cu7      1.0000 0.00000  0.50000  0.00000  Biso   1.000  Cu
  Cu8      1.0000 0.25000  0.25000  0.25000  Biso   1.000  Cu
  O1       1.0000 0.03836  0.02470  0.15250  Biso   1.000  O
  O2       1.0000 0.72530  0.28836  0.40250  Biso   1.000  O
  O3       1.0000 0.46164  0.97530  0.65250  Biso   1.000  O
  O4       1.0000 0.77470  0.71164  0.90250  Biso   1.000  O
  O5       1.0000 0.53836  0.52470  0.65250  Biso   1.000  O
  O6       1.0000 0.22530  0.78836  0.90250  Biso   1.000  O
  O7       1.0000 0.96164  0.47530  0.15250  Biso   1.000  O
  O8       1.0000 0.27470  0.21164  0.40250  Biso   1.000  O
  O9       1.0000 0.96164  0.97530  0.84750  Biso   1.000  O
  O10      1.0000 0.77470  0.21164  0.09750  Biso   1.000  O
  O11      1.0000 0.53836  0.02470  0.34750  Biso   1.000  O
  O12      1.0000 0.72530  0.78836  0.59750  Biso   1.000  O
  O13      1.0000 0.46164  0.47530  0.34750  Biso   1.000  O
  O14      1.0000 0.27470  0.71164  0.59750  Biso   1.000  O
  O15      1.0000 0.03836  0.52470  0.84750  Biso   1.000  O
  O16      1.0000 0.22530  0.28836  0.09750  Biso   1.000  O
  O17      1.0000 0.02460  0.06400  0.87830  Biso   1.000  O
  O18      1.0000 0.68600  0.27460  0.12830  Biso   1.000  O
  O19      1.0000 0.47540  0.93600  0.37830  Biso   1.000  O
  O20      1.0000 0.81400  0.72540  0.62830  Biso   1.000  O
  O21      1.0000 0.52460  0.56400  0.37830  Biso   1.000  O
  O22      1.0000 0.18600  0.77460  0.62830  Biso   1.000  O
  O23      1.0000 0.97540  0.43600  0.87830  Biso   1.000  O
  O24      1.0000 0.31400  0.22540  0.12830  Biso   1.000  O
  O25      1.0000 0.97540  0.93600  0.12170  Biso   1.000  O
  O26      1.0000 0.81400  0.22540  0.37170  Biso   1.000  O
  O27      1.0000 0.52460  0.06400  0.62170  Biso   1.000  O
  O28      1.0000 0.68600  0.77460  0.87170  Biso   1.000  O
  O29      1.0000 0.47540  0.43600  0.62170  Biso   1.000  O
  O30      1.0000 0.31400  0.72540  0.87170  Biso   1.000  O
  O31      1.0000 0.02460  0.56400  0.12170  Biso   1.000  O
  O32      1.0000 0.18600  0.27460  0.37170  Biso   1.000  O
  N1       1.0000 0.22422  0.21599  0.03680  Biso   1.000  N
  N2       1.0000 0.53401  0.47422  0.28680  Biso   1.000  N
  N3       1.0000 0.27578  0.78401  0.53680  Biso   1.000  N
  N4       1.0000 0.96599  0.52578  0.78680  Biso   1.000  N
  N5       1.0000 0.72422  0.71599  0.53680  Biso   1.000  N
  N6       1.0000 0.03401  0.97422  0.78680  Biso   1.000  N
  N7       1.0000 0.77578  0.28401  0.03680  Biso   1.000  N
  N8       1.0000 0.46599  0.02578  0.28680  Biso   1.000  N
  N9       1.0000 0.77578  0.78401  0.96320  Biso   1.000  N
  N10      1.0000 0.96599  0.02578  0.21320  Biso   1.000  N
  N11      1.0000 0.72422  0.21599  0.46320  Biso   1.000  N
  N12      1.0000 0.53401  0.97422  0.71320  Biso   1.000  N
  N13      1.0000 0.27578  0.28401  0.46320  Biso   1.000  N
  N14      1.0000 0.46599  0.52578  0.71320  Biso   1.000  N
  N15      1.0000 0.22422  0.71599  0.96320  Biso   1.000  N
  N16      1.0000 0.03401  0.47422  0.21320  Biso   1.000  N
  C1       1.0000 0.07620  0.10810  0.06600  Biso   1.000  C
  C2       1.0000 0.64190  0.32620  0.31600  Biso   1.000  C
  C3       1.0000 0.42380  0.89190  0.56600  Biso   1.000  C
  C4       1.0000 0.85810  0.67380  0.81600  Biso   1.000  C
  C5       1.0000 0.57620  0.60810  0.56600  Biso   1.000  C
  C6       1.0000 0.14190  0.82620  0.81600  Biso   1.000  C
  C7       1.0000 0.92380  0.39190  0.06600  Biso   1.000  C
  C8       1.0000 0.35810  0.17380  0.31600  Biso   1.000  C
  C9       1.0000 0.92380  0.89190  0.93400  Biso   1.000  C
  C10      1.0000 0.85810  0.17380  0.18400  Biso   1.000  C
  C11      1.0000 0.57620  0.10810  0.43400  Biso   1.000  C
  C12      1.0000 0.64190  0.82620  0.68400  Biso   1.000  C
  C13      1.0000 0.42380  0.39190  0.43400  Biso   1.000  C
  C14      1.0000 0.35810  0.67380  0.68400  Biso   1.000  C
  C15      1.0000 0.07620  0.60810  0.93400  Biso   1.000  C
  C16      1.0000 0.14190  0.32620  0.18400  Biso   1.000  C
  H1       1.0000 0.06460  0.11510  0.92470  Biso   1.000  H
  H2       1.0000 0.63490  0.31460  0.17470  Biso   1.000  H
  H3       1.0000 0.43540  0.88490  0.42470  Biso   1.000  H
  H4       1.0000 0.86510  0.68540  0.67470  Biso   1.000  H
  H5       1.0000 0.56460  0.61510  0.42470  Biso   1.000  H
  H6       1.0000 0.13490  0.81460  0.67470  Biso   1.000  H
  H7       1.0000 0.93540  0.38490  0.92470  Biso   1.000  H
  H8       1.0000 0.36510  0.18540  0.17470  Biso   1.000  H
  H9       1.0000 0.93540  0.88490  0.07530  Biso   1.000  H
  H10      1.0000 0.86510  0.18540  0.32530  Biso   1.000  H
  H11      1.0000 0.56460  0.11510  0.57530  Biso   1.000  H
  H12      1.0000 0.63490  0.81460  0.82530  Biso   1.000  H
  H13      1.0000 0.43540  0.38490  0.57530  Biso   1.000  H
  H14      1.0000 0.36510  0.68540  0.82530  Biso   1.000  H
  H15      1.0000 0.06460  0.61510  0.07530  Biso   1.000  H
  H16      1.0000 0.13490  0.31460  0.32530  Biso   1.000  H
  C17      1.0000 0.20830  0.22470  0.83380  Biso   1.000  C
  C18      1.0000 0.52530  0.45830  0.08380  Biso   1.000  C
  C19      1.0000 0.29170  0.77530  0.33380  Biso   1.000  C
  C20      1.0000 0.97470  0.54170  0.58380  Biso   1.000  C
  C21      1.0000 0.70830  0.72470  0.33380  Biso   1.000  C
  C22      1.0000 0.02530  0.95830  0.58380  Biso   1.000  C
  C23      1.0000 0.79170  0.27530  0.83380  Biso   1.000  C
  C24      1.0000 0.47470  0.04170  0.08380  Biso   1.000  C
  C25      1.0000 0.79170  0.77530  0.16620  Biso   1.000  C
  C26      1.0000 0.97470  0.04170  0.41620  Biso   1.000  C
  C27      1.0000 0.70830  0.22470  0.66620  Biso   1.000  C
  C28      1.0000 0.52530  0.95830  0.91620  Biso   1.000  C
  C29      1.0000 0.29170  0.27530  0.66620  Biso   1.000  C
  C30      1.0000 0.47470  0.54170  0.91620  Biso   1.000  C
  C31      1.0000 0.20830  0.72470  0.16620  Biso   1.000  C
  C32      1.0000 0.02530  0.45830  0.41620  Biso   1.000  C
  H17      1.0000 0.21090  0.24730  0.77740  Biso   1.000  H
  H18      1.0000 0.50270  0.46090  0.02740  Biso   1.000  H
  H19      1.0000 0.28910  0.75270  0.27740  Biso   1.000  H
  H20      1.0000 0.99730  0.53910  0.52740  Biso   1.000  H
  H21      1.0000 0.71090  0.74730  0.27740  Biso   1.000  H
  H22      1.0000 0.00270  0.96090  0.52740  Biso   1.000  H
  H23      1.0000 0.78910  0.25270  0.77740  Biso   1.000  H
  H24      1.0000 0.49730  0.03910  0.02740  Biso   1.000  H
  H25      1.0000 0.78910  0.75270  0.22260  Biso   1.000  H
  H26      1.0000 0.99730  0.03910  0.47260  Biso   1.000  H
  H27      1.0000 0.71090  0.24730  0.72260  Biso   1.000  H
  H28      1.0000 0.50270  0.96090  0.97260  Biso   1.000  H
  H29      1.0000 0.28910  0.25270  0.72260  Biso   1.000  H
  H30      1.0000 0.49730  0.53910  0.97260  Biso   1.000  H
  H31      1.0000 0.21090  0.74730  0.22260  Biso   1.000  H
  H32      1.0000 0.00270  0.46090  0.47260  Biso   1.000  H
  C33      1.0000 0.18320  0.16920  0.77400  Biso   1.000  C
  C34      1.0000 0.58080  0.43320  0.02400  Biso   1.000  C
  C35      1.0000 0.31680  0.83080  0.27400  Biso   1.000  C
  C36      1.0000 0.91920  0.56680  0.52400  Biso   1.000  C
  C37      1.0000 0.68320  0.66920  0.27400  Biso   1.000  C
  C38      1.0000 0.08080  0.93320  0.52400  Biso   1.000  C
  C39      1.0000 0.81680  0.33080  0.77400  Biso   1.000  C
  C40      1.0000 0.41920  0.06680  0.02400  Biso   1.000  C
  C41      1.0000 0.81680  0.83080  0.22600  Biso   1.000  C
  C42      1.0000 0.91920  0.06680  0.47600  Biso   1.000  C
  C43      1.0000 0.68320  0.16920  0.72600  Biso   1.000  C
  C44      1.0000 0.58080  0.93320  0.97600  Biso   1.000  C
  C45      1.0000 0.31680  0.33080  0.72600  Biso   1.000  C
  C46      1.0000 0.41920  0.56680  0.97600  Biso   1.000  C
  C47      1.0000 0.18320  0.66920  0.22600  Biso   1.000  C
  C48      1.0000 0.08080  0.43320  0.47600  Biso   1.000  C
  C49      1.0000 0.18760  0.20210  0.69670  Biso   1.000  C
  C50      1.0000 0.54790  0.43760  0.94670  Biso   1.000  C
  C51      1.0000 0.31240  0.79790  0.19670  Biso   1.000  C
  C52      1.0000 0.95210  0.56240  0.44670  Biso   1.000  C
  C53      1.0000 0.68760  0.70210  0.19670  Biso   1.000  C
  C54      1.0000 0.04790  0.93760  0.44670  Biso   1.000  C
  C55      1.0000 0.81240  0.29790  0.69670  Biso   1.000  C
  C56      1.0000 0.45210  0.06240  0.94670  Biso   1.000  C
  C57      1.0000 0.81240  0.79790  0.30330  Biso   1.000  C
  C58      1.0000 0.95210  0.06240  0.55330  Biso   1.000  C
  C59      1.0000 0.68760  0.20210  0.80330  Biso   1.000  C
  C60      1.0000 0.54790  0.93760  0.05330  Biso   1.000  C
  C61      1.0000 0.31240  0.29790  0.80330  Biso   1.000  C
  C62      1.0000 0.45210  0.56240  0.05330  Biso   1.000  C
  C63      1.0000 0.18760  0.70210  0.30330  Biso   1.000  C
  C64      1.0000 0.04790  0.43760  0.55330  Biso   1.000  C
  H33      1.0000 0.17700  0.20970  0.55340  Biso   1.000  H
  H34      1.0000 0.54030  0.42700  0.80340  Biso   1.000  H
  H35      1.0000 0.32300  0.79030  0.05340  Biso   1.000  H
  H36      1.0000 0.95970  0.57300  0.30340  Biso   1.000  H
  H37      1.0000 0.67700  0.70970  0.05340  Biso   1.000  H
  H38      1.0000 0.04030  0.92700  0.30340  Biso   1.000  H
  H39      1.0000 0.82300  0.29030  0.55340  Biso   1.000  H
  H40      1.0000 0.45970  0.07300  0.80340  Biso   1.000  H
  H41      1.0000 0.82300  0.79030  0.44660  Biso   1.000  H
  H42      1.0000 0.95970  0.07300  0.69660  Biso   1.000  H
  H43      1.0000 0.67700  0.20970  0.94660  Biso   1.000  H
  H44      1.0000 0.54030  0.92700  0.19660  Biso   1.000  H
  H45      1.0000 0.32300  0.29030  0.94660  Biso   1.000  H
  H46      1.0000 0.45970  0.57300  0.19660  Biso   1.000  H
  H47      1.0000 0.17700  0.70970  0.44660  Biso   1.000  H
  H48      1.0000 0.04030  0.42700  0.69660  Biso   1.000  H
  C65      1.0000 0.10920  0.09040  0.48600  Biso   1.000  C
  C66      1.0000 0.65960  0.35920  0.73600  Biso   1.000  C
  C67      1.0000 0.39080  0.90960  0.98600  Biso   1.000  C
  C68      1.0000 0.84040  0.64080  0.23600  Biso   1.000  C
  C69      1.0000 0.60920  0.59040  0.98600  Biso   1.000  C
  C70      1.0000 0.15960  0.85920  0.23600  Biso   1.000  C
  C71      1.0000 0.89080  0.40960  0.48600  Biso   1.000  C
  C72      1.0000 0.34040  0.14080  0.73600  Biso   1.000  C
  C73      1.0000 0.89080  0.90960  0.51400  Biso   1.000  C
  C74      1.0000 0.84040  0.14080  0.76400  Biso   1.000  C
  C75      1.0000 0.60920  0.09040  0.01400  Biso   1.000  C
  C76      1.0000 0.65960  0.85920  0.26400  Biso   1.000  C
  C77      1.0000 0.39080  0.40960  0.01400  Biso   1.000  C
  C78      1.0000 0.34040  0.64080  0.26400  Biso   1.000  C
  C79      1.0000 0.10920  0.59040  0.51400  Biso   1.000  C
  C80      1.0000 0.15960  0.35920  0.76400  Biso   1.000  C
  H49      1.0000 0.11950  0.08420  0.63370  Biso   1.000  H
  H50      1.0000 0.66580  0.36950  0.88370  Biso   1.000  H
  H51      1.0000 0.38050  0.91580  0.13370  Biso   1.000  H
  H52      1.0000 0.83420  0.63050  0.38370  Biso   1.000  H
  H53      1.0000 0.61950  0.58420  0.13370  Biso   1.000  H
  H54      1.0000 0.16580  0.86950  0.38370  Biso   1.000  H
  H55      1.0000 0.88050  0.41580  0.63370  Biso   1.000  H
  H56      1.0000 0.33420  0.13050  0.88370  Biso   1.000  H
  H57      1.0000 0.88050  0.91580  0.36630  Biso   1.000  H
  H58      1.0000 0.83420  0.13050  0.61630  Biso   1.000  H
  H59      1.0000 0.61950  0.08420  0.86630  Biso   1.000  H
  H60      1.0000 0.66580  0.86950  0.11630  Biso   1.000  H
  H61      1.0000 0.38050  0.41580  0.86630  Biso   1.000  H
  H62      1.0000 0.33420  0.63050  0.11630  Biso   1.000  H
  H63      1.0000 0.11950  0.58420  0.36630  Biso   1.000  H
  H64      1.0000 0.16580  0.36950  0.61630  Biso   1.000  H
  C81      1.0000 0.22060  0.18260  0.10650  Biso   1.000  C
  C82      1.0000 0.56740  0.47060  0.35650  Biso   1.000  C
  C83      1.0000 0.27940  0.81740  0.60650  Biso   1.000  C
  C84      1.0000 0.93260  0.52940  0.85650  Biso   1.000  C
  C85      1.0000 0.72060  0.68260  0.60650  Biso   1.000  C
  C86      1.0000 0.06740  0.97060  0.85650  Biso   1.000  C
  C87      1.0000 0.77940  0.31740  0.10650  Biso   1.000  C
  C88      1.0000 0.43260  0.02940  0.35650  Biso   1.000  C
  C89      1.0000 0.77940  0.81740  0.89350  Biso   1.000  C
  C90      1.0000 0.93260  0.02940  0.14350  Biso   1.000  C
  C91      1.0000 0.72060  0.18260  0.39350  Biso   1.000  C
  C92      1.0000 0.56740  0.97060  0.64350  Biso   1.000  C
  C93      1.0000 0.27940  0.31740  0.39350  Biso   1.000  C
  C94      1.0000 0.43260  0.52940  0.64350  Biso   1.000  C
  C95      1.0000 0.22060  0.68260  0.89350  Biso   1.000  C
  C96      1.0000 0.06740  0.47060  0.14350  Biso   1.000  C
  H65      1.0000 0.23300  0.17500  0.24210  Biso   1.000  H
  H66      1.0000 0.57500  0.48300  0.49210  Biso   1.000  H
  H67      1.0000 0.26700  0.82500  0.74210  Biso   1.000  H
  H68      1.0000 0.92500  0.51700  0.99210  Biso   1.000  H
  H69      1.0000 0.73300  0.67500  0.74210  Biso   1.000  H
  H70      1.0000 0.07500  0.98300  0.99210  Biso   1.000  H
  H71      1.0000 0.76700  0.32500  0.24210  Biso   1.000  H
  H72      1.0000 0.42500  0.01700  0.49210  Biso   1.000  H
  H73      1.0000 0.76700  0.82500  0.75790  Biso   1.000  H
  H74      1.0000 0.92500  0.01700  0.00790  Biso   1.000  H
  H75      1.0000 0.73300  0.17500  0.25790  Biso   1.000  H
  H76      1.0000 0.57500  0.98300  0.50790  Biso   1.000  H
  H77      1.0000 0.26700  0.32500  0.25790  Biso   1.000  H
  H78      1.0000 0.42500  0.51700  0.50790  Biso   1.000  H
  H79      1.0000 0.23300  0.67500  0.75790  Biso   1.000  H
  H80      1.0000 0.07500  0.48300  0.00790  Biso   1.000  H
  C97      1.0000 0.06910  0.07620  0.16500  Biso   1.000  C
  C98      1.0000 0.67380  0.31910  0.41500  Biso   1.000  C
  C99      1.0000 0.43090  0.92380  0.66500  Biso   1.000  C
  C100     1.0000 0.82620  0.68090  0.91500  Biso   1.000  C
  C101     1.0000 0.56910  0.57620  0.66500  Biso   1.000  C
  C102     1.0000 0.17380  0.81910  0.91500  Biso   1.000  C
  C103     1.0000 0.93090  0.42380  0.16500  Biso   1.000  C
  C104     1.0000 0.32620  0.18090  0.41500  Biso   1.000  C
  C105     1.0000 0.93090  0.92380  0.83500  Biso   1.000  C
  C106     1.0000 0.82620  0.18090  0.08500  Biso   1.000  C
  C107     1.0000 0.56910  0.07620  0.33500  Biso   1.000  C
  C108     1.0000 0.67380  0.81910  0.58500  Biso   1.000  C
  C109     1.0000 0.43090  0.42380  0.33500  Biso   1.000  C
  C110     1.0000 0.32620  0.68090  0.58500  Biso   1.000  C
  C111     1.0000 0.06910  0.57620  0.83500  Biso   1.000  C
  C112     1.0000 0.17380  0.31910  0.08500  Biso   1.000  C
  C113     1.0000 0.04200  0.05420  0.04900  Biso   1.000  C
  C114     1.0000 0.69580  0.29200  0.29900  Biso   1.000  C
  C115     1.0000 0.45800  0.94580  0.54900  Biso   1.000  C
  C116     1.0000 0.80420  0.70800  0.79900  Biso   1.000  C
  C117     1.0000 0.54200  0.55420  0.54900  Biso   1.000  C
  C118     1.0000 0.19580  0.79200  0.79900  Biso   1.000  C
  C119     1.0000 0.95800  0.44580  0.04900  Biso   1.000  C
  C120     1.0000 0.30420  0.20800  0.29900  Biso   1.000  C
  C121     1.0000 0.95800  0.94580  0.95100  Biso   1.000  C
  C122     1.0000 0.80420  0.20800  0.20100  Biso   1.000  C
  C123     1.0000 0.54200  0.05420  0.45100  Biso   1.000  C
  C124     1.0000 0.69580  0.79200  0.70100  Biso   1.000  C
  C125     1.0000 0.45800  0.44580  0.45100  Biso   1.000  C
  C126     1.0000 0.30420  0.70800  0.70100  Biso   1.000  C
  C127     1.0000 0.04200  0.55420  0.95100  Biso   1.000  C
  C128     1.0000 0.19580  0.29200  0.20100  Biso   1.000  C
  C129     1.0000 0.08460  0.06770  0.36900  Biso   1.000  C
  C130     1.0000 0.68230  0.33460  0.61900  Biso   1.000  C
  C131     1.0000 0.41540  0.93230  0.86900  Biso   1.000  C
  C132     1.0000 0.81770  0.66540  0.11900  Biso   1.000  C
  C133     1.0000 0.58460  0.56770  0.86900  Biso   1.000  C
  C134     1.0000 0.18230  0.83460  0.11900  Biso   1.000  C
  C135     1.0000 0.91540  0.43230  0.36900  Biso   1.000  C
  C136     1.0000 0.31770  0.16540  0.61900  Biso   1.000  C
  C137     1.0000 0.91540  0.93230  0.63100  Biso   1.000  C
  C138     1.0000 0.81770  0.16540  0.88100  Biso   1.000  C
  C139     1.0000 0.58460  0.06770  0.13100  Biso   1.000  C
  C140     1.0000 0.68230  0.83460  0.38100  Biso   1.000  C
  C141     1.0000 0.41540  0.43230  0.13100  Biso   1.000  C
  C142     1.0000 0.31770  0.66540  0.38100  Biso   1.000  C
  C143     1.0000 0.08460  0.56770  0.63100  Biso   1.000  C
  C144     1.0000 0.18230  0.33460  0.88100  Biso   1.000  C
  H81      1.0000 0.07960  0.04650  0.44160  Biso   1.000  H
  H82      1.0000 0.70350  0.32960  0.69160  Biso   1.000  H
  H83      1.0000 0.42040  0.95350  0.94160  Biso   1.000  H
  H84      1.0000 0.79650  0.67040  0.19160  Biso   1.000  H
  H85      1.0000 0.57960  0.54650  0.94160  Biso   1.000  H
  H86      1.0000 0.20350  0.82960  0.19160  Biso   1.000  H
  H87      1.0000 0.92040  0.45350  0.44160  Biso   1.000  H
  H88      1.0000 0.29650  0.17040  0.69160  Biso   1.000  H
  H89      1.0000 0.92040  0.95350  0.55840  Biso   1.000  H
  H90      1.0000 0.79650  0.17040  0.80840  Biso   1.000  H
  H91      1.0000 0.57960  0.04650  0.05840  Biso   1.000  H
  H92      1.0000 0.70350  0.82960  0.30840  Biso   1.000  H
  H93      1.0000 0.42040  0.45350  0.05840  Biso   1.000  H
  H94      1.0000 0.29650  0.67040  0.30840  Biso   1.000  H
  H95      1.0000 0.07960  0.54650  0.55840  Biso   1.000  H
  H96      1.0000 0.20350  0.32960  0.80840  Biso   1.000  H
  C145     1.0000 0.11700  0.12000  0.37900  Biso   1.000  C
  C146     1.0000 0.63000  0.36700  0.62900  Biso   1.000  C
  C147     1.0000 0.38300  0.88000  0.87900  Biso   1.000  C
  C148     1.0000 0.87000  0.63300  0.12900  Biso   1.000  C
  C149     1.0000 0.61700  0.62000  0.87900  Biso   1.000  C
  C150     1.0000 0.13000  0.86700  0.12900  Biso   1.000  C
  C151     1.0000 0.88300  0.38000  0.37900  Biso   1.000  C
  C152     1.0000 0.37000  0.13300  0.62900  Biso   1.000  C
  C153     1.0000 0.88300  0.88000  0.62100  Biso   1.000  C
  C154     1.0000 0.87000  0.13300  0.87100  Biso   1.000  C
  C155     1.0000 0.61700  0.12000  0.12100  Biso   1.000  C
  C156     1.0000 0.63000  0.86700  0.37100  Biso   1.000  C
  C157     1.0000 0.38300  0.38000  0.12100  Biso   1.000  C
  C158     1.0000 0.37000  0.63300  0.37100  Biso   1.000  C
  C159     1.0000 0.11700  0.62000  0.62100  Biso   1.000  C
  C160     1.0000 0.13000  0.36700  0.87100  Biso   1.000  C
  C161     1.0000 0.10000  0.13010  0.17000  Biso   1.000  C
  C162     1.0000 0.61990  0.35000  0.42000  Biso   1.000  C
  C163     1.0000 0.40000  0.86990  0.67000  Biso   1.000  C
  C164     1.0000 0.88010  0.65000  0.92000  Biso   1.000  C
  C165     1.0000 0.60000  0.63010  0.67000  Biso   1.000  C
  C166     1.0000 0.11990  0.85000  0.92000  Biso   1.000  C
  C167     1.0000 0.90000  0.36990  0.17000  Biso   1.000  C
  C168     1.0000 0.38010  0.15000  0.42000  Biso   1.000  C
  C169     1.0000 0.90000  0.86990  0.83000  Biso   1.000  C
  C170     1.0000 0.88010  0.15000  0.08000  Biso   1.000  C
  C171     1.0000 0.60000  0.13010  0.33000  Biso   1.000  C
  C172     1.0000 0.61990  0.85000  0.58000  Biso   1.000  C
  C173     1.0000 0.40000  0.36990  0.33000  Biso   1.000  C
  C174     1.0000 0.38010  0.65000  0.58000  Biso   1.000  C
  C175     1.0000 0.10000  0.63010  0.83000  Biso   1.000  C
  C176     1.0000 0.11990  0.35000  0.08000  Biso   1.000  C
  H97      1.0000 0.10460  0.15150  0.09990  Biso   1.000  H
  H98      1.0000 0.59850  0.35460  0.34990  Biso   1.000  H
  H99      1.0000 0.39540  0.84850  0.59990  Biso   1.000  H
  H100     1.0000 0.90150  0.64540  0.84990  Biso   1.000  H
  H101     1.0000 0.60460  0.65150  0.59990  Biso   1.000  H
  H102     1.0000 0.09850  0.85460  0.84990  Biso   1.000  H
  H103     1.0000 0.89540  0.34850  0.09990  Biso   1.000  H
  H104     1.0000 0.40150  0.14540  0.34990  Biso   1.000  H
  H105     1.0000 0.89540  0.84850  0.90010  Biso   1.000  H
  H106     1.0000 0.90150  0.14540  0.15010  Biso   1.000  H
  H107     1.0000 0.60460  0.15150  0.40010  Biso   1.000  H
  H108     1.0000 0.59850  0.85460  0.65010  Biso   1.000  H
  H109     1.0000 0.39540  0.34850  0.40010  Biso   1.000  H
  H110     1.0000 0.40150  0.64540  0.65010  Biso   1.000  H
  H111     1.0000 0.10460  0.65150  0.90010  Biso   1.000  H
  H112     1.0000 0.09850  0.35460  0.15010  Biso   1.000  H
  C177     1.0000 0.19950  0.15940  0.98800  Biso   1.000  C
  C178     1.0000 0.59060  0.44950  0.23800  Biso   1.000  C
  C179     1.0000 0.30050  0.84060  0.48800  Biso   1.000  C
  C180     1.0000 0.90940  0.55050  0.73800  Biso   1.000  C
  C181     1.0000 0.69950  0.65940  0.48800  Biso   1.000  C
  C182     1.0000 0.09060  0.94950  0.73800  Biso   1.000  C
  C183     1.0000 0.80050  0.34060  0.98800  Biso   1.000  C
  C184     1.0000 0.40940  0.05050  0.23800  Biso   1.000  C
  C185     1.0000 0.80050  0.84060  0.01200  Biso   1.000  C
  C186     1.0000 0.90940  0.05050  0.26200  Biso   1.000  C
  C187     1.0000 0.69950  0.15940  0.51200  Biso   1.000  C
  C188     1.0000 0.59060  0.94950  0.76200  Biso   1.000  C
  C189     1.0000 0.30050  0.34060  0.51200  Biso   1.000  C
  C190     1.0000 0.40940  0.55050  0.76200  Biso   1.000  C
  C191     1.0000 0.19950  0.65940  0.01200  Biso   1.000  C
  C192     1.0000 0.09060  0.44950  0.26200  Biso   1.000  C
  H113     1.0000 0.19630  0.13730  0.05110  Biso   1.000  H
  H114     1.0000 0.61270  0.44630  0.30110  Biso   1.000  H
  H115     1.0000 0.30370  0.86270  0.55110  Biso   1.000  H
  H116     1.0000 0.88730  0.55370  0.80110  Biso   1.000  H
  H117     1.0000 0.69630  0.63730  0.55110  Biso   1.000  H
  H118     1.0000 0.11270  0.94630  0.80110  Biso   1.000  H
  H119     1.0000 0.80370  0.36270  0.05110  Biso   1.000  H
  H120     1.0000 0.38730  0.05370  0.30110  Biso   1.000  H
  H121     1.0000 0.80370  0.86270  0.94890  Biso   1.000  H
  H122     1.0000 0.88730  0.05370  0.19890  Biso   1.000  H
  H123     1.0000 0.69630  0.13730  0.44890  Biso   1.000  H
  H124     1.0000 0.61270  0.94630  0.69890  Biso   1.000  H
  H125     1.0000 0.30370  0.36270  0.44890  Biso   1.000  H
  H126     1.0000 0.38730  0.55370  0.69890  Biso   1.000  H
  H127     1.0000 0.19630  0.63730  0.94890  Biso   1.000  H
  H128     1.0000 0.11270  0.44630  0.19890  Biso   1.000  H
  C193     1.0000 0.16010  0.14390  0.65400  Biso   1.000  C
  C194     1.0000 0.60610  0.41010  0.90400  Biso   1.000  C
  C195     1.0000 0.33990  0.85610  0.15400  Biso   1.000  C
  C196     1.0000 0.89390  0.58990  0.40400  Biso   1.000  C
  C197     1.0000 0.66010  0.64390  0.15400  Biso   1.000  C
  C198     1.0000 0.10610  0.91010  0.40400  Biso   1.000  C
  C199     1.0000 0.83990  0.35610  0.65400  Biso   1.000  C
  C200     1.0000 0.39390  0.08990  0.90400  Biso   1.000  C
  C201     1.0000 0.83990  0.85610  0.34600  Biso   1.000  C
  C202     1.0000 0.89390  0.08990  0.59600  Biso   1.000  C
  C203     1.0000 0.66010  0.14390  0.84600  Biso   1.000  C
  C204     1.0000 0.60610  0.91010  0.09600  Biso   1.000  C
  C205     1.0000 0.33990  0.35610  0.84600  Biso   1.000  C
  C206     1.0000 0.39390  0.58990  0.09600  Biso   1.000  C
  C207     1.0000 0.16010  0.64390  0.34600  Biso   1.000  C
  C208     1.0000 0.10610  0.41010  0.59600  Biso   1.000  C
  H129     1.0000 0.15990  0.12170  0.71960  Biso   1.000  H
  H130     1.0000 0.62830  0.40990  0.96960  Biso   1.000  H
  H131     1.0000 0.34010  0.87830  0.21960  Biso   1.000  H
  H132     1.0000 0.87170  0.59010  0.46960  Biso   1.000  H
  H133     1.0000 0.65990  0.62170  0.21960  Biso   1.000  H
  H134     1.0000 0.12830  0.90990  0.46960  Biso   1.000  H
  H135     1.0000 0.84010  0.37830  0.71960  Biso   1.000  H
  H136     1.0000 0.37170  0.09010  0.96960  Biso   1.000  H
  H137     1.0000 0.84010  0.87830  0.28040  Biso   1.000  H
  H138     1.0000 0.87170  0.09010  0.53040  Biso   1.000  H
  H139     1.0000 0.65990  0.12170  0.78040  Biso   1.000  H
  H140     1.0000 0.62830  0.90990  0.03040  Biso   1.000  H
  H141     1.0000 0.34010  0.37830  0.78040  Biso   1.000  H
  H142     1.0000 0.37170  0.59010  0.03040  Biso   1.000  H
  H143     1.0000 0.15990  0.62170  0.28040  Biso   1.000  H
  H144     1.0000 0.12830  0.40990  0.53040  Biso   1.000  H
  C209     1.0000 0.14130  0.14890  0.48000  Biso   1.000  C
  C210     1.0000 0.60110  0.39130  0.73000  Biso   1.000  C
  C211     1.0000 0.35870  0.85110  0.98000  Biso   1.000  C
  C212     1.0000 0.89890  0.60870  0.23000  Biso   1.000  C
  C213     1.0000 0.64130  0.64890  0.98000  Biso   1.000  C
  C214     1.0000 0.10110  0.89130  0.23000  Biso   1.000  C
  C215     1.0000 0.85870  0.35110  0.48000  Biso   1.000  C
  C216     1.0000 0.39890  0.10870  0.73000  Biso   1.000  C
  C217     1.0000 0.85870  0.85110  0.52000  Biso   1.000  C
  C218     1.0000 0.89890  0.10870  0.77000  Biso   1.000  C
  C219     1.0000 0.64130  0.14890  0.02000  Biso   1.000  C
  C220     1.0000 0.60110  0.89130  0.27000  Biso   1.000  C
  C221     1.0000 0.35870  0.35110  0.02000  Biso   1.000  C
  C222     1.0000 0.39890  0.60870  0.27000  Biso   1.000  C
  C223     1.0000 0.14130  0.64890  0.52000  Biso   1.000  C
  C224     1.0000 0.10110  0.39130  0.77000  Biso   1.000  C
  H145     1.0000 0.14130  0.17040  0.40410  Biso   1.000  H
  H146     1.0000 0.57960  0.39130  0.65410  Biso   1.000  H
  H147     1.0000 0.35870  0.82960  0.90410  Biso   1.000  H
  H148     1.0000 0.92040  0.60870  0.15410  Biso   1.000  H
  H149     1.0000 0.64130  0.67040  0.90410  Biso   1.000  H
  H150     1.0000 0.07960  0.89130  0.15410  Biso   1.000  H
  H151     1.0000 0.85870  0.32960  0.40410  Biso   1.000  H
  H152     1.0000 0.42040  0.10870  0.65410  Biso   1.000  H
  H153     1.0000 0.85870  0.82960  0.59590  Biso   1.000  H
  H154     1.0000 0.92040  0.10870  0.84590  Biso   1.000  H
  H155     1.0000 0.64130  0.17040  0.09590  Biso   1.000  H
  H156     1.0000 0.57960  0.89130  0.34590  Biso   1.000  H
  H157     1.0000 0.35870  0.32960  0.09590  Biso   1.000  H
  H158     1.0000 0.42040  0.60870  0.34590  Biso   1.000  H
  H159     1.0000 0.14130  0.67040  0.59590  Biso   1.000  H
  H160     1.0000 0.07960  0.39130  0.84590  Biso   1.000  H
