data_image0
_cell_length_a       7.838
_cell_length_b       13.665
_cell_length_c       30.941
_cell_angle_alpha    90
_cell_angle_beta     90
_cell_angle_gamma    90

_symmetry_space_group_name_H-M    "P 1"
_symmetry_int_tables_number       1

loop_
  _symmetry_equiv_pos_as_xyz
  'x, y, z'

loop_
  _atom_site_label
  _atom_site_occupancy
  _atom_site_fract_x
  _atom_site_fract_y
  _atom_site_fract_z
  _atom_site_thermal_displace_type
  _atom_site_B_iso_or_equiv
  _atom_site_type_symbol
  Cu1      1.0000 0.80809  0.61474  0.89334  Biso   1.000  Cu
  Cu2      1.0000 0.69191  0.38526  0.39334  Biso   1.000  Cu
  Cu3      1.0000 0.30809  0.88526  0.10666  Biso   1.000  Cu
  Cu4      1.0000 0.19191  0.11474  0.60666  Biso   1.000  Cu
  Cu5      1.0000 0.19191  0.38526  0.10666  Biso   1.000  Cu
  Cu6      1.0000 0.30809  0.61474  0.60666  Biso   1.000  Cu
  Cu7      1.0000 0.69191  0.11474  0.89334  Biso   1.000  Cu
  Cu8      1.0000 0.80809  0.88526  0.39334  Biso   1.000  Cu
  O1       1.0000 0.06610  0.87110  0.90280  Biso   1.000  O
  O2       1.0000 0.43390  0.12890  0.40280  Biso   1.000  O
  O3       1.0000 0.56610  0.62890  0.09720  Biso   1.000  O
  O4       1.0000 0.93390  0.37110  0.59720  Biso   1.000  O
  O5       1.0000 0.93390  0.12890  0.09720  Biso   1.000  O
  O6       1.0000 0.56610  0.87110  0.59720  Biso   1.000  O
  O7       1.0000 0.43390  0.37110  0.90280  Biso   1.000  O
  O8       1.0000 0.06610  0.62890  0.40280  Biso   1.000  O
  O9       1.0000 0.79400  0.47970  0.86800  Biso   1.000  O
  O10      1.0000 0.70600  0.52030  0.36800  Biso   1.000  O
  O11      1.0000 0.29400  0.02030  0.13200  Biso   1.000  O
  O12      1.0000 0.20600  0.97970  0.63200  Biso   1.000  O
  O13      1.0000 0.20600  0.52030  0.13200  Biso   1.000  O
  O14      1.0000 0.29400  0.47970  0.63200  Biso   1.000  O
  O15      1.0000 0.70600  0.97970  0.86800  Biso   1.000  O
  O16      1.0000 0.79400  0.02030  0.36800  Biso   1.000  O
  O17      1.0000 0.95200  0.38650  0.83240  Biso   1.000  O
  O18      1.0000 0.54800  0.61350  0.33240  Biso   1.000  O
  O19      1.0000 0.45200  0.11350  0.16760  Biso   1.000  O
  O20      1.0000 0.04800  0.88650  0.66760  Biso   1.000  O
  O21      1.0000 0.04800  0.61350  0.16760  Biso   1.000  O
  O22      1.0000 0.45200  0.38650  0.66760  Biso   1.000  O
  O23      1.0000 0.54800  0.88650  0.83240  Biso   1.000  O
  O24      1.0000 0.95200  0.11350  0.33240  Biso   1.000  O
  O25      1.0000 0.06000  0.49780  0.87120  Biso   1.000  O
  O26      1.0000 0.44000  0.50220  0.37120  Biso   1.000  O
  O27      1.0000 0.56000  0.00220  0.12880  Biso   1.000  O
  O28      1.0000 0.94000  0.99780  0.62880  Biso   1.000  O
  O29      1.0000 0.94000  0.50220  0.12880  Biso   1.000  O
  O30      1.0000 0.56000  0.49780  0.62880  Biso   1.000  O
  O31      1.0000 0.44000  0.99780  0.87120  Biso   1.000  O
  O32      1.0000 0.06000  0.00220  0.37120  Biso   1.000  O
  O33      1.0000 0.54140  0.62660  0.88610  Biso   1.000  O
  O34      1.0000 0.95860  0.37340  0.38610  Biso   1.000  O
  O35      1.0000 0.04140  0.87340  0.11390  Biso   1.000  O
  O36      1.0000 0.45860  0.12660  0.61390  Biso   1.000  O
  O37      1.0000 0.45860  0.37340  0.11390  Biso   1.000  O
  O38      1.0000 0.04140  0.62660  0.61390  Biso   1.000  O
  O39      1.0000 0.95860  0.12660  0.88610  Biso   1.000  O
  O40      1.0000 0.54140  0.87340  0.38610  Biso   1.000  O
  O41      1.0000 0.30640  0.70720  0.89630  Biso   1.000  O
  O42      1.0000 0.19360  0.29280  0.39630  Biso   1.000  O
  O43      1.0000 0.80640  0.79280  0.10370  Biso   1.000  O
  O44      1.0000 0.69360  0.20720  0.60370  Biso   1.000  O
  O45      1.0000 0.69360  0.29280  0.10370  Biso   1.000  O
  O46      1.0000 0.80640  0.70720  0.60370  Biso   1.000  O
  O47      1.0000 0.19360  0.20720  0.89630  Biso   1.000  O
  O48      1.0000 0.30640  0.79280  0.39630  Biso   1.000  O
  O49      1.0000 0.54200  0.76700  0.91720  Biso   1.000  O
  O50      1.0000 0.95800  0.23300  0.41720  Biso   1.000  O
  O51      1.0000 0.04200  0.73300  0.08280  Biso   1.000  O
  O52      1.0000 0.45800  0.26700  0.58280  Biso   1.000  O
  O53      1.0000 0.45800  0.23300  0.08280  Biso   1.000  O
  O54      1.0000 0.04200  0.76700  0.58280  Biso   1.000  O
  O55      1.0000 0.95800  0.26700  0.91720  Biso   1.000  O
  O56      1.0000 0.54200  0.73300  0.41720  Biso   1.000  O
  N1       1.0000 0.27430  0.94320  0.04660  Biso   1.000  N
  N2       1.0000 0.22570  0.05680  0.54660  Biso   1.000  N
  N3       1.0000 0.77430  0.55680  0.95340  Biso   1.000  N
  N4       1.0000 0.72570  0.44320  0.45340  Biso   1.000  N
  N5       1.0000 0.72570  0.05680  0.95340  Biso   1.000  N
  N6       1.0000 0.77430  0.94320  0.45340  Biso   1.000  N
  N7       1.0000 0.22570  0.44320  0.04660  Biso   1.000  N
  N8       1.0000 0.27430  0.55680  0.54660  Biso   1.000  N
  N9       1.0000 0.99670  0.77160  0.95660  Biso   1.000  N
  N10      1.0000 0.50330  0.22840  0.45660  Biso   1.000  N
  N11      1.0000 0.49670  0.72840  0.04340  Biso   1.000  N
  N12      1.0000 0.00330  0.27160  0.54340  Biso   1.000  N
  N13      1.0000 0.00330  0.22840  0.04340  Biso   1.000  N
  N14      1.0000 0.49670  0.77160  0.54340  Biso   1.000  N
  N15      1.0000 0.50330  0.27160  0.95660  Biso   1.000  N
  N16      1.0000 0.99670  0.72840  0.45660  Biso   1.000  N
  N17      1.0000 0.93750  0.73350  0.91740  Biso   1.000  N
  N18      1.0000 0.56250  0.26650  0.41740  Biso   1.000  N
  N19      1.0000 0.43750  0.76650  0.08260  Biso   1.000  N
  N20      1.0000 0.06250  0.23350  0.58260  Biso   1.000  N
  N21      1.0000 0.06250  0.26650  0.08260  Biso   1.000  N
  N22      1.0000 0.43750  0.73350  0.58260  Biso   1.000  N
  N23      1.0000 0.56250  0.23350  0.91740  Biso   1.000  N
  N24      1.0000 0.93750  0.76650  0.41740  Biso   1.000  N
  N25      1.0000 0.86670  0.69350  0.83540  Biso   1.000  N
  N26      1.0000 0.63330  0.30650  0.33540  Biso   1.000  N
  N27      1.0000 0.36670  0.80650  0.16460  Biso   1.000  N
  N28      1.0000 0.13330  0.19350  0.66460  Biso   1.000  N
  N29      1.0000 0.13330  0.30650  0.16460  Biso   1.000  N
  N30      1.0000 0.36670  0.69350  0.66460  Biso   1.000  N
  N31      1.0000 0.63330  0.19350  0.83540  Biso   1.000  N
  N32      1.0000 0.86670  0.80650  0.33540  Biso   1.000  N
  N33      1.0000 0.46620  0.70320  0.89860  Biso   1.000  N
  N34      1.0000 0.03380  0.29680  0.39860  Biso   1.000  N
  N35      1.0000 0.96620  0.79680  0.10140  Biso   1.000  N
  N36      1.0000 0.53380  0.20320  0.60140  Biso   1.000  N
  N37      1.0000 0.53380  0.29680  0.10140  Biso   1.000  N
  N38      1.0000 0.96620  0.70320  0.60140  Biso   1.000  N
  N39      1.0000 0.03380  0.20320  0.89860  Biso   1.000  N
  N40      1.0000 0.46620  0.79680  0.39860  Biso   1.000  N
  N41      1.0000 0.94600  0.45320  0.85740  Biso   1.000  N
  N42      1.0000 0.55400  0.54680  0.35740  Biso   1.000  N
  N43      1.0000 0.44600  0.04680  0.14260  Biso   1.000  N
  N44      1.0000 0.05400  0.95320  0.64260  Biso   1.000  N
  N45      1.0000 0.05400  0.54680  0.14260  Biso   1.000  N
  N46      1.0000 0.44600  0.45320  0.64260  Biso   1.000  N
  N47      1.0000 0.55400  0.95320  0.85740  Biso   1.000  N
  N48      1.0000 0.94600  0.04680  0.35740  Biso   1.000  N
  C1       1.0000 0.74800  0.57950  0.78320  Biso   1.000  C
  C2       1.0000 0.75200  0.42050  0.28320  Biso   1.000  C
  C3       1.0000 0.24800  0.92050  0.21680  Biso   1.000  C
  C4       1.0000 0.25200  0.07950  0.71680  Biso   1.000  C
  C5       1.0000 0.25200  0.42050  0.21680  Biso   1.000  C
  C6       1.0000 0.24800  0.57950  0.71680  Biso   1.000  C
  C7       1.0000 0.75200  0.07950  0.78320  Biso   1.000  C
  C8       1.0000 0.74800  0.92050  0.28320  Biso   1.000  C
  H1       1.0000 0.71120  0.53930  0.80560  Biso   1.000  H
  H2       1.0000 0.78880  0.46070  0.30560  Biso   1.000  H
  H3       1.0000 0.21120  0.96070  0.19440  Biso   1.000  H
  H4       1.0000 0.28880  0.03930  0.69440  Biso   1.000  H
  H5       1.0000 0.28880  0.46070  0.19440  Biso   1.000  H
  H6       1.0000 0.21120  0.53930  0.69440  Biso   1.000  H
  H7       1.0000 0.78880  0.03930  0.80560  Biso   1.000  H
  H8       1.0000 0.71120  0.96070  0.30560  Biso   1.000  H
  C9       1.0000 0.71940  0.55200  0.74100  Biso   1.000  C
  C10      1.0000 0.78060  0.44800  0.24100  Biso   1.000  C
  C11      1.0000 0.21940  0.94800  0.25900  Biso   1.000  C
  C12      1.0000 0.28060  0.05200  0.75900  Biso   1.000  C
  C13      1.0000 0.28060  0.44800  0.25900  Biso   1.000  C
  C14      1.0000 0.21940  0.55200  0.75900  Biso   1.000  C
  C15      1.0000 0.78060  0.05200  0.74100  Biso   1.000  C
  C16      1.0000 0.71940  0.94800  0.24100  Biso   1.000  C
  H9       1.0000 0.65920  0.49510  0.73480  Biso   1.000  H
  H10      1.0000 0.84080  0.50490  0.23480  Biso   1.000  H
  H11      1.0000 0.15920  0.00490  0.26520  Biso   1.000  H
  H12      1.0000 0.34080  0.99510  0.76520  Biso   1.000  H
  H13      1.0000 0.34080  0.50490  0.26520  Biso   1.000  H
  H14      1.0000 0.15920  0.49510  0.76520  Biso   1.000  H
  H15      1.0000 0.84080  0.99510  0.73480  Biso   1.000  H
  H16      1.0000 0.65920  0.00490  0.23480  Biso   1.000  H
  C17      1.0000 0.78260  0.61130  0.70720  Biso   1.000  C
  C18      1.0000 0.71740  0.38870  0.20720  Biso   1.000  C
  C19      1.0000 0.28260  0.88870  0.29280  Biso   1.000  C
  C20      1.0000 0.21740  0.11130  0.79280  Biso   1.000  C
  C21      1.0000 0.21740  0.38870  0.29280  Biso   1.000  C
  C22      1.0000 0.28260  0.61130  0.79280  Biso   1.000  C
  C23      1.0000 0.71740  0.11130  0.70720  Biso   1.000  C
  C24      1.0000 0.78260  0.88870  0.20720  Biso   1.000  C
  H17      1.0000 0.76670  0.59150  0.67870  Biso   1.000  H
  H18      1.0000 0.73330  0.40850  0.17870  Biso   1.000  H
  H19      1.0000 0.26670  0.90850  0.32130  Biso   1.000  H
  H20      1.0000 0.23330  0.09150  0.82130  Biso   1.000  H
  H21      1.0000 0.23330  0.40850  0.32130  Biso   1.000  H
  H22      1.0000 0.26670  0.59150  0.82130  Biso   1.000  H
  H23      1.0000 0.73330  0.09150  0.67870  Biso   1.000  H
  H24      1.0000 0.76670  0.90850  0.17870  Biso   1.000  H
  C25      1.0000 0.86540  0.69600  0.71530  Biso   1.000  C
  C26      1.0000 0.63460  0.30400  0.21530  Biso   1.000  C
  C27      1.0000 0.36540  0.80400  0.28470  Biso   1.000  C
  C28      1.0000 0.13460  0.19600  0.78470  Biso   1.000  C
  C29      1.0000 0.13460  0.30400  0.28470  Biso   1.000  C
  C30      1.0000 0.36540  0.69600  0.78470  Biso   1.000  C
  C31      1.0000 0.63460  0.19600  0.71530  Biso   1.000  C
  C32      1.0000 0.86540  0.80400  0.21530  Biso   1.000  C
  H25      1.0000 0.90420  0.73420  0.69240  Biso   1.000  H
  H26      1.0000 0.59580  0.26580  0.19240  Biso   1.000  H
  H27      1.0000 0.40420  0.76580  0.30760  Biso   1.000  H
  H28      1.0000 0.09580  0.23420  0.80760  Biso   1.000  H
  H29      1.0000 0.09580  0.26580  0.30760  Biso   1.000  H
  H30      1.0000 0.40420  0.73420  0.80760  Biso   1.000  H
  H31      1.0000 0.59580  0.23420  0.69240  Biso   1.000  H
  H32      1.0000 0.90420  0.76580  0.19240  Biso   1.000  H
  C33      1.0000 0.89350  0.72690  0.75860  Biso   1.000  C
  C34      1.0000 0.60650  0.27310  0.25860  Biso   1.000  C
  C35      1.0000 0.39350  0.77310  0.24140  Biso   1.000  C
  C36      1.0000 0.10650  0.22690  0.74140  Biso   1.000  C
  C37      1.0000 0.10650  0.27310  0.24140  Biso   1.000  C
  C38      1.0000 0.39350  0.72690  0.74140  Biso   1.000  C
  C39      1.0000 0.60650  0.22690  0.75860  Biso   1.000  C
  C40      1.0000 0.89350  0.77310  0.25860  Biso   1.000  C
  C41      1.0000 0.83300  0.66830  0.79280  Biso   1.000  C
  C42      1.0000 0.66700  0.33170  0.29280  Biso   1.000  C
  C43      1.0000 0.33300  0.83170  0.20720  Biso   1.000  C
  C44      1.0000 0.16700  0.16830  0.70720  Biso   1.000  C
  C45      1.0000 0.16700  0.33170  0.20720  Biso   1.000  C
  C46      1.0000 0.33300  0.66830  0.70720  Biso   1.000  C
  C47      1.0000 0.66700  0.16830  0.79280  Biso   1.000  C
  C48      1.0000 0.83300  0.83170  0.29280  Biso   1.000  C
  C49      1.0000 0.95050  0.77650  0.84180  Biso   1.000  C
  C50      1.0000 0.54950  0.22350  0.34180  Biso   1.000  C
  C51      1.0000 0.45050  0.72350  0.15820  Biso   1.000  C
  C52      1.0000 0.04950  0.27650  0.65820  Biso   1.000  C
  C53      1.0000 0.04950  0.22350  0.15820  Biso   1.000  C
  C54      1.0000 0.45050  0.77650  0.65820  Biso   1.000  C
  C55      1.0000 0.54950  0.27650  0.84180  Biso   1.000  C
  C56      1.0000 0.95050  0.72350  0.34180  Biso   1.000  C
  C57      1.0000 0.00810  0.83970  0.80990  Biso   1.000  C
  C58      1.0000 0.49190  0.16030  0.30990  Biso   1.000  C
  C59      1.0000 0.50810  0.66030  0.19010  Biso   1.000  C
  C60      1.0000 0.99190  0.33970  0.69010  Biso   1.000  C
  C61      1.0000 0.99190  0.16030  0.19010  Biso   1.000  C
  C62      1.0000 0.50810  0.83970  0.69010  Biso   1.000  C
  C63      1.0000 0.49190  0.33970  0.80990  Biso   1.000  C
  C64      1.0000 0.00810  0.66030  0.30990  Biso   1.000  C
  H33      1.0000 0.06180  0.89820  0.81710  Biso   1.000  H
  H34      1.0000 0.43820  0.10180  0.31710  Biso   1.000  H
  H35      1.0000 0.56180  0.60180  0.18290  Biso   1.000  H
  H36      1.0000 0.93820  0.39820  0.68290  Biso   1.000  H
  H37      1.0000 0.93820  0.10180  0.18290  Biso   1.000  H
  H38      1.0000 0.56180  0.89820  0.68290  Biso   1.000  H
  H39      1.0000 0.43820  0.39820  0.81710  Biso   1.000  H
  H40      1.0000 0.06180  0.60180  0.31710  Biso   1.000  H
  C65      1.0000 0.98410  0.81400  0.76830  Biso   1.000  C
  C66      1.0000 0.51590  0.18600  0.26830  Biso   1.000  C
  C67      1.0000 0.48410  0.68600  0.23170  Biso   1.000  C
  C68      1.0000 0.01590  0.31400  0.73170  Biso   1.000  C
  C69      1.0000 0.01590  0.18600  0.23170  Biso   1.000  C
  C70      1.0000 0.48410  0.81400  0.73170  Biso   1.000  C
  C71      1.0000 0.51590  0.31400  0.76830  Biso   1.000  C
  C72      1.0000 0.98410  0.68600  0.26830  Biso   1.000  C
  H41      1.0000 0.02650  0.85310  0.74610  Biso   1.000  H
  H42      1.0000 0.47350  0.14690  0.24610  Biso   1.000  H
  H43      1.0000 0.52650  0.64690  0.25390  Biso   1.000  H
  H44      1.0000 0.97350  0.35310  0.75390  Biso   1.000  H
  H45      1.0000 0.97350  0.14690  0.25390  Biso   1.000  H
  H46      1.0000 0.52650  0.85310  0.75390  Biso   1.000  H
  H47      1.0000 0.47350  0.35310  0.74610  Biso   1.000  H
  H48      1.0000 0.02650  0.64690  0.24610  Biso   1.000  H
  C73      1.0000 0.98500  0.79390  0.88810  Biso   1.000  C
  C74      1.0000 0.51500  0.20610  0.38810  Biso   1.000  C
  C75      1.0000 0.48500  0.70610  0.11190  Biso   1.000  C
  C76      1.0000 0.01500  0.29390  0.61190  Biso   1.000  C
  C77      1.0000 0.01500  0.20610  0.11190  Biso   1.000  C
  C78      1.0000 0.48500  0.79390  0.61190  Biso   1.000  C
  C79      1.0000 0.51500  0.29390  0.88810  Biso   1.000  C
  C80      1.0000 0.98500  0.70610  0.38810  Biso   1.000  C
  C81      1.0000 0.07460  0.84880  0.94690  Biso   1.000  C
  C82      1.0000 0.42540  0.15120  0.44690  Biso   1.000  C
  C83      1.0000 0.57460  0.65120  0.05310  Biso   1.000  C
  C84      1.0000 0.92540  0.34880  0.55310  Biso   1.000  C
  C85      1.0000 0.92540  0.15120  0.05310  Biso   1.000  C
  C86      1.0000 0.57460  0.84880  0.55310  Biso   1.000  C
  C87      1.0000 0.42540  0.34880  0.94690  Biso   1.000  C
  C88      1.0000 0.07460  0.65120  0.44690  Biso   1.000  C
  C89      1.0000 0.16260  0.91600  0.97520  Biso   1.000  C
  C90      1.0000 0.33740  0.08400  0.47520  Biso   1.000  C
  C91      1.0000 0.66260  0.58400  0.02480  Biso   1.000  C
  C92      1.0000 0.83740  0.41600  0.52480  Biso   1.000  C
  C93      1.0000 0.83740  0.08400  0.02480  Biso   1.000  C
  C94      1.0000 0.66260  0.91600  0.52480  Biso   1.000  C
  C95      1.0000 0.33740  0.41600  0.97520  Biso   1.000  C
  C96      1.0000 0.16260  0.58400  0.47520  Biso   1.000  C
  C97      1.0000 0.19540  0.88420  0.01740  Biso   1.000  C
  C98      1.0000 0.30460  0.11580  0.51740  Biso   1.000  C
  C99      1.0000 0.69540  0.61580  0.98260  Biso   1.000  C
  C100     1.0000 0.80460  0.38420  0.48260  Biso   1.000  C
  C101     1.0000 0.80460  0.11580  0.98260  Biso   1.000  C
  C102     1.0000 0.69540  0.88420  0.48260  Biso   1.000  C
  C103     1.0000 0.30460  0.38420  0.01740  Biso   1.000  C
  C104     1.0000 0.19540  0.61580  0.51740  Biso   1.000  C
  H49      1.0000 0.16260  0.82150  0.02570  Biso   1.000  H
  H50      1.0000 0.33740  0.17850  0.52570  Biso   1.000  H
  H51      1.0000 0.66260  0.67850  0.97430  Biso   1.000  H
  H52      1.0000 0.83740  0.32150  0.47430  Biso   1.000  H
  H53      1.0000 0.83740  0.17850  0.97430  Biso   1.000  H
  H54      1.0000 0.66260  0.82150  0.47430  Biso   1.000  H
  H55      1.0000 0.33740  0.32150  0.02570  Biso   1.000  H
  H56      1.0000 0.16260  0.67850  0.52570  Biso   1.000  H
  C105     1.0000 0.32050  0.03250  0.03500  Biso   1.000  C
  C106     1.0000 0.17950  0.96750  0.53500  Biso   1.000  C
  C107     1.0000 0.82050  0.46750  0.96500  Biso   1.000  C
  C108     1.0000 0.67950  0.53250  0.46500  Biso   1.000  C
  C109     1.0000 0.67950  0.96750  0.96500  Biso   1.000  C
  C110     1.0000 0.82050  0.03250  0.46500  Biso   1.000  C
  C111     1.0000 0.17950  0.53250  0.03500  Biso   1.000  C
  C112     1.0000 0.32050  0.46750  0.53500  Biso   1.000  C
  H57      1.0000 0.36990  0.07340  0.05550  Biso   1.000  H
  H58      1.0000 0.13010  0.92660  0.55550  Biso   1.000  H
  H59      1.0000 0.86990  0.42660  0.94450  Biso   1.000  H
  H60      1.0000 0.63010  0.57340  0.44450  Biso   1.000  H
  H61      1.0000 0.63010  0.92660  0.94450  Biso   1.000  H
  H62      1.0000 0.86990  0.07340  0.44450  Biso   1.000  H
  H63      1.0000 0.13010  0.57340  0.05550  Biso   1.000  H
  H64      1.0000 0.36990  0.42660  0.55550  Biso   1.000  H
  C113     1.0000 0.29770  0.06690  0.99350  Biso   1.000  C
  C114     1.0000 0.20230  0.93310  0.49350  Biso   1.000  C
  C115     1.0000 0.79770  0.43310  0.00650  Biso   1.000  C
  C116     1.0000 0.70230  0.56690  0.50650  Biso   1.000  C
  C117     1.0000 0.70230  0.93310  0.00650  Biso   1.000  C
  C118     1.0000 0.79770  0.06690  0.50650  Biso   1.000  C
  C119     1.0000 0.20230  0.56690  0.99350  Biso   1.000  C
  C120     1.0000 0.29770  0.43310  0.49350  Biso   1.000  C
  H65      1.0000 0.33770  0.12860  0.98590  Biso   1.000  H
  H66      1.0000 0.16230  0.87140  0.48590  Biso   1.000  H
  H67      1.0000 0.83770  0.37140  0.01410  Biso   1.000  H
  H68      1.0000 0.66230  0.62860  0.51410  Biso   1.000  H
  H69      1.0000 0.66230  0.87140  0.01410  Biso   1.000  H
  H70      1.0000 0.83770  0.12860  0.51410  Biso   1.000  H
  H71      1.0000 0.16230  0.62860  0.98590  Biso   1.000  H
  H72      1.0000 0.33770  0.37140  0.48590  Biso   1.000  H
  C121     1.0000 0.21610  0.01000  0.96330  Biso   1.000  C
  C122     1.0000 0.28390  0.99000  0.46330  Biso   1.000  C
  C123     1.0000 0.71610  0.49000  0.03670  Biso   1.000  C
  C124     1.0000 0.78390  0.51000  0.53670  Biso   1.000  C
  C125     1.0000 0.78390  0.99000  0.03670  Biso   1.000  C
  C126     1.0000 0.71610  0.01000  0.53670  Biso   1.000  C
  C127     1.0000 0.28390  0.51000  0.96330  Biso   1.000  C
  C128     1.0000 0.21610  0.49000  0.46330  Biso   1.000  C
  H73      1.0000 0.19670  0.03340  0.93550  Biso   1.000  H
  H74      1.0000 0.30330  0.96660  0.43550  Biso   1.000  H
  H75      1.0000 0.69670  0.46660  0.06450  Biso   1.000  H
  H76      1.0000 0.80330  0.53340  0.56450  Biso   1.000  H
  H77      1.0000 0.80330  0.96660  0.06450  Biso   1.000  H
  H78      1.0000 0.69670  0.03340  0.56450  Biso   1.000  H
  H79      1.0000 0.30330  0.53340  0.93550  Biso   1.000  H
  H80      1.0000 0.19670  0.46660  0.43550  Biso   1.000  H
  O57      1.0000 0.01200  0.53400  0.88090  Biso   1.000  O
  O58      1.0000 0.48800  0.46600  0.38090  Biso   1.000  O
  O59      1.0000 0.51200  0.96600  0.11910  Biso   1.000  O
  O60      1.0000 0.98800  0.03400  0.61910  Biso   1.000  O
  O61      1.0000 0.98800  0.46600  0.11910  Biso   1.000  O
  O62      1.0000 0.51200  0.53400  0.61910  Biso   1.000  O
  O63      1.0000 0.48800  0.03400  0.88090  Biso   1.000  O
  O64      1.0000 0.01200  0.96600  0.38090  Biso   1.000  O
  O65      1.0000 0.07800  0.40900  0.84180  Biso   1.000  O
  O66      1.0000 0.42200  0.59100  0.34180  Biso   1.000  O
  O67      1.0000 0.57800  0.09100  0.15820  Biso   1.000  O
  O68      1.0000 0.92200  0.90900  0.65820  Biso   1.000  O
  O69      1.0000 0.92200  0.59100  0.15820  Biso   1.000  O
  O70      1.0000 0.57800  0.40900  0.65820  Biso   1.000  O
  O71      1.0000 0.42200  0.90900  0.84180  Biso   1.000  O
  O72      1.0000 0.07800  0.09100  0.34180  Biso   1.000  O
  O73      1.0000 0.79600  0.42400  0.86250  Biso   1.000  O
  O74      1.0000 0.70400  0.57600  0.36250  Biso   1.000  O
  O75      1.0000 0.29600  0.07600  0.13750  Biso   1.000  O
  O76      1.0000 0.20400  0.92400  0.63750  Biso   1.000  O
  O77      1.0000 0.20400  0.57600  0.13750  Biso   1.000  O
  O78      1.0000 0.29600  0.42400  0.63750  Biso   1.000  O
  O79      1.0000 0.70400  0.92400  0.86250  Biso   1.000  O
  O80      1.0000 0.79600  0.07600  0.36250  Biso   1.000  O
