data_image0
_cell_length_a       23.341
_cell_length_b       10.2257
_cell_length_c       19.3694
_cell_angle_alpha    90
_cell_angle_beta     118.396
_cell_angle_gamma    90

_symmetry_space_group_name_H-M    "P 1"
_symmetry_int_tables_number       1

loop_
  _symmetry_equiv_pos_as_xyz
  'x, y, z'

loop_
  _atom_site_label
  _atom_site_occupancy
  _atom_site_fract_x
  _atom_site_fract_y
  _atom_site_fract_z
  _atom_site_thermal_displace_type
  _atom_site_B_iso_or_equiv
  _atom_site_type_symbol
  Cu1      1.0000 0.50000  0.65439  0.25000  Biso   1.000  Cu
  Cu2      1.0000 0.00000  0.15439  0.25000  Biso   1.000  Cu
  Cu3      1.0000 0.50000  0.34561  0.75000  Biso   1.000  Cu
  Cu4      1.0000 0.00000  0.84561  0.75000  Biso   1.000  Cu
  F1       1.0000 0.07972  0.54560  0.22601  Biso   1.000  F
  F2       1.0000 0.92028  0.54560  0.27399  Biso   1.000  F
  F3       1.0000 0.57972  0.04560  0.22601  Biso   1.000  F
  F4       1.0000 0.42028  0.04560  0.27399  Biso   1.000  F
  F5       1.0000 0.92028  0.45440  0.77399  Biso   1.000  F
  F6       1.0000 0.07972  0.45440  0.72601  Biso   1.000  F
  F7       1.0000 0.42028  0.95440  0.77399  Biso   1.000  F
  F8       1.0000 0.57972  0.95440  0.72601  Biso   1.000  F
  N1       1.0000 0.51280  0.65550  0.15398  Biso   1.000  N
  N2       1.0000 0.48720  0.65550  0.34602  Biso   1.000  N
  N3       1.0000 0.01280  0.15550  0.15398  Biso   1.000  N
  N4       1.0000 0.98720  0.15550  0.34602  Biso   1.000  N
  N5       1.0000 0.48720  0.34450  0.84602  Biso   1.000  N
  N6       1.0000 0.51280  0.34450  0.65398  Biso   1.000  N
  N7       1.0000 0.98720  0.84450  0.84602  Biso   1.000  N
  N8       1.0000 0.01280  0.84450  0.65398  Biso   1.000  N
  C1       1.0000 0.55430  0.57270  0.14790  Biso   1.000  C
  C2       1.0000 0.44570  0.57270  0.35210  Biso   1.000  C
  C3       1.0000 0.05430  0.07270  0.14790  Biso   1.000  C
  C4       1.0000 0.94570  0.07270  0.35210  Biso   1.000  C
  C5       1.0000 0.44570  0.42730  0.85210  Biso   1.000  C
  C6       1.0000 0.55430  0.42730  0.64790  Biso   1.000  C
  C7       1.0000 0.94570  0.92730  0.85210  Biso   1.000  C
  C8       1.0000 0.05430  0.92730  0.64790  Biso   1.000  C
  H1       1.0000 0.57530  0.51030  0.18680  Biso   1.000  H
  H2       1.0000 0.42470  0.51030  0.31320  Biso   1.000  H
  H3       1.0000 0.07530  0.01030  0.18680  Biso   1.000  H
  H4       1.0000 0.92470  0.01030  0.31320  Biso   1.000  H
  H5       1.0000 0.42470  0.48970  0.81320  Biso   1.000  H
  H6       1.0000 0.57530  0.48970  0.68680  Biso   1.000  H
  H7       1.0000 0.92470  0.98970  0.81320  Biso   1.000  H
  H8       1.0000 0.07530  0.98970  0.68680  Biso   1.000  H
  C9       1.0000 0.56660  0.57740  0.08530  Biso   1.000  C
  C10      1.0000 0.43340  0.57740  0.41470  Biso   1.000  C
  C11      1.0000 0.06660  0.07740  0.08530  Biso   1.000  C
  C12      1.0000 0.93340  0.07740  0.41470  Biso   1.000  C
  C13      1.0000 0.43340  0.42260  0.91470  Biso   1.000  C
  C14      1.0000 0.56660  0.42260  0.58530  Biso   1.000  C
  C15      1.0000 0.93340  0.92260  0.91470  Biso   1.000  C
  C16      1.0000 0.06660  0.92260  0.58530  Biso   1.000  C
  H9       1.0000 0.59640  0.52010  0.08260  Biso   1.000  H
  H10      1.0000 0.40360  0.52010  0.41740  Biso   1.000  H
  H11      1.0000 0.09640  0.02010  0.08260  Biso   1.000  H
  H12      1.0000 0.90360  0.02010  0.41740  Biso   1.000  H
  H13      1.0000 0.40360  0.47990  0.91740  Biso   1.000  H
  H14      1.0000 0.59640  0.47990  0.58260  Biso   1.000  H
  H15      1.0000 0.90360  0.97990  0.91740  Biso   1.000  H
  H16      1.0000 0.09640  0.97990  0.58260  Biso   1.000  H
  C17      1.0000 0.53460  0.66770  0.02680  Biso   1.000  C
  C18      1.0000 0.46540  0.66770  0.47320  Biso   1.000  C
  C19      1.0000 0.03460  0.16770  0.02680  Biso   1.000  C
  C20      1.0000 0.96540  0.16770  0.47320  Biso   1.000  C
  C21      1.0000 0.46540  0.33230  0.97320  Biso   1.000  C
  C22      1.0000 0.53460  0.33230  0.52680  Biso   1.000  C
  C23      1.0000 0.96540  0.83230  0.97320  Biso   1.000  C
  C24      1.0000 0.03460  0.83230  0.52680  Biso   1.000  C
  H17      1.0000 0.54260  0.67160  0.98420  Biso   1.000  H
  H18      1.0000 0.45740  0.67160  0.51580  Biso   1.000  H
  H19      1.0000 0.04260  0.17160  0.98420  Biso   1.000  H
  H20      1.0000 0.95740  0.17160  0.51580  Biso   1.000  H
  H21      1.0000 0.45740  0.32840  0.01580  Biso   1.000  H
  H22      1.0000 0.54260  0.32840  0.48420  Biso   1.000  H
  H23      1.0000 0.95740  0.82840  0.01580  Biso   1.000  H
  H24      1.0000 0.04260  0.82840  0.48420  Biso   1.000  H
  C25      1.0000 0.49068  0.75220  0.03150  Biso   1.000  C
  C26      1.0000 0.50932  0.75220  0.46850  Biso   1.000  C
  C27      1.0000 0.99068  0.25220  0.03150  Biso   1.000  C
  C28      1.0000 0.00932  0.25220  0.46850  Biso   1.000  C
  C29      1.0000 0.50932  0.24780  0.96850  Biso   1.000  C
  C30      1.0000 0.49068  0.24780  0.53150  Biso   1.000  C
  C31      1.0000 0.00932  0.74780  0.96850  Biso   1.000  C
  C32      1.0000 0.99068  0.74780  0.53150  Biso   1.000  C
  C33      1.0000 0.48111  0.74380  0.09710  Biso   1.000  C
  C34      1.0000 0.51889  0.74380  0.40290  Biso   1.000  C
  C35      1.0000 0.98111  0.24380  0.09710  Biso   1.000  C
  C36      1.0000 0.01889  0.24380  0.40290  Biso   1.000  C
  C37      1.0000 0.51889  0.25620  0.90290  Biso   1.000  C
  C38      1.0000 0.48111  0.25620  0.59710  Biso   1.000  C
  C39      1.0000 0.01889  0.75620  0.90290  Biso   1.000  C
  C40      1.0000 0.98111  0.75620  0.59710  Biso   1.000  C
  H25      1.0000 0.45200  0.80080  0.10150  Biso   1.000  H
  H26      1.0000 0.54800  0.80080  0.39850  Biso   1.000  H
  H27      1.0000 0.95200  0.30080  0.10150  Biso   1.000  H
  H28      1.0000 0.04800  0.30080  0.39850  Biso   1.000  H
  H29      1.0000 0.54800  0.19920  0.89850  Biso   1.000  H
  H30      1.0000 0.45200  0.19920  0.60150  Biso   1.000  H
  H31      1.0000 0.04800  0.69920  0.89850  Biso   1.000  H
  H32      1.0000 0.95200  0.69920  0.60150  Biso   1.000  H
  N9       1.0000 0.45821  0.83990  0.96974  Biso   1.000  N
  N10      1.0000 0.54179  0.83990  0.53026  Biso   1.000  N
  N11      1.0000 0.95821  0.33990  0.96974  Biso   1.000  N
  N12      1.0000 0.04179  0.33990  0.53026  Biso   1.000  N
  N13      1.0000 0.54179  0.16010  0.03026  Biso   1.000  N
  N14      1.0000 0.45821  0.16010  0.46974  Biso   1.000  N
  N15      1.0000 0.04179  0.66010  0.03026  Biso   1.000  N
  N16      1.0000 0.95821  0.66010  0.46974  Biso   1.000  N
  H33      1.0000 0.47170  0.84380  0.93540  Biso   1.000  H
  H34      1.0000 0.52830  0.84380  0.56460  Biso   1.000  H
  H35      1.0000 0.97170  0.34380  0.93540  Biso   1.000  H
  H36      1.0000 0.02830  0.34380  0.56460  Biso   1.000  H
  H37      1.0000 0.52830  0.15620  0.06460  Biso   1.000  H
  H38      1.0000 0.47170  0.15620  0.43540  Biso   1.000  H
  H39      1.0000 0.02830  0.65620  0.06460  Biso   1.000  H
  H40      1.0000 0.97170  0.65620  0.43540  Biso   1.000  H
  C41      1.0000 0.40734  0.92040  0.95750  Biso   1.000  C
  C42      1.0000 0.59266  0.92040  0.54250  Biso   1.000  C
  C43      1.0000 0.90734  0.42040  0.95750  Biso   1.000  C
  C44      1.0000 0.09266  0.42040  0.54250  Biso   1.000  C
  C45      1.0000 0.59266  0.07960  0.04250  Biso   1.000  C
  C46      1.0000 0.40734  0.07960  0.45750  Biso   1.000  C
  C47      1.0000 0.09266  0.57960  0.04250  Biso   1.000  C
  C48      1.0000 0.90734  0.57960  0.45750  Biso   1.000  C
  O1       1.0000 0.38688  0.93080  0.00563  Biso   1.000  O
  O2       1.0000 0.61312  0.93080  0.49437  Biso   1.000  O
  O3       1.0000 0.88688  0.43080  0.00563  Biso   1.000  O
  O4       1.0000 0.11312  0.43080  0.49437  Biso   1.000  O
  O5       1.0000 0.61312  0.06920  0.99437  Biso   1.000  O
  O6       1.0000 0.38688  0.06920  0.50563  Biso   1.000  O
  O7       1.0000 0.11312  0.56920  0.99437  Biso   1.000  O
  O8       1.0000 0.88688  0.56920  0.50563  Biso   1.000  O
  N17      1.0000 0.38037  0.98400  0.88783  Biso   1.000  N
  N18      1.0000 0.61963  0.98400  0.61217  Biso   1.000  N
  N19      1.0000 0.88037  0.48400  0.88783  Biso   1.000  N
  N20      1.0000 0.11963  0.48400  0.61217  Biso   1.000  N
  N21      1.0000 0.61963  0.01600  0.11217  Biso   1.000  N
  N22      1.0000 0.38037  0.01600  0.38783  Biso   1.000  N
  N23      1.0000 0.11963  0.51600  0.11217  Biso   1.000  N
  N24      1.0000 0.88037  0.51600  0.38783  Biso   1.000  N
  H41      1.0000 0.39920  0.97780  0.85910  Biso   1.000  H
  H42      1.0000 0.60080  0.97780  0.64090  Biso   1.000  H
  H43      1.0000 0.89920  0.47780  0.85910  Biso   1.000  H
  H44      1.0000 0.10080  0.47780  0.64090  Biso   1.000  H
  H45      1.0000 0.60080  0.02220  0.14090  Biso   1.000  H
  H46      1.0000 0.39920  0.02220  0.35910  Biso   1.000  H
  H47      1.0000 0.10080  0.52220  0.14090  Biso   1.000  H
  H48      1.0000 0.89920  0.52220  0.35910  Biso   1.000  H
  C49      1.0000 0.32284  0.06000  0.85970  Biso   1.000  C
  C50      1.0000 0.67716  0.06000  0.64030  Biso   1.000  C
  C51      1.0000 0.82284  0.56000  0.85970  Biso   1.000  C
  C52      1.0000 0.17716  0.56000  0.64030  Biso   1.000  C
  C53      1.0000 0.67716  0.94000  0.14030  Biso   1.000  C
  C54      1.0000 0.32284  0.94000  0.35970  Biso   1.000  C
  C55      1.0000 0.17716  0.44000  0.14030  Biso   1.000  C
  C56      1.0000 0.82284  0.44000  0.35970  Biso   1.000  C
  C57      1.0000 0.27280  0.03610  0.78520  Biso   1.000  C
  C58      1.0000 0.72720  0.03610  0.71480  Biso   1.000  C
  C59      1.0000 0.77280  0.53610  0.78520  Biso   1.000  C
  C60      1.0000 0.22720  0.53610  0.71480  Biso   1.000  C
  C61      1.0000 0.72720  0.96390  0.21480  Biso   1.000  C
  C62      1.0000 0.27280  0.96390  0.28520  Biso   1.000  C
  C63      1.0000 0.22720  0.46390  0.21480  Biso   1.000  C
  C64      1.0000 0.77280  0.46390  0.28520  Biso   1.000  C
  H49      1.0000 0.27710  0.97160  0.75410  Biso   1.000  H
  H50      1.0000 0.72290  0.97160  0.74590  Biso   1.000  H
  H51      1.0000 0.77710  0.47160  0.75410  Biso   1.000  H
  H52      1.0000 0.22290  0.47160  0.74590  Biso   1.000  H
  H53      1.0000 0.72290  0.02840  0.24590  Biso   1.000  H
  H54      1.0000 0.27710  0.02840  0.25410  Biso   1.000  H
  H55      1.0000 0.22290  0.52840  0.24590  Biso   1.000  H
  H56      1.0000 0.77710  0.52840  0.25410  Biso   1.000  H
  C65      1.0000 0.21640  0.10860  0.75740  Biso   1.000  C
  C66      1.0000 0.78360  0.10860  0.74260  Biso   1.000  C
  C67      1.0000 0.71640  0.60860  0.75740  Biso   1.000  C
  C68      1.0000 0.28360  0.60860  0.74260  Biso   1.000  C
  C69      1.0000 0.78360  0.89140  0.24260  Biso   1.000  C
  C70      1.0000 0.21640  0.89140  0.25740  Biso   1.000  C
  C71      1.0000 0.28360  0.39140  0.24260  Biso   1.000  C
  C72      1.0000 0.71640  0.39140  0.25740  Biso   1.000  C
  H57      1.0000 0.18280  0.09240  0.70710  Biso   1.000  H
  H58      1.0000 0.81720  0.09240  0.79290  Biso   1.000  H
  H59      1.0000 0.68280  0.59240  0.70710  Biso   1.000  H
  H60      1.0000 0.31720  0.59240  0.79290  Biso   1.000  H
  H61      1.0000 0.81720  0.90760  0.29290  Biso   1.000  H
  H62      1.0000 0.18280  0.90760  0.20710  Biso   1.000  H
  H63      1.0000 0.31720  0.40760  0.29290  Biso   1.000  H
  H64      1.0000 0.68280  0.40760  0.20710  Biso   1.000  H
  C73      1.0000 0.20860  0.20470  0.80220  Biso   1.000  C
  C74      1.0000 0.79140  0.20470  0.69780  Biso   1.000  C
  C75      1.0000 0.70860  0.70470  0.80220  Biso   1.000  C
  C76      1.0000 0.29140  0.70470  0.69780  Biso   1.000  C
  C77      1.0000 0.79140  0.79530  0.19780  Biso   1.000  C
  C78      1.0000 0.20860  0.79530  0.30220  Biso   1.000  C
  C79      1.0000 0.29140  0.29530  0.19780  Biso   1.000  C
  C80      1.0000 0.70860  0.29530  0.30220  Biso   1.000  C
  H65      1.0000 0.17000  0.25220  0.78290  Biso   1.000  H
  H66      1.0000 0.83000  0.25220  0.71710  Biso   1.000  H
  H67      1.0000 0.67000  0.75220  0.78290  Biso   1.000  H
  H68      1.0000 0.33000  0.75220  0.71710  Biso   1.000  H
  H69      1.0000 0.83000  0.74780  0.21710  Biso   1.000  H
  H70      1.0000 0.17000  0.74780  0.28290  Biso   1.000  H
  H71      1.0000 0.33000  0.24780  0.21710  Biso   1.000  H
  H72      1.0000 0.67000  0.24780  0.28290  Biso   1.000  H
  C81      1.0000 0.25972  0.22920  0.87730  Biso   1.000  C
  C82      1.0000 0.74028  0.22920  0.62270  Biso   1.000  C
  C83      1.0000 0.75972  0.72920  0.87730  Biso   1.000  C
  C84      1.0000 0.24028  0.72920  0.62270  Biso   1.000  C
  C85      1.0000 0.74028  0.77080  0.12270  Biso   1.000  C
  C86      1.0000 0.25972  0.77080  0.37730  Biso   1.000  C
  C87      1.0000 0.24028  0.27080  0.12270  Biso   1.000  C
  C88      1.0000 0.75972  0.27080  0.37730  Biso   1.000  C
  C89      1.0000 0.31650  0.15700  0.90590  Biso   1.000  C
  C90      1.0000 0.68350  0.15700  0.59410  Biso   1.000  C
  C91      1.0000 0.81650  0.65700  0.90590  Biso   1.000  C
  C92      1.0000 0.18350  0.65700  0.59410  Biso   1.000  C
  C93      1.0000 0.68350  0.84300  0.09410  Biso   1.000  C
  C94      1.0000 0.31650  0.84300  0.40590  Biso   1.000  C
  C95      1.0000 0.18350  0.34300  0.09410  Biso   1.000  C
  C96      1.0000 0.81650  0.34300  0.40590  Biso   1.000  C
  H73      1.0000 0.35030  0.17310  0.95600  Biso   1.000  H
  H74      1.0000 0.64970  0.17310  0.54400  Biso   1.000  H
  H75      1.0000 0.85030  0.67310  0.95600  Biso   1.000  H
  H76      1.0000 0.14970  0.67310  0.54400  Biso   1.000  H
  H77      1.0000 0.64970  0.82690  0.04400  Biso   1.000  H
  H78      1.0000 0.35030  0.82690  0.45600  Biso   1.000  H
  H79      1.0000 0.14970  0.32690  0.04400  Biso   1.000  H
  H80      1.0000 0.85030  0.32690  0.45600  Biso   1.000  H
  N25      1.0000 0.24925  0.32730  0.92130  Biso   1.000  N
  N26      1.0000 0.75075  0.32730  0.57870  Biso   1.000  N
  N27      1.0000 0.74925  0.82730  0.92130  Biso   1.000  N
  N28      1.0000 0.25075  0.82730  0.57870  Biso   1.000  N
  N29      1.0000 0.75075  0.67270  0.07870  Biso   1.000  N
  N30      1.0000 0.24925  0.67270  0.42130  Biso   1.000  N
  N31      1.0000 0.25075  0.17270  0.07870  Biso   1.000  N
  N32      1.0000 0.74925  0.17270  0.42130  Biso   1.000  N
  H81      1.0000 0.20930  0.34610  0.90740  Biso   1.000  H
  H82      1.0000 0.79070  0.34610  0.59260  Biso   1.000  H
  H83      1.0000 0.70930  0.84610  0.90740  Biso   1.000  H
  H84      1.0000 0.29070  0.84610  0.59260  Biso   1.000  H
  H85      1.0000 0.79070  0.65390  0.09260  Biso   1.000  H
  H86      1.0000 0.20930  0.65390  0.40740  Biso   1.000  H
  H87      1.0000 0.29070  0.15390  0.09260  Biso   1.000  H
  H88      1.0000 0.70930  0.15390  0.40740  Biso   1.000  H
  C97      1.0000 0.29510  0.39540  0.98320  Biso   1.000  C
  C98      1.0000 0.70490  0.39540  0.51680  Biso   1.000  C
  C99      1.0000 0.79510  0.89540  0.98320  Biso   1.000  C
  C100     1.0000 0.20490  0.89540  0.51680  Biso   1.000  C
  C101     1.0000 0.70490  0.60460  0.01680  Biso   1.000  C
  C102     1.0000 0.29510  0.60460  0.48320  Biso   1.000  C
  C103     1.0000 0.20490  0.10460  0.01680  Biso   1.000  C
  C104     1.0000 0.79510  0.10460  0.48320  Biso   1.000  C
  O9       1.0000 0.35322  0.37800  0.01150  Biso   1.000  O
  O10      1.0000 0.64678  0.37800  0.48850  Biso   1.000  O
  O11      1.0000 0.85322  0.87800  0.01150  Biso   1.000  O
  O12      1.0000 0.14678  0.87800  0.48850  Biso   1.000  O
  O13      1.0000 0.64678  0.62200  0.98850  Biso   1.000  O
  O14      1.0000 0.35322  0.62200  0.51150  Biso   1.000  O
  O15      1.0000 0.14678  0.12200  0.98850  Biso   1.000  O
  O16      1.0000 0.85322  0.12200  0.51150  Biso   1.000  O
  N33      1.0000 0.26921  0.48760  0.01140  Biso   1.000  N
  N34      1.0000 0.73079  0.48760  0.48860  Biso   1.000  N
  N35      1.0000 0.76921  0.98760  0.01140  Biso   1.000  N
  N36      1.0000 0.23079  0.98760  0.48860  Biso   1.000  N
  N37      1.0000 0.73079  0.51240  0.98860  Biso   1.000  N
  N38      1.0000 0.26921  0.51240  0.51140  Biso   1.000  N
  N39      1.0000 0.23079  0.01240  0.98860  Biso   1.000  N
  N40      1.0000 0.76921  0.01240  0.51140  Biso   1.000  N
  H89      1.0000 0.22740  0.49200  0.98860  Biso   1.000  H
  H90      1.0000 0.77260  0.49200  0.51140  Biso   1.000  H
  H91      1.0000 0.72740  0.99200  0.98860  Biso   1.000  H
  H92      1.0000 0.27260  0.99200  0.51140  Biso   1.000  H
  H93      1.0000 0.77260  0.50800  0.01140  Biso   1.000  H
  H94      1.0000 0.22740  0.50800  0.48860  Biso   1.000  H
  H95      1.0000 0.27260  0.00800  0.01140  Biso   1.000  H
  H96      1.0000 0.72740  0.00800  0.48860  Biso   1.000  H
  C105     1.0000 0.30242  0.57540  0.07290  Biso   1.000  C
  C106     1.0000 0.69758  0.57540  0.42710  Biso   1.000  C
  C107     1.0000 0.80242  0.07540  0.07290  Biso   1.000  C
  C108     1.0000 0.19758  0.07540  0.42710  Biso   1.000  C
  C109     1.0000 0.69758  0.42460  0.92710  Biso   1.000  C
  C110     1.0000 0.30242  0.42460  0.57290  Biso   1.000  C
  C111     1.0000 0.19758  0.92460  0.92710  Biso   1.000  C
  C112     1.0000 0.80242  0.92460  0.57290  Biso   1.000  C
  C113     1.0000 0.26690  0.67160  0.08580  Biso   1.000  C
  C114     1.0000 0.73310  0.67160  0.41420  Biso   1.000  C
  C115     1.0000 0.76690  0.17160  0.08580  Biso   1.000  C
  C116     1.0000 0.23310  0.17160  0.41420  Biso   1.000  C
  C117     1.0000 0.73310  0.32840  0.91420  Biso   1.000  C
  C118     1.0000 0.26690  0.32840  0.58580  Biso   1.000  C
  C119     1.0000 0.23310  0.82840  0.91420  Biso   1.000  C
  C120     1.0000 0.76690  0.82840  0.58580  Biso   1.000  C
  H97      1.0000 0.22210  0.67730  0.05390  Biso   1.000  H
  H98      1.0000 0.77790  0.67730  0.44610  Biso   1.000  H
  H99      1.0000 0.72210  0.17730  0.05390  Biso   1.000  H
  H100     1.0000 0.27790  0.17730  0.44610  Biso   1.000  H
  H101     1.0000 0.77790  0.32270  0.94610  Biso   1.000  H
  H102     1.0000 0.22210  0.32270  0.55390  Biso   1.000  H
  H103     1.0000 0.27790  0.82270  0.94610  Biso   1.000  H
  H104     1.0000 0.72210  0.82270  0.55390  Biso   1.000  H
  C121     1.0000 0.29840  0.75810  0.14590  Biso   1.000  C
  C122     1.0000 0.70160  0.75810  0.35410  Biso   1.000  C
  C123     1.0000 0.79840  0.25810  0.14590  Biso   1.000  C
  C124     1.0000 0.20160  0.25810  0.35410  Biso   1.000  C
  C125     1.0000 0.70160  0.24190  0.85410  Biso   1.000  C
  C126     1.0000 0.29840  0.24190  0.64590  Biso   1.000  C
  C127     1.0000 0.20160  0.74190  0.85410  Biso   1.000  C
  C128     1.0000 0.79840  0.74190  0.64590  Biso   1.000  C
  H105     1.0000 0.27490  0.82280  0.15530  Biso   1.000  H
  H106     1.0000 0.72510  0.82280  0.34470  Biso   1.000  H
  H107     1.0000 0.77490  0.32280  0.15530  Biso   1.000  H
  H108     1.0000 0.22510  0.32280  0.34470  Biso   1.000  H
  H109     1.0000 0.72510  0.17720  0.84470  Biso   1.000  H
  H110     1.0000 0.27490  0.17720  0.65530  Biso   1.000  H
  H111     1.0000 0.22510  0.67720  0.84470  Biso   1.000  H
  H112     1.0000 0.77490  0.67720  0.65530  Biso   1.000  H
  C129     1.0000 0.36483  0.74960  0.19280  Biso   1.000  C
  C130     1.0000 0.63517  0.74960  0.30720  Biso   1.000  C
  C131     1.0000 0.86483  0.24960  0.19280  Biso   1.000  C
  C132     1.0000 0.13517  0.24960  0.30720  Biso   1.000  C
  C133     1.0000 0.63517  0.25040  0.80720  Biso   1.000  C
  C134     1.0000 0.36483  0.25040  0.69280  Biso   1.000  C
  C135     1.0000 0.13517  0.75040  0.80720  Biso   1.000  C
  C136     1.0000 0.86483  0.75040  0.69280  Biso   1.000  C
  H113     1.0000 0.38570  0.80860  0.23380  Biso   1.000  H
  H114     1.0000 0.61430  0.80860  0.26620  Biso   1.000  H
  H115     1.0000 0.88570  0.30860  0.23380  Biso   1.000  H
  H116     1.0000 0.11430  0.30860  0.26620  Biso   1.000  H
  H117     1.0000 0.61430  0.19140  0.76620  Biso   1.000  H
  H118     1.0000 0.38570  0.19140  0.73380  Biso   1.000  H
  H119     1.0000 0.11430  0.69140  0.76620  Biso   1.000  H
  H120     1.0000 0.88570  0.69140  0.73380  Biso   1.000  H
  N41      1.0000 0.39978  0.65870  0.18039  Biso   1.000  N
  N42      1.0000 0.60022  0.65870  0.31961  Biso   1.000  N
  N43      1.0000 0.89978  0.15870  0.18039  Biso   1.000  N
  N44      1.0000 0.10022  0.15870  0.31961  Biso   1.000  N
  N45      1.0000 0.60022  0.34130  0.81961  Biso   1.000  N
  N46      1.0000 0.39978  0.34130  0.68039  Biso   1.000  N
  N47      1.0000 0.10022  0.84130  0.81961  Biso   1.000  N
  N48      1.0000 0.89978  0.84130  0.68039  Biso   1.000  N
  C137     1.0000 0.36981  0.57240  0.12230  Biso   1.000  C
  C138     1.0000 0.63019  0.57240  0.37770  Biso   1.000  C
  C139     1.0000 0.86981  0.07240  0.12230  Biso   1.000  C
  C140     1.0000 0.13019  0.07240  0.37770  Biso   1.000  C
  C141     1.0000 0.63019  0.42760  0.87770  Biso   1.000  C
  C142     1.0000 0.36981  0.42760  0.62230  Biso   1.000  C
  C143     1.0000 0.13019  0.92760  0.87770  Biso   1.000  C
  C144     1.0000 0.86981  0.92760  0.62230  Biso   1.000  C
  H121     1.0000 0.39450  0.50840  0.11450  Biso   1.000  H
  H122     1.0000 0.60550  0.50840  0.38550  Biso   1.000  H
  H123     1.0000 0.89450  0.00840  0.11450  Biso   1.000  H
  H124     1.0000 0.10550  0.00840  0.38550  Biso   1.000  H
  H125     1.0000 0.60550  0.49160  0.88550  Biso   1.000  H
  H126     1.0000 0.39450  0.49160  0.61450  Biso   1.000  H
  H127     1.0000 0.10550  0.99160  0.88550  Biso   1.000  H
  H128     1.0000 0.89450  0.99160  0.61450  Biso   1.000  H
  O17      1.0000 0.50000  0.88910  0.25000  Biso   1.000  O
  O18      1.0000 0.00000  0.38910  0.25000  Biso   1.000  O
  O19      1.0000 0.50000  0.11090  0.75000  Biso   1.000  O
  O20      1.0000 0.00000  0.61090  0.75000  Biso   1.000  O
  O21      1.0000 0.50000  0.42230  0.25000  Biso   1.000  O
  O22      1.0000 0.00000  0.92230  0.25000  Biso   1.000  O
  O23      1.0000 0.50000  0.57770  0.75000  Biso   1.000  O
  O24      1.0000 0.00000  0.07770  0.75000  Biso   1.000  O
  O25      1.0000 0.37914  0.08030  0.12310  Biso   1.000  O
  O26      1.0000 0.62086  0.08030  0.37690  Biso   1.000  O
  O27      1.0000 0.87914  0.58030  0.12310  Biso   1.000  O
  O28      1.0000 0.12086  0.58030  0.37690  Biso   1.000  O
  O29      1.0000 0.62086  0.91970  0.87690  Biso   1.000  O
  O30      1.0000 0.37914  0.91970  0.62310  Biso   1.000  O
  O31      1.0000 0.12086  0.41970  0.87690  Biso   1.000  O
  O32      1.0000 0.87914  0.41970  0.62310  Biso   1.000  O
  O33      1.0000 0.99571  0.72350  0.14790  Biso   1.000  O
  O34      1.0000 0.00429  0.72350  0.35210  Biso   1.000  O
  O35      1.0000 0.49571  0.22350  0.14790  Biso   1.000  O
  O36      1.0000 0.50429  0.22350  0.35210  Biso   1.000  O
  O37      1.0000 0.00429  0.27650  0.85210  Biso   1.000  O
  O38      1.0000 0.99571  0.27650  0.64790  Biso   1.000  O
  O39      1.0000 0.50429  0.77650  0.85210  Biso   1.000  O
  O40      1.0000 0.49571  0.77650  0.64790  Biso   1.000  O
  H129     1.0000 0.51900  0.93200  0.23700  Biso   1.000  H
  H130     1.0000 0.48100  0.93200  0.26300  Biso   1.000  H
  H131     1.0000 0.01900  0.43200  0.23700  Biso   1.000  H
  H132     1.0000 0.98100  0.43200  0.26300  Biso   1.000  H
  H133     1.0000 0.48100  0.06800  0.76300  Biso   1.000  H
  H134     1.0000 0.51900  0.06800  0.73700  Biso   1.000  H
  H135     1.0000 0.98100  0.56800  0.76300  Biso   1.000  H
  H136     1.0000 0.01900  0.56800  0.73700  Biso   1.000  H
  H137     1.0000 0.49900  0.37100  0.28300  Biso   1.000  H
  H138     1.0000 0.50100  0.37100  0.21700  Biso   1.000  H
  H139     1.0000 0.99900  0.87100  0.28300  Biso   1.000  H
  H140     1.0000 0.00100  0.87100  0.21700  Biso   1.000  H
  H141     1.0000 0.50100  0.62900  0.71700  Biso   1.000  H
  H142     1.0000 0.49900  0.62900  0.78300  Biso   1.000  H
  H143     1.0000 0.00100  0.12900  0.71700  Biso   1.000  H
  H144     1.0000 0.99900  0.12900  0.78300  Biso   1.000  H
  H145     1.0000 0.38900  0.01200  0.10400  Biso   1.000  H
  H146     1.0000 0.61100  0.01200  0.39600  Biso   1.000  H
  H147     1.0000 0.88900  0.51200  0.10400  Biso   1.000  H
  H148     1.0000 0.11100  0.51200  0.39600  Biso   1.000  H
  H149     1.0000 0.61100  0.98800  0.89600  Biso   1.000  H
  H150     1.0000 0.38900  0.98800  0.60400  Biso   1.000  H
  H151     1.0000 0.11100  0.48800  0.89600  Biso   1.000  H
  H152     1.0000 0.88900  0.48800  0.60400  Biso   1.000  H
  H153     1.0000 0.39300  0.06900  0.17360  Biso   1.000  H
  H154     1.0000 0.60700  0.06900  0.32640  Biso   1.000  H
  H155     1.0000 0.89300  0.56900  0.17360  Biso   1.000  H
  H156     1.0000 0.10700  0.56900  0.32640  Biso   1.000  H
  H157     1.0000 0.60700  0.93100  0.82640  Biso   1.000  H
  H158     1.0000 0.39300  0.93100  0.67360  Biso   1.000  H
  H159     1.0000 0.10700  0.43100  0.82640  Biso   1.000  H
  H160     1.0000 0.89300  0.43100  0.67360  Biso   1.000  H
