data_image0
_cell_length_a       22.6201
_cell_length_b       9.1958
_cell_length_c       21.2862
_cell_angle_alpha    90
_cell_angle_beta     118.149
_cell_angle_gamma    90

_symmetry_space_group_name_H-M    "P 1"
_symmetry_int_tables_number       1

loop_
  _symmetry_equiv_pos_as_xyz
  'x, y, z'

loop_
  _atom_site_label
  _atom_site_occupancy
  _atom_site_fract_x
  _atom_site_fract_y
  _atom_site_fract_z
  _atom_site_thermal_displace_type
  _atom_site_B_iso_or_equiv
  _atom_site_type_symbol
  Cu1      1.0000 0.50000  0.82784  0.75000  Biso   1.000  Cu
  Cu2      1.0000 0.00000  0.32784  0.75000  Biso   1.000  Cu
  Cu3      1.0000 0.50000  0.17216  0.25000  Biso   1.000  Cu
  Cu4      1.0000 0.00000  0.67216  0.25000  Biso   1.000  Cu
  N1       1.0000 0.60130  0.81580  0.81413  Biso   1.000  N
  N2       1.0000 0.39870  0.81580  0.68587  Biso   1.000  N
  N3       1.0000 0.10130  0.31580  0.81413  Biso   1.000  N
  N4       1.0000 0.89870  0.31580  0.68587  Biso   1.000  N
  N5       1.0000 0.39870  0.18420  0.18587  Biso   1.000  N
  N6       1.0000 0.60130  0.18420  0.31413  Biso   1.000  N
  N7       1.0000 0.89870  0.68420  0.18587  Biso   1.000  N
  N8       1.0000 0.10130  0.68420  0.31413  Biso   1.000  N
  C1       1.0000 0.63657  0.71360  0.80078  Biso   1.000  C
  C2       1.0000 0.36343  0.71360  0.69922  Biso   1.000  C
  C3       1.0000 0.13657  0.21360  0.80078  Biso   1.000  C
  C4       1.0000 0.86343  0.21360  0.69922  Biso   1.000  C
  C5       1.0000 0.36343  0.28640  0.19922  Biso   1.000  C
  C6       1.0000 0.63657  0.28640  0.30078  Biso   1.000  C
  C7       1.0000 0.86343  0.78640  0.19922  Biso   1.000  C
  C8       1.0000 0.13657  0.78640  0.30078  Biso   1.000  C
  H1       1.0000 0.61450  0.65460  0.76090  Biso   1.000  H
  H2       1.0000 0.38550  0.65460  0.73910  Biso   1.000  H
  H3       1.0000 0.11450  0.15460  0.76090  Biso   1.000  H
  H4       1.0000 0.88550  0.15460  0.73910  Biso   1.000  H
  H5       1.0000 0.38550  0.34540  0.23910  Biso   1.000  H
  H6       1.0000 0.61450  0.34540  0.26090  Biso   1.000  H
  H7       1.0000 0.88550  0.84540  0.23910  Biso   1.000  H
  H8       1.0000 0.11450  0.84540  0.26090  Biso   1.000  H
  C9       1.0000 0.70427  0.69350  0.84430  Biso   1.000  C
  C10      1.0000 0.29573  0.69350  0.65570  Biso   1.000  C
  C11      1.0000 0.20427  0.19350  0.84430  Biso   1.000  C
  C12      1.0000 0.79573  0.19350  0.65570  Biso   1.000  C
  C13      1.0000 0.29573  0.30650  0.15570  Biso   1.000  C
  C14      1.0000 0.70427  0.30650  0.34430  Biso   1.000  C
  C15      1.0000 0.79573  0.80650  0.15570  Biso   1.000  C
  C16      1.0000 0.20427  0.80650  0.34430  Biso   1.000  C
  H9       1.0000 0.72740  0.62230  0.83360  Biso   1.000  H
  H10      1.0000 0.27260  0.62230  0.66640  Biso   1.000  H
  H11      1.0000 0.22740  0.12230  0.83360  Biso   1.000  H
  H12      1.0000 0.77260  0.12230  0.66640  Biso   1.000  H
  H13      1.0000 0.27260  0.37770  0.16640  Biso   1.000  H
  H14      1.0000 0.72740  0.37770  0.33360  Biso   1.000  H
  H15      1.0000 0.77260  0.87770  0.16640  Biso   1.000  H
  H16      1.0000 0.22740  0.87770  0.33360  Biso   1.000  H
  C17      1.0000 0.73720  0.77930  0.90334  Biso   1.000  C
  C18      1.0000 0.26280  0.77930  0.59666  Biso   1.000  C
  C19      1.0000 0.23720  0.27930  0.90334  Biso   1.000  C
  C20      1.0000 0.76280  0.27930  0.59666  Biso   1.000  C
  C21      1.0000 0.26280  0.22070  0.09666  Biso   1.000  C
  C22      1.0000 0.73720  0.22070  0.40334  Biso   1.000  C
  C23      1.0000 0.76280  0.72070  0.09666  Biso   1.000  C
  C24      1.0000 0.23720  0.72070  0.40334  Biso   1.000  C
  H17      1.0000 0.78280  0.76610  0.93340  Biso   1.000  H
  H18      1.0000 0.21720  0.76610  0.56660  Biso   1.000  H
  H19      1.0000 0.28280  0.26610  0.93340  Biso   1.000  H
  H20      1.0000 0.71720  0.26610  0.56660  Biso   1.000  H
  H21      1.0000 0.21720  0.23390  0.06660  Biso   1.000  H
  H22      1.0000 0.78280  0.23390  0.43340  Biso   1.000  H
  H23      1.0000 0.71720  0.73390  0.06660  Biso   1.000  H
  H24      1.0000 0.28280  0.73390  0.43340  Biso   1.000  H
  C25      1.0000 0.70188  0.88680  0.91823  Biso   1.000  C
  C26      1.0000 0.29812  0.88680  0.58177  Biso   1.000  C
  C27      1.0000 0.20188  0.38680  0.91823  Biso   1.000  C
  C28      1.0000 0.79812  0.38680  0.58177  Biso   1.000  C
  C29      1.0000 0.29812  0.11320  0.08177  Biso   1.000  C
  C30      1.0000 0.70188  0.11320  0.41823  Biso   1.000  C
  C31      1.0000 0.79812  0.61320  0.08177  Biso   1.000  C
  C32      1.0000 0.20188  0.61320  0.41823  Biso   1.000  C
  C33      1.0000 0.63364  0.90230  0.87154  Biso   1.000  C
  C34      1.0000 0.36636  0.90230  0.62846  Biso   1.000  C
  C35      1.0000 0.13364  0.40230  0.87154  Biso   1.000  C
  C36      1.0000 0.86636  0.40230  0.62846  Biso   1.000  C
  C37      1.0000 0.36636  0.09770  0.12846  Biso   1.000  C
  C38      1.0000 0.63364  0.09770  0.37154  Biso   1.000  C
  C39      1.0000 0.86636  0.59770  0.12846  Biso   1.000  C
  C40      1.0000 0.13364  0.59770  0.37154  Biso   1.000  C
  H25      1.0000 0.60970  0.97450  0.88030  Biso   1.000  H
  H26      1.0000 0.39030  0.97450  0.61970  Biso   1.000  H
  H27      1.0000 0.10970  0.47450  0.88030  Biso   1.000  H
  H28      1.0000 0.89030  0.47450  0.61970  Biso   1.000  H
  H29      1.0000 0.39030  0.02550  0.11970  Biso   1.000  H
  H30      1.0000 0.60970  0.02550  0.38030  Biso   1.000  H
  H31      1.0000 0.89030  0.52550  0.11970  Biso   1.000  H
  H32      1.0000 0.10970  0.52550  0.38030  Biso   1.000  H
  N9       1.0000 0.73748  0.97420  0.97812  Biso   1.000  N
  N10      1.0000 0.26252  0.97420  0.52188  Biso   1.000  N
  N11      1.0000 0.23748  0.47420  0.97812  Biso   1.000  N
  N12      1.0000 0.76252  0.47420  0.52188  Biso   1.000  N
  N13      1.0000 0.26252  0.02580  0.02188  Biso   1.000  N
  N14      1.0000 0.73748  0.02580  0.47812  Biso   1.000  N
  N15      1.0000 0.76252  0.52580  0.02188  Biso   1.000  N
  N16      1.0000 0.23748  0.52580  0.47812  Biso   1.000  N
  H33      1.0000 0.78020  0.97910  0.99430  Biso   1.000  H
  H34      1.0000 0.21980  0.97910  0.50570  Biso   1.000  H
  H35      1.0000 0.28020  0.47910  0.99430  Biso   1.000  H
  H36      1.0000 0.71980  0.47910  0.50570  Biso   1.000  H
  H37      1.0000 0.21980  0.02090  0.00570  Biso   1.000  H
  H38      1.0000 0.78020  0.02090  0.49430  Biso   1.000  H
  H39      1.0000 0.71980  0.52090  0.00570  Biso   1.000  H
  H40      1.0000 0.28020  0.52090  0.49430  Biso   1.000  H
  C41      1.0000 0.71095  0.05270  0.01352  Biso   1.000  C
  C42      1.0000 0.28905  0.05270  0.48648  Biso   1.000  C
  C43      1.0000 0.21095  0.55270  0.01352  Biso   1.000  C
  C44      1.0000 0.78905  0.55270  0.48648  Biso   1.000  C
  C45      1.0000 0.28905  0.94730  0.98648  Biso   1.000  C
  C46      1.0000 0.71095  0.94730  0.51352  Biso   1.000  C
  C47      1.0000 0.78905  0.44730  0.98648  Biso   1.000  C
  C48      1.0000 0.21095  0.44730  0.51352  Biso   1.000  C
  O1       1.0000 0.65063  0.05160  0.99580  Biso   1.000  O
  O2       1.0000 0.34937  0.05160  0.50420  Biso   1.000  O
  O3       1.0000 0.15063  0.55160  0.99580  Biso   1.000  O
  O4       1.0000 0.84937  0.55160  0.50420  Biso   1.000  O
  O5       1.0000 0.34937  0.94840  0.00420  Biso   1.000  O
  O6       1.0000 0.65063  0.94840  0.49580  Biso   1.000  O
  O7       1.0000 0.84937  0.44840  0.00420  Biso   1.000  O
  O8       1.0000 0.15063  0.44840  0.49580  Biso   1.000  O
  N17      1.0000 0.75752  0.12970  0.06971  Biso   1.000  N
  N18      1.0000 0.24248  0.12970  0.43029  Biso   1.000  N
  N19      1.0000 0.25752  0.62970  0.06971  Biso   1.000  N
  N20      1.0000 0.74248  0.62970  0.43029  Biso   1.000  N
  N21      1.0000 0.24248  0.87030  0.93029  Biso   1.000  N
  N22      1.0000 0.75752  0.87030  0.56971  Biso   1.000  N
  N23      1.0000 0.74248  0.37030  0.93029  Biso   1.000  N
  N24      1.0000 0.25752  0.37030  0.56971  Biso   1.000  N
  H41      1.0000 0.79890  0.11640  0.08080  Biso   1.000  H
  H42      1.0000 0.20110  0.11640  0.41920  Biso   1.000  H
  H43      1.0000 0.29890  0.61640  0.08080  Biso   1.000  H
  H44      1.0000 0.70110  0.61640  0.41920  Biso   1.000  H
  H45      1.0000 0.20110  0.88360  0.91920  Biso   1.000  H
  H46      1.0000 0.79890  0.88360  0.58080  Biso   1.000  H
  H47      1.0000 0.70110  0.38360  0.91920  Biso   1.000  H
  H48      1.0000 0.29890  0.38360  0.58080  Biso   1.000  H
  C49      1.0000 0.74344  0.22900  0.11102  Biso   1.000  C
  C50      1.0000 0.25656  0.22900  0.38898  Biso   1.000  C
  C51      1.0000 0.24344  0.72900  0.11102  Biso   1.000  C
  C52      1.0000 0.75656  0.72900  0.38898  Biso   1.000  C
  C53      1.0000 0.25656  0.77100  0.88898  Biso   1.000  C
  C54      1.0000 0.74344  0.77100  0.61102  Biso   1.000  C
  C55      1.0000 0.75656  0.27100  0.88898  Biso   1.000  C
  C56      1.0000 0.24344  0.27100  0.61102  Biso   1.000  C
  C57      1.0000 0.79047  0.24580  0.18238  Biso   1.000  C
  C58      1.0000 0.20953  0.24580  0.31762  Biso   1.000  C
  C59      1.0000 0.29047  0.74580  0.18238  Biso   1.000  C
  C60      1.0000 0.70953  0.74580  0.31762  Biso   1.000  C
  C61      1.0000 0.20953  0.75420  0.81762  Biso   1.000  C
  C62      1.0000 0.79047  0.75420  0.68238  Biso   1.000  C
  C63      1.0000 0.70953  0.25420  0.81762  Biso   1.000  C
  C64      1.0000 0.29047  0.25420  0.68238  Biso   1.000  C
  H49      1.0000 0.82880  0.18830  0.20240  Biso   1.000  H
  H50      1.0000 0.17120  0.18830  0.29760  Biso   1.000  H
  H51      1.0000 0.32880  0.68830  0.20240  Biso   1.000  H
  H52      1.0000 0.67120  0.68830  0.29760  Biso   1.000  H
  H53      1.0000 0.17120  0.81170  0.79760  Biso   1.000  H
  H54      1.0000 0.82880  0.81170  0.70240  Biso   1.000  H
  H55      1.0000 0.67120  0.31170  0.79760  Biso   1.000  H
  H56      1.0000 0.32880  0.31170  0.70240  Biso   1.000  H
  C65      1.0000 0.77974  0.34810  0.22312  Biso   1.000  C
  C66      1.0000 0.22026  0.34810  0.27688  Biso   1.000  C
  C67      1.0000 0.27974  0.84810  0.22312  Biso   1.000  C
  C68      1.0000 0.72026  0.84810  0.27688  Biso   1.000  C
  C69      1.0000 0.22026  0.65190  0.77688  Biso   1.000  C
  C70      1.0000 0.77974  0.65190  0.72312  Biso   1.000  C
  C71      1.0000 0.72026  0.15190  0.77688  Biso   1.000  C
  C72      1.0000 0.27974  0.15190  0.72312  Biso   1.000  C
  H57      1.0000 0.81040  0.35640  0.27120  Biso   1.000  H
  H58      1.0000 0.18960  0.35640  0.22880  Biso   1.000  H
  H59      1.0000 0.31040  0.85640  0.27120  Biso   1.000  H
  H60      1.0000 0.68960  0.85640  0.22880  Biso   1.000  H
  H61      1.0000 0.18960  0.64360  0.72880  Biso   1.000  H
  H62      1.0000 0.81040  0.64360  0.77120  Biso   1.000  H
  H63      1.0000 0.68960  0.14360  0.72880  Biso   1.000  H
  H64      1.0000 0.31040  0.14360  0.77120  Biso   1.000  H
  C73      1.0000 0.72444  0.43890  0.19427  Biso   1.000  C
  C74      1.0000 0.27556  0.43890  0.30573  Biso   1.000  C
  C75      1.0000 0.22444  0.93890  0.19427  Biso   1.000  C
  C76      1.0000 0.77556  0.93890  0.30573  Biso   1.000  C
  C77      1.0000 0.27556  0.56110  0.80573  Biso   1.000  C
  C78      1.0000 0.72444  0.56110  0.69427  Biso   1.000  C
  C79      1.0000 0.77556  0.06110  0.80573  Biso   1.000  C
  C80      1.0000 0.22444  0.06110  0.69427  Biso   1.000  C
  H65      1.0000 0.71850  0.50950  0.22210  Biso   1.000  H
  H66      1.0000 0.28150  0.50950  0.27790  Biso   1.000  H
  H67      1.0000 0.21850  0.00950  0.22210  Biso   1.000  H
  H68      1.0000 0.78150  0.00950  0.27790  Biso   1.000  H
  H69      1.0000 0.28150  0.49050  0.77790  Biso   1.000  H
  H70      1.0000 0.71850  0.49050  0.72210  Biso   1.000  H
  H71      1.0000 0.78150  0.99050  0.77790  Biso   1.000  H
  H72      1.0000 0.21850  0.99050  0.72210  Biso   1.000  H
  C81      1.0000 0.67758  0.42200  0.12229  Biso   1.000  C
  C82      1.0000 0.32242  0.42200  0.37771  Biso   1.000  C
  C83      1.0000 0.17758  0.92200  0.12229  Biso   1.000  C
  C84      1.0000 0.82242  0.92200  0.37771  Biso   1.000  C
  C85      1.0000 0.32242  0.57800  0.87771  Biso   1.000  C
  C86      1.0000 0.67758  0.57800  0.62229  Biso   1.000  C
  C87      1.0000 0.82242  0.07800  0.87771  Biso   1.000  C
  C88      1.0000 0.17758  0.07800  0.62229  Biso   1.000  C
  C89      1.0000 0.68696  0.31710  0.08163  Biso   1.000  C
  C90      1.0000 0.31304  0.31710  0.41837  Biso   1.000  C
  C91      1.0000 0.18696  0.81710  0.08163  Biso   1.000  C
  C92      1.0000 0.81304  0.81710  0.41837  Biso   1.000  C
  C93      1.0000 0.31304  0.68290  0.91837  Biso   1.000  C
  C94      1.0000 0.68696  0.68290  0.58163  Biso   1.000  C
  C95      1.0000 0.81304  0.18290  0.91837  Biso   1.000  C
  C96      1.0000 0.18696  0.18290  0.58163  Biso   1.000  C
  H73      1.0000 0.65520  0.30520  0.03410  Biso   1.000  H
  H74      1.0000 0.34480  0.30520  0.46590  Biso   1.000  H
  H75      1.0000 0.15520  0.80520  0.03410  Biso   1.000  H
  H76      1.0000 0.84480  0.80520  0.46590  Biso   1.000  H
  H77      1.0000 0.34480  0.69480  0.96590  Biso   1.000  H
  H78      1.0000 0.65520  0.69480  0.53410  Biso   1.000  H
  H79      1.0000 0.84480  0.19480  0.96590  Biso   1.000  H
  H80      1.0000 0.15520  0.19480  0.53410  Biso   1.000  H
  N25      1.0000 0.62116  0.51450  0.09326  Biso   1.000  N
  N26      1.0000 0.37884  0.51450  0.40674  Biso   1.000  N
  N27      1.0000 0.12116  0.01450  0.09326  Biso   1.000  N
  N28      1.0000 0.87884  0.01450  0.40674  Biso   1.000  N
  N29      1.0000 0.37884  0.48550  0.90674  Biso   1.000  N
  N30      1.0000 0.62116  0.48550  0.59326  Biso   1.000  N
  N31      1.0000 0.87884  0.98550  0.90674  Biso   1.000  N
  N32      1.0000 0.12116  0.98550  0.59326  Biso   1.000  N
  H81      1.0000 0.60170  0.53280  0.11870  Biso   1.000  H
  H82      1.0000 0.39830  0.53280  0.38130  Biso   1.000  H
  H83      1.0000 0.10170  0.03280  0.11870  Biso   1.000  H
  H84      1.0000 0.89830  0.03280  0.38130  Biso   1.000  H
  H85      1.0000 0.39830  0.46720  0.88130  Biso   1.000  H
  H86      1.0000 0.60170  0.46720  0.61870  Biso   1.000  H
  H87      1.0000 0.89830  0.96720  0.88130  Biso   1.000  H
  H88      1.0000 0.10170  0.96720  0.61870  Biso   1.000  H
  C97      1.0000 0.59524  0.57710  0.02700  Biso   1.000  C
  C98      1.0000 0.40476  0.57710  0.47300  Biso   1.000  C
  C99      1.0000 0.09524  0.07710  0.02700  Biso   1.000  C
  C100     1.0000 0.90476  0.07710  0.47300  Biso   1.000  C
  C101     1.0000 0.40476  0.42290  0.97300  Biso   1.000  C
  C102     1.0000 0.59524  0.42290  0.52700  Biso   1.000  C
  C103     1.0000 0.90476  0.92290  0.97300  Biso   1.000  C
  C104     1.0000 0.09524  0.92290  0.52700  Biso   1.000  C
  O9       1.0000 0.61855  0.55880  0.98580  Biso   1.000  O
  O10      1.0000 0.38145  0.55880  0.51420  Biso   1.000  O
  O11      1.0000 0.11855  0.05880  0.98580  Biso   1.000  O
  O12      1.0000 0.88145  0.05880  0.51420  Biso   1.000  O
  O13      1.0000 0.38145  0.44120  0.01420  Biso   1.000  O
  O14      1.0000 0.61855  0.44120  0.48580  Biso   1.000  O
  O15      1.0000 0.88145  0.94120  0.01420  Biso   1.000  O
  O16      1.0000 0.11855  0.94120  0.48580  Biso   1.000  O
  N33      1.0000 0.54172  0.66550  0.01257  Biso   1.000  N
  N34      1.0000 0.45828  0.66550  0.48743  Biso   1.000  N
  N35      1.0000 0.04172  0.16550  0.01257  Biso   1.000  N
  N36      1.0000 0.95828  0.16550  0.48743  Biso   1.000  N
  N37      1.0000 0.45828  0.33450  0.98743  Biso   1.000  N
  N38      1.0000 0.54172  0.33450  0.51257  Biso   1.000  N
  N39      1.0000 0.95828  0.83450  0.98743  Biso   1.000  N
  N40      1.0000 0.04172  0.83450  0.51257  Biso   1.000  N
  H89      1.0000 0.52790  0.66780  0.04390  Biso   1.000  H
  H90      1.0000 0.47210  0.66780  0.45610  Biso   1.000  H
  H91      1.0000 0.02790  0.16780  0.04390  Biso   1.000  H
  H92      1.0000 0.97210  0.16780  0.45610  Biso   1.000  H
  H93      1.0000 0.47210  0.33220  0.95610  Biso   1.000  H
  H94      1.0000 0.52790  0.33220  0.54390  Biso   1.000  H
  H95      1.0000 0.97210  0.83220  0.95610  Biso   1.000  H
  H96      1.0000 0.02790  0.83220  0.54390  Biso   1.000  H
  C105     1.0000 0.50705  0.75240  0.95230  Biso   1.000  C
  C106     1.0000 0.49295  0.75240  0.54770  Biso   1.000  C
  C107     1.0000 0.00705  0.25240  0.95230  Biso   1.000  C
  C108     1.0000 0.99295  0.25240  0.54770  Biso   1.000  C
  C109     1.0000 0.49295  0.24760  0.04770  Biso   1.000  C
  C110     1.0000 0.50705  0.24760  0.45230  Biso   1.000  C
  C111     1.0000 0.99295  0.74760  0.04770  Biso   1.000  C
  C112     1.0000 0.00705  0.74760  0.45230  Biso   1.000  C
  C113     1.0000 0.45989  0.84950  0.95229  Biso   1.000  C
  C114     1.0000 0.54011  0.84950  0.54771  Biso   1.000  C
  C115     1.0000 0.95989  0.34950  0.95229  Biso   1.000  C
  C116     1.0000 0.04011  0.34950  0.54771  Biso   1.000  C
  C117     1.0000 0.54011  0.15050  0.04771  Biso   1.000  C
  C118     1.0000 0.45989  0.15050  0.45229  Biso   1.000  C
  C119     1.0000 0.04011  0.65050  0.04771  Biso   1.000  C
  C120     1.0000 0.95989  0.65050  0.45229  Biso   1.000  C
  H97      1.0000 0.45190  0.85440  0.99120  Biso   1.000  H
  H98      1.0000 0.54810  0.85440  0.50880  Biso   1.000  H
  H99      1.0000 0.95190  0.35440  0.99120  Biso   1.000  H
  H100     1.0000 0.04810  0.35440  0.50880  Biso   1.000  H
  H101     1.0000 0.54810  0.14560  0.00880  Biso   1.000  H
  H102     1.0000 0.45190  0.14560  0.49120  Biso   1.000  H
  H103     1.0000 0.04810  0.64560  0.00880  Biso   1.000  H
  H104     1.0000 0.95190  0.64560  0.49120  Biso   1.000  H
  C121     1.0000 0.42532  0.93820  0.89450  Biso   1.000  C
  C122     1.0000 0.57468  0.93820  0.60550  Biso   1.000  C
  C123     1.0000 0.92532  0.43820  0.89450  Biso   1.000  C
  C124     1.0000 0.07468  0.43820  0.60550  Biso   1.000  C
  C125     1.0000 0.57468  0.06180  0.10550  Biso   1.000  C
  C126     1.0000 0.42532  0.06180  0.39450  Biso   1.000  C
  C127     1.0000 0.07468  0.56180  0.10550  Biso   1.000  C
  C128     1.0000 0.92532  0.56180  0.39450  Biso   1.000  C
  H105     1.0000 0.39320  0.00250  0.89360  Biso   1.000  H
  H106     1.0000 0.60680  0.00250  0.60640  Biso   1.000  H
  H107     1.0000 0.89320  0.50250  0.89360  Biso   1.000  H
  H108     1.0000 0.10680  0.50250  0.60640  Biso   1.000  H
  H109     1.0000 0.60680  0.99750  0.10640  Biso   1.000  H
  H110     1.0000 0.39320  0.99750  0.39360  Biso   1.000  H
  H111     1.0000 0.10680  0.49750  0.10640  Biso   1.000  H
  H112     1.0000 0.89320  0.49750  0.39360  Biso   1.000  H
  C129     1.0000 0.43882  0.93080  0.83727  Biso   1.000  C
  C130     1.0000 0.56118  0.93080  0.66273  Biso   1.000  C
  C131     1.0000 0.93882  0.43080  0.83727  Biso   1.000  C
  C132     1.0000 0.06118  0.43080  0.66273  Biso   1.000  C
  C133     1.0000 0.56118  0.06920  0.16273  Biso   1.000  C
  C134     1.0000 0.43882  0.06920  0.33727  Biso   1.000  C
  C135     1.0000 0.06118  0.56920  0.16273  Biso   1.000  C
  C136     1.0000 0.93882  0.56920  0.33727  Biso   1.000  C
  H113     1.0000 0.41620  0.99290  0.79870  Biso   1.000  H
  H114     1.0000 0.58380  0.99290  0.70130  Biso   1.000  H
  H115     1.0000 0.91620  0.49290  0.79870  Biso   1.000  H
  H116     1.0000 0.08380  0.49290  0.70130  Biso   1.000  H
  H117     1.0000 0.58380  0.00710  0.20130  Biso   1.000  H
  H118     1.0000 0.41620  0.00710  0.29870  Biso   1.000  H
  H119     1.0000 0.08380  0.50710  0.20130  Biso   1.000  H
  H120     1.0000 0.91620  0.50710  0.29870  Biso   1.000  H
  N41      1.0000 0.48356  0.83640  0.83610  Biso   1.000  N
  N42      1.0000 0.51644  0.83640  0.66390  Biso   1.000  N
  N43      1.0000 0.98356  0.33640  0.83610  Biso   1.000  N
  N44      1.0000 0.01644  0.33640  0.66390  Biso   1.000  N
  N45      1.0000 0.51644  0.16360  0.16390  Biso   1.000  N
  N46      1.0000 0.48356  0.16360  0.33610  Biso   1.000  N
  N47      1.0000 0.01644  0.66360  0.16390  Biso   1.000  N
  N48      1.0000 0.98356  0.66360  0.33610  Biso   1.000  N
  C137     1.0000 0.51682  0.74810  0.89203  Biso   1.000  C
  C138     1.0000 0.48318  0.74810  0.60797  Biso   1.000  C
  C139     1.0000 0.01682  0.24810  0.89203  Biso   1.000  C
  C140     1.0000 0.98318  0.24810  0.60797  Biso   1.000  C
  C141     1.0000 0.48318  0.25190  0.10797  Biso   1.000  C
  C142     1.0000 0.51682  0.25190  0.39203  Biso   1.000  C
  C143     1.0000 0.98318  0.75190  0.10797  Biso   1.000  C
  C144     1.0000 0.01682  0.75190  0.39203  Biso   1.000  C
  H121     1.0000 0.54730  0.68190  0.89080  Biso   1.000  H
  H122     1.0000 0.45270  0.68190  0.60920  Biso   1.000  H
  H123     1.0000 0.04730  0.18190  0.89080  Biso   1.000  H
  H124     1.0000 0.95270  0.18190  0.60920  Biso   1.000  H
  H125     1.0000 0.45270  0.31810  0.10920  Biso   1.000  H
  H126     1.0000 0.54730  0.31810  0.39080  Biso   1.000  H
  H127     1.0000 0.95270  0.81810  0.10920  Biso   1.000  H
  H128     1.0000 0.04730  0.81810  0.39080  Biso   1.000  H
  O17      1.0000 0.50000  0.56470  0.75000  Biso   1.000  O
  O18      1.0000 0.00000  0.06470  0.75000  Biso   1.000  O
  O19      1.0000 0.50000  0.43530  0.25000  Biso   1.000  O
  O20      1.0000 0.00000  0.93530  0.25000  Biso   1.000  O
  H129     1.0000 0.50570  0.53500  0.71700  Biso   1.000  H
  H130     1.0000 0.49430  0.53500  0.78300  Biso   1.000  H
  H131     1.0000 0.00570  0.03500  0.71700  Biso   1.000  H
  H132     1.0000 0.99430  0.03500  0.78300  Biso   1.000  H
  H133     1.0000 0.49430  0.46500  0.28300  Biso   1.000  H
  H134     1.0000 0.50570  0.46500  0.21700  Biso   1.000  H
  H135     1.0000 0.99430  0.96500  0.28300  Biso   1.000  H
  H136     1.0000 0.00570  0.96500  0.21700  Biso   1.000  H
  O21      1.0000 0.50000  0.09640  0.75000  Biso   1.000  O
  O22      1.0000 0.00000  0.59640  0.75000  Biso   1.000  O
  O23      1.0000 0.50000  0.90360  0.25000  Biso   1.000  O
  O24      1.0000 0.00000  0.40360  0.25000  Biso   1.000  O
  Cl1      1.0000 0.54512  0.32990  0.66641  Biso   1.000  Cl
  Cl2      1.0000 0.45488  0.32990  0.83359  Biso   1.000  Cl
  Cl3      1.0000 0.04512  0.82990  0.66641  Biso   1.000  Cl
  Cl4      1.0000 0.95488  0.82990  0.83359  Biso   1.000  Cl
  Cl5      1.0000 0.45488  0.67010  0.33359  Biso   1.000  Cl
  Cl6      1.0000 0.54512  0.67010  0.16641  Biso   1.000  Cl
  Cl7      1.0000 0.95488  0.17010  0.33359  Biso   1.000  Cl
  Cl8      1.0000 0.04512  0.17010  0.16641  Biso   1.000  Cl
  O25      1.0000 0.10160  0.09810  0.37050  Biso   1.000  O
  O26      1.0000 0.89840  0.09810  0.12950  Biso   1.000  O
  O27      1.0000 0.60160  0.59810  0.37050  Biso   1.000  O
  O28      1.0000 0.39840  0.59810  0.12950  Biso   1.000  O
  O29      1.0000 0.89840  0.90190  0.62950  Biso   1.000  O
  O30      1.0000 0.10160  0.90190  0.87050  Biso   1.000  O
  O31      1.0000 0.39840  0.40190  0.62950  Biso   1.000  O
  O32      1.0000 0.60160  0.40190  0.87050  Biso   1.000  O
  O33      1.0000 0.10730  0.20820  0.38710  Biso   1.000  O
  O34      1.0000 0.89270  0.20820  0.11290  Biso   1.000  O
  O35      1.0000 0.60730  0.70820  0.38710  Biso   1.000  O
  O36      1.0000 0.39270  0.70820  0.11290  Biso   1.000  O
  O37      1.0000 0.89270  0.79180  0.61290  Biso   1.000  O
  O38      1.0000 0.10730  0.79180  0.88710  Biso   1.000  O
  O39      1.0000 0.39270  0.29180  0.61290  Biso   1.000  O
  O40      1.0000 0.60730  0.29180  0.88710  Biso   1.000  O
