data_image0
_cell_length_a       22.625
_cell_length_b       9.293
_cell_length_c       21.596
_cell_angle_alpha    90
_cell_angle_beta     118.573
_cell_angle_gamma    90

_symmetry_space_group_name_H-M    "P 1"
_symmetry_int_tables_number       1

loop_
  _symmetry_equiv_pos_as_xyz
  'x, y, z'

loop_
  _atom_site_label
  _atom_site_occupancy
  _atom_site_fract_x
  _atom_site_fract_y
  _atom_site_fract_z
  _atom_site_thermal_displace_type
  _atom_site_B_iso_or_equiv
  _atom_site_type_symbol
  Cu1      1.0000 0.50000  0.17100  0.25000  Biso   1.000  Cu
  Cu2      1.0000 0.00000  0.67100  0.25000  Biso   1.000  Cu
  Cu3      1.0000 0.50000  0.82900  0.75000  Biso   1.000  Cu
  Cu4      1.0000 0.00000  0.32900  0.75000  Biso   1.000  Cu
  Br1      1.0000 0.45571  0.32903  0.83571  Biso   1.000  Br
  Br2      1.0000 0.54429  0.32903  0.66429  Biso   1.000  Br
  Br3      1.0000 0.95571  0.82903  0.83571  Biso   1.000  Br
  Br4      1.0000 0.04429  0.82903  0.66429  Biso   1.000  Br
  Br5      1.0000 0.54429  0.67097  0.16429  Biso   1.000  Br
  Br6      1.0000 0.45571  0.67097  0.33571  Biso   1.000  Br
  Br7      1.0000 0.04429  0.17097  0.16429  Biso   1.000  Br
  Br8      1.0000 0.95571  0.17097  0.33571  Biso   1.000  Br
  N1       1.0000 0.60120  0.18580  0.31380  Biso   1.000  N
  N2       1.0000 0.39880  0.18580  0.18620  Biso   1.000  N
  N3       1.0000 0.10120  0.68580  0.31380  Biso   1.000  N
  N4       1.0000 0.89880  0.68580  0.18620  Biso   1.000  N
  N5       1.0000 0.39880  0.81420  0.68620  Biso   1.000  N
  N6       1.0000 0.60120  0.81420  0.81380  Biso   1.000  N
  N7       1.0000 0.89880  0.31420  0.68620  Biso   1.000  N
  N8       1.0000 0.10120  0.31420  0.81380  Biso   1.000  N
  C1       1.0000 0.63780  0.28270  0.30100  Biso   1.000  C
  C2       1.0000 0.36220  0.28270  0.19900  Biso   1.000  C
  C3       1.0000 0.13780  0.78270  0.30100  Biso   1.000  C
  C4       1.0000 0.86220  0.78270  0.19900  Biso   1.000  C
  C5       1.0000 0.36220  0.71730  0.69900  Biso   1.000  C
  C6       1.0000 0.63780  0.71730  0.80100  Biso   1.000  C
  C7       1.0000 0.86220  0.21730  0.69900  Biso   1.000  C
  C8       1.0000 0.13780  0.21730  0.80100  Biso   1.000  C
  H1       1.0000 0.61650  0.33750  0.26010  Biso   1.000  H
  H2       1.0000 0.38350  0.33750  0.23990  Biso   1.000  H
  H3       1.0000 0.11650  0.83750  0.26010  Biso   1.000  H
  H4       1.0000 0.88350  0.83750  0.23990  Biso   1.000  H
  H5       1.0000 0.38350  0.66250  0.73990  Biso   1.000  H
  H6       1.0000 0.61650  0.66250  0.76010  Biso   1.000  H
  H7       1.0000 0.88350  0.16250  0.73990  Biso   1.000  H
  H8       1.0000 0.11650  0.16250  0.76010  Biso   1.000  H
  C9       1.0000 0.70560  0.30580  0.34530  Biso   1.000  C
  C10      1.0000 0.29440  0.30580  0.15470  Biso   1.000  C
  C11      1.0000 0.20560  0.80580  0.34530  Biso   1.000  C
  C12      1.0000 0.79440  0.80580  0.15470  Biso   1.000  C
  C13      1.0000 0.29440  0.69420  0.65470  Biso   1.000  C
  C14      1.0000 0.70560  0.69420  0.84530  Biso   1.000  C
  C15      1.0000 0.79440  0.19420  0.65470  Biso   1.000  C
  C16      1.0000 0.20560  0.19420  0.84530  Biso   1.000  C
  H9       1.0000 0.72870  0.37760  0.33570  Biso   1.000  H
  H10      1.0000 0.27130  0.37760  0.16430  Biso   1.000  H
  H11      1.0000 0.22870  0.87760  0.33570  Biso   1.000  H
  H12      1.0000 0.77130  0.87760  0.16430  Biso   1.000  H
  H13      1.0000 0.27130  0.62240  0.66430  Biso   1.000  H
  H14      1.0000 0.72870  0.62240  0.83570  Biso   1.000  H
  H15      1.0000 0.77130  0.12240  0.66430  Biso   1.000  H
  H16      1.0000 0.22870  0.12240  0.83570  Biso   1.000  H
  C17      1.0000 0.73740  0.22150  0.40290  Biso   1.000  C
  C18      1.0000 0.26260  0.22150  0.09710  Biso   1.000  C
  C19      1.0000 0.23740  0.72150  0.40290  Biso   1.000  C
  C20      1.0000 0.76260  0.72150  0.09710  Biso   1.000  C
  C21      1.0000 0.26260  0.77850  0.59710  Biso   1.000  C
  C22      1.0000 0.73740  0.77850  0.90290  Biso   1.000  C
  C23      1.0000 0.76260  0.27850  0.59710  Biso   1.000  C
  C24      1.0000 0.23740  0.27850  0.90290  Biso   1.000  C
  H17      1.0000 0.78320  0.23390  0.43300  Biso   1.000  H
  H18      1.0000 0.21680  0.23390  0.06700  Biso   1.000  H
  H19      1.0000 0.28320  0.73390  0.43300  Biso   1.000  H
  H20      1.0000 0.71680  0.73390  0.06700  Biso   1.000  H
  H21      1.0000 0.21680  0.76610  0.56700  Biso   1.000  H
  H22      1.0000 0.78320  0.76610  0.93300  Biso   1.000  H
  H23      1.0000 0.71680  0.26610  0.56700  Biso   1.000  H
  H24      1.0000 0.28320  0.26610  0.93300  Biso   1.000  H
  C25      1.0000 0.70190  0.11560  0.41740  Biso   1.000  C
  C26      1.0000 0.29810  0.11560  0.08260  Biso   1.000  C
  C27      1.0000 0.20190  0.61560  0.41740  Biso   1.000  C
  C28      1.0000 0.79810  0.61560  0.08260  Biso   1.000  C
  C29      1.0000 0.29810  0.88440  0.58260  Biso   1.000  C
  C30      1.0000 0.70190  0.88440  0.91740  Biso   1.000  C
  C31      1.0000 0.79810  0.38440  0.58260  Biso   1.000  C
  C32      1.0000 0.20190  0.38440  0.91740  Biso   1.000  C
  C33      1.0000 0.63220  0.10240  0.36950  Biso   1.000  C
  C34      1.0000 0.36780  0.10240  0.13050  Biso   1.000  C
  C35      1.0000 0.13220  0.60240  0.36950  Biso   1.000  C
  C36      1.0000 0.86780  0.60240  0.13050  Biso   1.000  C
  C37      1.0000 0.36780  0.89760  0.63050  Biso   1.000  C
  C38      1.0000 0.63220  0.89760  0.86950  Biso   1.000  C
  C39      1.0000 0.86780  0.39760  0.63050  Biso   1.000  C
  C40      1.0000 0.13220  0.39760  0.86950  Biso   1.000  C
  H25      1.0000 0.60750  0.03230  0.37780  Biso   1.000  H
  H26      1.0000 0.39250  0.03230  0.12220  Biso   1.000  H
  H27      1.0000 0.10750  0.53230  0.37780  Biso   1.000  H
  H28      1.0000 0.89250  0.53230  0.12220  Biso   1.000  H
  H29      1.0000 0.39250  0.96770  0.62220  Biso   1.000  H
  H30      1.0000 0.60750  0.96770  0.87780  Biso   1.000  H
  H31      1.0000 0.89250  0.46770  0.62220  Biso   1.000  H
  H32      1.0000 0.10750  0.46770  0.87780  Biso   1.000  H
  N9       1.0000 0.73690  0.02770  0.47740  Biso   1.000  N
  N10      1.0000 0.26310  0.02770  0.02260  Biso   1.000  N
  N11      1.0000 0.23690  0.52770  0.47740  Biso   1.000  N
  N12      1.0000 0.76310  0.52770  0.02260  Biso   1.000  N
  N13      1.0000 0.26310  0.97230  0.52260  Biso   1.000  N
  N14      1.0000 0.73690  0.97230  0.97740  Biso   1.000  N
  N15      1.0000 0.76310  0.47230  0.52260  Biso   1.000  N
  N16      1.0000 0.23690  0.47230  0.97740  Biso   1.000  N
  H33      1.0000 0.77990  0.02360  0.49500  Biso   1.000  H
  H34      1.0000 0.22010  0.02360  0.00500  Biso   1.000  H
  H35      1.0000 0.27990  0.52360  0.49500  Biso   1.000  H
  H36      1.0000 0.72010  0.52360  0.00500  Biso   1.000  H
  H37      1.0000 0.22010  0.97640  0.50500  Biso   1.000  H
  H38      1.0000 0.77990  0.97640  0.99500  Biso   1.000  H
  H39      1.0000 0.72010  0.47640  0.50500  Biso   1.000  H
  H40      1.0000 0.27990  0.47640  0.99500  Biso   1.000  H
  C41      1.0000 0.70930  0.94870  0.51020  Biso   1.000  C
  C42      1.0000 0.29070  0.94870  0.98980  Biso   1.000  C
  C43      1.0000 0.20930  0.44870  0.51020  Biso   1.000  C
  C44      1.0000 0.79070  0.44870  0.98980  Biso   1.000  C
  C45      1.0000 0.29070  0.05130  0.48980  Biso   1.000  C
  C46      1.0000 0.70930  0.05130  0.01020  Biso   1.000  C
  C47      1.0000 0.79070  0.55130  0.48980  Biso   1.000  C
  C48      1.0000 0.20930  0.55130  0.01020  Biso   1.000  C
  O1       1.0000 0.64950  0.94390  0.49130  Biso   1.000  O
  O2       1.0000 0.35050  0.94390  0.00870  Biso   1.000  O
  O3       1.0000 0.14950  0.44390  0.49130  Biso   1.000  O
  O4       1.0000 0.85050  0.44390  0.00870  Biso   1.000  O
  O5       1.0000 0.35050  0.05610  0.50870  Biso   1.000  O
  O6       1.0000 0.64950  0.05610  0.99130  Biso   1.000  O
  O7       1.0000 0.85050  0.55610  0.50870  Biso   1.000  O
  O8       1.0000 0.14950  0.55610  0.99130  Biso   1.000  O
  N17      1.0000 0.75640  0.87420  0.56740  Biso   1.000  N
  N18      1.0000 0.24360  0.87420  0.93260  Biso   1.000  N
  N19      1.0000 0.25640  0.37420  0.56740  Biso   1.000  N
  N20      1.0000 0.74360  0.37420  0.93260  Biso   1.000  N
  N21      1.0000 0.24360  0.12580  0.43260  Biso   1.000  N
  N22      1.0000 0.75640  0.12580  0.06740  Biso   1.000  N
  N23      1.0000 0.74360  0.62580  0.43260  Biso   1.000  N
  N24      1.0000 0.25640  0.62580  0.06740  Biso   1.000  N
  H41      1.0000 0.79800  0.88950  0.57940  Biso   1.000  H
  H42      1.0000 0.20200  0.88950  0.92060  Biso   1.000  H
  H43      1.0000 0.29800  0.38950  0.57940  Biso   1.000  H
  H44      1.0000 0.70200  0.38950  0.92060  Biso   1.000  H
  H45      1.0000 0.20200  0.11050  0.42060  Biso   1.000  H
  H46      1.0000 0.79800  0.11050  0.07940  Biso   1.000  H
  H47      1.0000 0.70200  0.61050  0.42060  Biso   1.000  H
  H48      1.0000 0.29800  0.61050  0.07940  Biso   1.000  H
  C49      1.0000 0.74270  0.77450  0.60820  Biso   1.000  C
  C50      1.0000 0.25730  0.77450  0.89180  Biso   1.000  C
  C51      1.0000 0.24270  0.27450  0.60820  Biso   1.000  C
  C52      1.0000 0.75730  0.27450  0.89180  Biso   1.000  C
  C53      1.0000 0.25730  0.22550  0.39180  Biso   1.000  C
  C54      1.0000 0.74270  0.22550  0.10820  Biso   1.000  C
  C55      1.0000 0.75730  0.72550  0.39180  Biso   1.000  C
  C56      1.0000 0.24270  0.72550  0.10820  Biso   1.000  C
  C57      1.0000 0.78890  0.75940  0.67960  Biso   1.000  C
  C58      1.0000 0.21110  0.75940  0.82040  Biso   1.000  C
  C59      1.0000 0.28890  0.25940  0.67960  Biso   1.000  C
  C60      1.0000 0.71110  0.25940  0.82040  Biso   1.000  C
  C61      1.0000 0.21110  0.24060  0.32040  Biso   1.000  C
  C62      1.0000 0.78890  0.24060  0.17960  Biso   1.000  C
  C63      1.0000 0.71110  0.74060  0.32040  Biso   1.000  C
  C64      1.0000 0.28890  0.74060  0.17960  Biso   1.000  C
  H49      1.0000 0.82710  0.81710  0.70050  Biso   1.000  H
  H50      1.0000 0.17290  0.81710  0.79950  Biso   1.000  H
  H51      1.0000 0.32710  0.31710  0.70050  Biso   1.000  H
  H52      1.0000 0.67290  0.31710  0.79950  Biso   1.000  H
  H53      1.0000 0.17290  0.18290  0.29950  Biso   1.000  H
  H54      1.0000 0.82710  0.18290  0.20050  Biso   1.000  H
  H55      1.0000 0.67290  0.68290  0.29950  Biso   1.000  H
  H56      1.0000 0.32710  0.68290  0.20050  Biso   1.000  H
  C65      1.0000 0.77690  0.65770  0.71840  Biso   1.000  C
  C66      1.0000 0.22310  0.65770  0.78160  Biso   1.000  C
  C67      1.0000 0.27690  0.15770  0.71840  Biso   1.000  C
  C68      1.0000 0.72310  0.15770  0.78160  Biso   1.000  C
  C69      1.0000 0.22310  0.34230  0.28160  Biso   1.000  C
  C70      1.0000 0.77690  0.34230  0.21840  Biso   1.000  C
  C71      1.0000 0.72310  0.84230  0.28160  Biso   1.000  C
  C72      1.0000 0.27690  0.84230  0.21840  Biso   1.000  C
  H57      1.0000 0.80690  0.64860  0.76620  Biso   1.000  H
  H58      1.0000 0.19310  0.64860  0.73380  Biso   1.000  H
  H59      1.0000 0.30690  0.14860  0.76620  Biso   1.000  H
  H60      1.0000 0.69310  0.14860  0.73380  Biso   1.000  H
  H61      1.0000 0.19310  0.35140  0.23380  Biso   1.000  H
  H62      1.0000 0.80690  0.35140  0.26620  Biso   1.000  H
  H63      1.0000 0.69310  0.85140  0.23380  Biso   1.000  H
  H64      1.0000 0.30690  0.85140  0.26620  Biso   1.000  H
  C73      1.0000 0.72160  0.56910  0.68820  Biso   1.000  C
  C74      1.0000 0.27840  0.56910  0.81180  Biso   1.000  C
  C75      1.0000 0.22160  0.06910  0.68820  Biso   1.000  C
  C76      1.0000 0.77840  0.06910  0.81180  Biso   1.000  C
  C77      1.0000 0.27840  0.43090  0.31180  Biso   1.000  C
  C78      1.0000 0.72160  0.43090  0.18820  Biso   1.000  C
  C79      1.0000 0.77840  0.93090  0.31180  Biso   1.000  C
  C80      1.0000 0.22160  0.93090  0.18820  Biso   1.000  C
  H65      1.0000 0.71420  0.50010  0.71500  Biso   1.000  H
  H66      1.0000 0.28580  0.50010  0.78500  Biso   1.000  H
  H67      1.0000 0.21420  0.00010  0.71500  Biso   1.000  H
  H68      1.0000 0.78580  0.00010  0.78500  Biso   1.000  H
  H69      1.0000 0.28580  0.49990  0.28500  Biso   1.000  H
  H70      1.0000 0.71420  0.49990  0.21500  Biso   1.000  H
  H71      1.0000 0.78580  0.99990  0.28500  Biso   1.000  H
  H72      1.0000 0.21420  0.99990  0.21500  Biso   1.000  H
  C81      1.0000 0.67700  0.58510  0.61660  Biso   1.000  C
  C82      1.0000 0.32300  0.58510  0.88340  Biso   1.000  C
  C83      1.0000 0.17700  0.08510  0.61660  Biso   1.000  C
  C84      1.0000 0.82300  0.08510  0.88340  Biso   1.000  C
  C85      1.0000 0.32300  0.41490  0.38340  Biso   1.000  C
  C86      1.0000 0.67700  0.41490  0.11660  Biso   1.000  C
  C87      1.0000 0.82300  0.91490  0.38340  Biso   1.000  C
  C88      1.0000 0.17700  0.91490  0.11660  Biso   1.000  C
  C89      1.0000 0.68620  0.68790  0.57670  Biso   1.000  C
  C90      1.0000 0.31380  0.68790  0.92330  Biso   1.000  C
  C91      1.0000 0.18620  0.18790  0.57670  Biso   1.000  C
  C92      1.0000 0.81380  0.18790  0.92330  Biso   1.000  C
  C93      1.0000 0.31380  0.31210  0.42330  Biso   1.000  C
  C94      1.0000 0.68620  0.31210  0.07670  Biso   1.000  C
  C95      1.0000 0.81380  0.81210  0.42330  Biso   1.000  C
  C96      1.0000 0.18620  0.81210  0.07670  Biso   1.000  C
  H73      1.0000 0.65510  0.69930  0.52930  Biso   1.000  H
  H74      1.0000 0.34490  0.69930  0.97070  Biso   1.000  H
  H75      1.0000 0.15510  0.19930  0.52930  Biso   1.000  H
  H76      1.0000 0.84490  0.19930  0.97070  Biso   1.000  H
  H77      1.0000 0.34490  0.30070  0.47070  Biso   1.000  H
  H78      1.0000 0.65510  0.30070  0.02930  Biso   1.000  H
  H79      1.0000 0.84490  0.80070  0.47070  Biso   1.000  H
  H80      1.0000 0.15510  0.80070  0.02930  Biso   1.000  H
  N25      1.0000 0.62060  0.48940  0.58660  Biso   1.000  N
  N26      1.0000 0.37940  0.48940  0.91340  Biso   1.000  N
  N27      1.0000 0.12060  0.98940  0.58660  Biso   1.000  N
  N28      1.0000 0.87940  0.98940  0.91340  Biso   1.000  N
  N29      1.0000 0.37940  0.51060  0.41340  Biso   1.000  N
  N30      1.0000 0.62060  0.51060  0.08660  Biso   1.000  N
  N31      1.0000 0.87940  0.01060  0.41340  Biso   1.000  N
  N32      1.0000 0.12060  0.01060  0.08660  Biso   1.000  N
  H81      1.0000 0.60130  0.47080  0.61160  Biso   1.000  H
  H82      1.0000 0.39870  0.47080  0.88840  Biso   1.000  H
  H83      1.0000 0.10130  0.97080  0.61160  Biso   1.000  H
  H84      1.0000 0.89870  0.97080  0.88840  Biso   1.000  H
  H85      1.0000 0.39870  0.52920  0.38840  Biso   1.000  H
  H86      1.0000 0.60130  0.52920  0.11160  Biso   1.000  H
  H87      1.0000 0.89870  0.02920  0.38840  Biso   1.000  H
  H88      1.0000 0.10130  0.02920  0.11160  Biso   1.000  H
  C97      1.0000 0.59490  0.42540  0.52260  Biso   1.000  C
  C98      1.0000 0.40510  0.42540  0.97740  Biso   1.000  C
  C99      1.0000 0.09490  0.92540  0.52260  Biso   1.000  C
  C100     1.0000 0.90510  0.92540  0.97740  Biso   1.000  C
  C101     1.0000 0.40510  0.57460  0.47740  Biso   1.000  C
  C102     1.0000 0.59490  0.57460  0.02260  Biso   1.000  C
  C103     1.0000 0.90510  0.07460  0.47740  Biso   1.000  C
  C104     1.0000 0.09490  0.07460  0.02260  Biso   1.000  C
  O9       1.0000 0.61880  0.44200  0.48170  Biso   1.000  O
  O10      1.0000 0.38120  0.44200  0.01830  Biso   1.000  O
  O11      1.0000 0.11880  0.94200  0.48170  Biso   1.000  O
  O12      1.0000 0.88120  0.94200  0.01830  Biso   1.000  O
  O13      1.0000 0.38120  0.55800  0.51830  Biso   1.000  O
  O14      1.0000 0.61880  0.55800  0.98170  Biso   1.000  O
  O15      1.0000 0.88120  0.05800  0.51830  Biso   1.000  O
  O16      1.0000 0.11880  0.05800  0.98170  Biso   1.000  O
  N33      1.0000 0.54180  0.33830  0.50740  Biso   1.000  N
  N34      1.0000 0.45820  0.33830  0.99260  Biso   1.000  N
  N35      1.0000 0.04180  0.83830  0.50740  Biso   1.000  N
  N36      1.0000 0.95820  0.83830  0.99260  Biso   1.000  N
  N37      1.0000 0.45820  0.66170  0.49260  Biso   1.000  N
  N38      1.0000 0.54180  0.66170  0.00740  Biso   1.000  N
  N39      1.0000 0.95820  0.16170  0.49260  Biso   1.000  N
  N40      1.0000 0.04180  0.16170  0.00740  Biso   1.000  N
  H89      1.0000 0.52720  0.33790  0.53760  Biso   1.000  H
  H90      1.0000 0.47280  0.33790  0.96240  Biso   1.000  H
  H91      1.0000 0.02720  0.83790  0.53760  Biso   1.000  H
  H92      1.0000 0.97280  0.83790  0.96240  Biso   1.000  H
  H93      1.0000 0.47280  0.66210  0.46240  Biso   1.000  H
  H94      1.0000 0.52720  0.66210  0.03760  Biso   1.000  H
  H95      1.0000 0.97280  0.16210  0.46240  Biso   1.000  H
  H96      1.0000 0.02720  0.16210  0.03760  Biso   1.000  H
  C105     1.0000 0.50780  0.24910  0.44880  Biso   1.000  C
  C106     1.0000 0.49220  0.24910  0.05120  Biso   1.000  C
  C107     1.0000 0.00780  0.74910  0.44880  Biso   1.000  C
  C108     1.0000 0.99220  0.74910  0.05120  Biso   1.000  C
  C109     1.0000 0.49220  0.75090  0.55120  Biso   1.000  C
  C110     1.0000 0.50780  0.75090  0.94880  Biso   1.000  C
  C111     1.0000 0.99220  0.25090  0.55120  Biso   1.000  C
  C112     1.0000 0.00780  0.25090  0.94880  Biso   1.000  C
  C113     1.0000 0.46020  0.15470  0.44910  Biso   1.000  C
  C114     1.0000 0.53980  0.15470  0.05090  Biso   1.000  C
  C115     1.0000 0.96020  0.65470  0.44910  Biso   1.000  C
  C116     1.0000 0.03980  0.65470  0.05090  Biso   1.000  C
  C117     1.0000 0.53980  0.84530  0.55090  Biso   1.000  C
  C118     1.0000 0.46020  0.84530  0.94910  Biso   1.000  C
  C119     1.0000 0.03980  0.34530  0.55090  Biso   1.000  C
  C120     1.0000 0.96020  0.34530  0.94910  Biso   1.000  C
  H97      1.0000 0.45140  0.15260  0.48700  Biso   1.000  H
  H98      1.0000 0.54860  0.15260  0.01300  Biso   1.000  H
  H99      1.0000 0.95140  0.65260  0.48700  Biso   1.000  H
  H100     1.0000 0.04860  0.65260  0.01300  Biso   1.000  H
  H101     1.0000 0.54860  0.84740  0.51300  Biso   1.000  H
  H102     1.0000 0.45140  0.84740  0.98700  Biso   1.000  H
  H103     1.0000 0.04860  0.34740  0.51300  Biso   1.000  H
  H104     1.0000 0.95140  0.34740  0.98700  Biso   1.000  H
  C121     1.0000 0.42640  0.06470  0.39250  Biso   1.000  C
  C122     1.0000 0.57360  0.06470  0.10750  Biso   1.000  C
  C123     1.0000 0.92640  0.56470  0.39250  Biso   1.000  C
  C124     1.0000 0.07360  0.56470  0.10750  Biso   1.000  C
  C125     1.0000 0.57360  0.93530  0.60750  Biso   1.000  C
  C126     1.0000 0.42640  0.93530  0.89250  Biso   1.000  C
  C127     1.0000 0.07360  0.43530  0.60750  Biso   1.000  C
  C128     1.0000 0.92640  0.43530  0.89250  Biso   1.000  C
  H105     1.0000 0.39510  0.99950  0.39220  Biso   1.000  H
  H106     1.0000 0.60490  0.99950  0.10780  Biso   1.000  H
  H107     1.0000 0.89510  0.49950  0.39220  Biso   1.000  H
  H108     1.0000 0.10490  0.49950  0.10780  Biso   1.000  H
  H109     1.0000 0.60490  0.00050  0.60780  Biso   1.000  H
  H110     1.0000 0.39510  0.00050  0.89220  Biso   1.000  H
  H111     1.0000 0.10490  0.50050  0.60780  Biso   1.000  H
  H112     1.0000 0.89510  0.50050  0.89220  Biso   1.000  H
  C129     1.0000 0.43910  0.07100  0.33540  Biso   1.000  C
  C130     1.0000 0.56090  0.07100  0.16460  Biso   1.000  C
  C131     1.0000 0.93910  0.57100  0.33540  Biso   1.000  C
  C132     1.0000 0.06090  0.57100  0.16460  Biso   1.000  C
  C133     1.0000 0.56090  0.92900  0.66460  Biso   1.000  C
  C134     1.0000 0.43910  0.92900  0.83540  Biso   1.000  C
  C135     1.0000 0.06090  0.42900  0.66460  Biso   1.000  C
  C136     1.0000 0.93910  0.42900  0.83540  Biso   1.000  C
  H113     1.0000 0.41620  0.00950  0.29730  Biso   1.000  H
  H114     1.0000 0.58380  0.00950  0.20270  Biso   1.000  H
  H115     1.0000 0.91620  0.50950  0.29730  Biso   1.000  H
  H116     1.0000 0.08380  0.50950  0.20270  Biso   1.000  H
  H117     1.0000 0.58380  0.99050  0.70270  Biso   1.000  H
  H118     1.0000 0.41620  0.99050  0.79730  Biso   1.000  H
  H119     1.0000 0.08380  0.49050  0.70270  Biso   1.000  H
  H120     1.0000 0.91620  0.49050  0.79730  Biso   1.000  H
  N41      1.0000 0.48350  0.16410  0.33490  Biso   1.000  N
  N42      1.0000 0.51650  0.16410  0.16510  Biso   1.000  N
  N43      1.0000 0.98350  0.66410  0.33490  Biso   1.000  N
  N44      1.0000 0.01650  0.66410  0.16510  Biso   1.000  N
  N45      1.0000 0.51650  0.83590  0.66510  Biso   1.000  N
  N46      1.0000 0.48350  0.83590  0.83490  Biso   1.000  N
  N47      1.0000 0.01650  0.33590  0.66510  Biso   1.000  N
  N48      1.0000 0.98350  0.33590  0.83490  Biso   1.000  N
  C137     1.0000 0.51620  0.25390  0.38940  Biso   1.000  C
  C138     1.0000 0.48380  0.25390  0.11060  Biso   1.000  C
  C139     1.0000 0.01620  0.75390  0.38940  Biso   1.000  C
  C140     1.0000 0.98380  0.75390  0.11060  Biso   1.000  C
  C141     1.0000 0.48380  0.74610  0.61060  Biso   1.000  C
  C142     1.0000 0.51620  0.74610  0.88940  Biso   1.000  C
  C143     1.0000 0.98380  0.24610  0.61060  Biso   1.000  C
  C144     1.0000 0.01620  0.24610  0.88940  Biso   1.000  C
  H121     1.0000 0.54540  0.32160  0.38720  Biso   1.000  H
  H122     1.0000 0.45460  0.32160  0.11280  Biso   1.000  H
  H123     1.0000 0.04540  0.82160  0.38720  Biso   1.000  H
  H124     1.0000 0.95460  0.82160  0.11280  Biso   1.000  H
  H125     1.0000 0.45460  0.67840  0.61280  Biso   1.000  H
  H126     1.0000 0.54540  0.67840  0.88720  Biso   1.000  H
  H127     1.0000 0.95460  0.17840  0.61280  Biso   1.000  H
  H128     1.0000 0.04540  0.17840  0.88720  Biso   1.000  H
  O17      1.0000 0.50000  0.43200  0.25000  Biso   1.000  O
  O18      1.0000 0.00000  0.93200  0.25000  Biso   1.000  O
  O19      1.0000 0.50000  0.56800  0.75000  Biso   1.000  O
  O20      1.0000 0.00000  0.06800  0.75000  Biso   1.000  O
  H129     1.0000 0.50520  0.46140  0.28810  Biso   1.000  H
  H130     1.0000 0.49480  0.46140  0.21190  Biso   1.000  H
  H131     1.0000 0.00520  0.96140  0.28810  Biso   1.000  H
  H132     1.0000 0.99480  0.96140  0.21190  Biso   1.000  H
  H133     1.0000 0.49480  0.53860  0.71190  Biso   1.000  H
  H134     1.0000 0.50520  0.53860  0.78810  Biso   1.000  H
  H135     1.0000 0.99480  0.03860  0.71190  Biso   1.000  H
  H136     1.0000 0.00520  0.03860  0.78810  Biso   1.000  H
  O21      1.0000 0.50000  0.90770  0.25000  Biso   1.000  O
  O22      1.0000 0.00000  0.40770  0.25000  Biso   1.000  O
  O23      1.0000 0.50000  0.09230  0.75000  Biso   1.000  O
  O24      1.0000 0.00000  0.59230  0.75000  Biso   1.000  O
  O25      1.0000 0.10410  0.92300  0.86340  Biso   1.000  O
  O26      1.0000 0.89590  0.92300  0.63660  Biso   1.000  O
  O27      1.0000 0.60410  0.42300  0.86340  Biso   1.000  O
  O28      1.0000 0.39590  0.42300  0.63660  Biso   1.000  O
  O29      1.0000 0.89590  0.07700  0.13660  Biso   1.000  O
  O30      1.0000 0.10410  0.07700  0.36340  Biso   1.000  O
  O31      1.0000 0.39590  0.57700  0.13660  Biso   1.000  O
  O32      1.0000 0.60410  0.57700  0.36340  Biso   1.000  O
  O33      1.0000 0.10310  0.78700  0.88000  Biso   1.000  O
  O34      1.0000 0.89690  0.78700  0.62000  Biso   1.000  O
  O35      1.0000 0.60310  0.28700  0.88000  Biso   1.000  O
  O36      1.0000 0.39690  0.28700  0.62000  Biso   1.000  O
  O37      1.0000 0.89690  0.21300  0.12000  Biso   1.000  O
  O38      1.0000 0.10310  0.21300  0.38000  Biso   1.000  O
  O39      1.0000 0.39690  0.71300  0.12000  Biso   1.000  O
  O40      1.0000 0.60310  0.71300  0.38000  Biso   1.000  O
