data_image0
_cell_length_a       10.402
_cell_length_b       10.402
_cell_length_c       17.238
_cell_angle_alpha    90
_cell_angle_beta     90
_cell_angle_gamma    90

_symmetry_space_group_name_H-M    "P 1"
_symmetry_int_tables_number       1

loop_
  _symmetry_equiv_pos_as_xyz
  'x, y, z'

loop_
  _atom_site_label
  _atom_site_occupancy
  _atom_site_fract_x
  _atom_site_fract_y
  _atom_site_fract_z
  _atom_site_thermal_displace_type
  _atom_site_B_iso_or_equiv
  _atom_site_type_symbol
  Cu1      1.0000 0.00000  0.00000  0.50000  Biso   1.000  Cu
  Cu2      1.0000 0.00000  0.00000  0.00000  Biso   1.000  Cu
  V1       1.0000 0.00000  0.00000  0.25000  Biso   1.000  V
  V2       1.0000 0.00000  0.00000  0.75000  Biso   1.000  V
  F1       1.0000 0.00000  0.00000  0.36020  Biso   1.000  F
  F2       1.0000 0.00000  0.00000  0.13980  Biso   1.000  F
  F3       1.0000 0.00000  0.00000  0.63980  Biso   1.000  F
  F4       1.0000 0.00000  0.00000  0.86020  Biso   1.000  F
  F5       1.0000 0.82280  0.00000  0.25000  Biso   1.000  F
  F6       1.0000 0.17720  0.00000  0.25000  Biso   1.000  F
  F7       1.0000 0.00000  0.17720  0.25000  Biso   1.000  F
  F8       1.0000 0.00000  0.82280  0.25000  Biso   1.000  F
  F9       1.0000 0.17720  0.00000  0.75000  Biso   1.000  F
  F10      1.0000 0.82280  0.00000  0.75000  Biso   1.000  F
  F11      1.0000 0.00000  0.82280  0.75000  Biso   1.000  F
  F12      1.0000 0.00000  0.17720  0.75000  Biso   1.000  F
  N1       1.0000 0.81550  0.06470  0.50000  Biso   1.000  N
  N2       1.0000 0.18450  0.93530  0.50000  Biso   1.000  N
  N3       1.0000 0.81550  0.93530  0.00000  Biso   1.000  N
  N4       1.0000 0.18450  0.06470  0.00000  Biso   1.000  N
  N5       1.0000 0.93530  0.18450  0.00000  Biso   1.000  N
  N6       1.0000 0.06470  0.81550  0.00000  Biso   1.000  N
  N7       1.0000 0.06470  0.18450  0.50000  Biso   1.000  N
  N8       1.0000 0.93530  0.81550  0.50000  Biso   1.000  N
  C1       1.0000 0.56540  0.16190  0.50000  Biso   1.000  C
  C2       1.0000 0.43460  0.83810  0.50000  Biso   1.000  C
  C3       1.0000 0.56540  0.83810  0.00000  Biso   1.000  C
  C4       1.0000 0.43460  0.16190  0.00000  Biso   1.000  C
  C5       1.0000 0.83810  0.43460  0.00000  Biso   1.000  C
  C6       1.0000 0.16190  0.56540  0.00000  Biso   1.000  C
  C7       1.0000 0.16190  0.43460  0.50000  Biso   1.000  C
  C8       1.0000 0.83810  0.56540  0.50000  Biso   1.000  C
  C9       1.0000 0.75290  0.08820  0.43340  Biso   1.000  C
  C10      1.0000 0.24710  0.91180  0.43340  Biso   1.000  C
  C11      1.0000 0.75290  0.91180  0.06660  Biso   1.000  C
  C12      1.0000 0.24710  0.08820  0.06660  Biso   1.000  C
  C13      1.0000 0.91180  0.24710  0.06660  Biso   1.000  C
  C14      1.0000 0.08820  0.75290  0.06660  Biso   1.000  C
  C15      1.0000 0.08820  0.24710  0.43340  Biso   1.000  C
  C16      1.0000 0.91180  0.75290  0.43340  Biso   1.000  C
  C17      1.0000 0.24710  0.91180  0.56660  Biso   1.000  C
  C18      1.0000 0.75290  0.08820  0.56660  Biso   1.000  C
  C19      1.0000 0.24710  0.08820  0.93340  Biso   1.000  C
  C20      1.0000 0.75290  0.91180  0.93340  Biso   1.000  C
  C21      1.0000 0.08820  0.75290  0.93340  Biso   1.000  C
  C22      1.0000 0.91180  0.24710  0.93340  Biso   1.000  C
  C23      1.0000 0.91180  0.75290  0.56660  Biso   1.000  C
  C24      1.0000 0.08820  0.24710  0.56660  Biso   1.000  C
  H1       1.0000 0.79430  0.07270  0.38650  Biso   1.000  H
  H2       1.0000 0.20570  0.92730  0.38650  Biso   1.000  H
  H3       1.0000 0.79430  0.92730  0.11350  Biso   1.000  H
  H4       1.0000 0.20570  0.07270  0.11350  Biso   1.000  H
  H5       1.0000 0.92730  0.20570  0.11350  Biso   1.000  H
  H6       1.0000 0.07270  0.79430  0.11350  Biso   1.000  H
  H7       1.0000 0.07270  0.20570  0.38650  Biso   1.000  H
  H8       1.0000 0.92730  0.79430  0.38650  Biso   1.000  H
  H9       1.0000 0.20570  0.92730  0.61350  Biso   1.000  H
  H10      1.0000 0.79430  0.07270  0.61350  Biso   1.000  H
  H11      1.0000 0.20570  0.07270  0.88650  Biso   1.000  H
  H12      1.0000 0.79430  0.92730  0.88650  Biso   1.000  H
  H13      1.0000 0.07270  0.79430  0.88650  Biso   1.000  H
  H14      1.0000 0.92730  0.20570  0.88650  Biso   1.000  H
  H15      1.0000 0.92730  0.79430  0.61350  Biso   1.000  H
  H16      1.0000 0.07270  0.20570  0.61350  Biso   1.000  H
  C25      1.0000 0.43070  0.21400  0.50000  Biso   1.000  C
  C26      1.0000 0.56930  0.78600  0.50000  Biso   1.000  C
  C27      1.0000 0.43070  0.78600  0.00000  Biso   1.000  C
  C28      1.0000 0.56930  0.21400  0.00000  Biso   1.000  C
  C29      1.0000 0.78600  0.56930  0.00000  Biso   1.000  C
  C30      1.0000 0.21400  0.43070  0.00000  Biso   1.000  C
  C31      1.0000 0.21400  0.56930  0.50000  Biso   1.000  C
  C32      1.0000 0.78600  0.43070  0.50000  Biso   1.000  C
  C33      1.0000 0.62920  0.13440  0.43270  Biso   1.000  C
  C34      1.0000 0.37080  0.86560  0.43270  Biso   1.000  C
  C35      1.0000 0.62920  0.86560  0.06730  Biso   1.000  C
  C36      1.0000 0.37080  0.13440  0.06730  Biso   1.000  C
  C37      1.0000 0.86560  0.37080  0.06730  Biso   1.000  C
  C38      1.0000 0.13440  0.62920  0.06730  Biso   1.000  C
  C39      1.0000 0.13440  0.37080  0.43270  Biso   1.000  C
  C40      1.0000 0.86560  0.62920  0.43270  Biso   1.000  C
  C41      1.0000 0.37080  0.86560  0.56730  Biso   1.000  C
  C42      1.0000 0.62920  0.13440  0.56730  Biso   1.000  C
  C43      1.0000 0.37080  0.13440  0.93270  Biso   1.000  C
  C44      1.0000 0.62920  0.86560  0.93270  Biso   1.000  C
  C45      1.0000 0.13440  0.62920  0.93270  Biso   1.000  C
  C46      1.0000 0.86560  0.37080  0.93270  Biso   1.000  C
  C47      1.0000 0.86560  0.62920  0.56730  Biso   1.000  C
  C48      1.0000 0.13440  0.37080  0.56730  Biso   1.000  C
  H17      1.0000 0.58800  0.14730  0.38550  Biso   1.000  H
  H18      1.0000 0.41200  0.85270  0.38550  Biso   1.000  H
  H19      1.0000 0.58800  0.85270  0.11450  Biso   1.000  H
  H20      1.0000 0.41200  0.14730  0.11450  Biso   1.000  H
  H21      1.0000 0.85270  0.41200  0.11450  Biso   1.000  H
  H22      1.0000 0.14730  0.58800  0.11450  Biso   1.000  H
  H23      1.0000 0.14730  0.41200  0.38550  Biso   1.000  H
  H24      1.0000 0.85270  0.58800  0.38550  Biso   1.000  H
  H25      1.0000 0.41200  0.85270  0.61450  Biso   1.000  H
  H26      1.0000 0.58800  0.14730  0.61450  Biso   1.000  H
  H27      1.0000 0.41200  0.14730  0.88550  Biso   1.000  H
  H28      1.0000 0.58800  0.85270  0.88550  Biso   1.000  H
  H29      1.0000 0.14730  0.58800  0.88550  Biso   1.000  H
  H30      1.0000 0.85270  0.41200  0.88550  Biso   1.000  H
  H31      1.0000 0.85270  0.58800  0.61450  Biso   1.000  H
  H32      1.0000 0.14730  0.41200  0.61450  Biso   1.000  H
  O1       1.0000 0.50000  0.50000  0.25000  Biso   1.000  O
  O2       1.0000 0.50000  0.50000  0.75000  Biso   1.000  O
  O3       1.0000 0.61960  0.17030  0.22060  Biso   1.000  O
  O4       1.0000 0.38040  0.82970  0.22060  Biso   1.000  O
  O5       1.0000 0.61960  0.82970  0.27940  Biso   1.000  O
  O6       1.0000 0.38040  0.17030  0.27940  Biso   1.000  O
  O7       1.0000 0.82970  0.38040  0.27940  Biso   1.000  O
  O8       1.0000 0.17030  0.61960  0.27940  Biso   1.000  O
  O9       1.0000 0.17030  0.38040  0.22060  Biso   1.000  O
  O10      1.0000 0.82970  0.61960  0.22060  Biso   1.000  O
  O11      1.0000 0.38040  0.82970  0.77940  Biso   1.000  O
  O12      1.0000 0.61960  0.17030  0.77940  Biso   1.000  O
  O13      1.0000 0.38040  0.17030  0.72060  Biso   1.000  O
  O14      1.0000 0.61960  0.82970  0.72060  Biso   1.000  O
  O15      1.0000 0.17030  0.61960  0.72060  Biso   1.000  O
  O16      1.0000 0.82970  0.38040  0.72060  Biso   1.000  O
  O17      1.0000 0.82970  0.61960  0.77940  Biso   1.000  O
  O18      1.0000 0.17030  0.38040  0.77940  Biso   1.000  O
  H33      1.0000 0.40210  0.22510  0.44750  Biso   1.000  H
  H34      1.0000 0.59790  0.77490  0.44750  Biso   1.000  H
  H35      1.0000 0.40210  0.77490  0.05250  Biso   1.000  H
  H36      1.0000 0.59790  0.22510  0.05250  Biso   1.000  H
  H37      1.0000 0.77490  0.59790  0.05250  Biso   1.000  H
  H38      1.0000 0.22510  0.40210  0.05250  Biso   1.000  H
  H39      1.0000 0.22510  0.59790  0.44750  Biso   1.000  H
  H40      1.0000 0.77490  0.40210  0.44750  Biso   1.000  H
  H41      1.0000 0.59790  0.77490  0.55250  Biso   1.000  H
  H42      1.0000 0.40210  0.22510  0.55250  Biso   1.000  H
  H43      1.0000 0.59790  0.22510  0.94750  Biso   1.000  H
  H44      1.0000 0.40210  0.77490  0.94750  Biso   1.000  H
  H45      1.0000 0.22510  0.40210  0.94750  Biso   1.000  H
  H46      1.0000 0.77490  0.59790  0.94750  Biso   1.000  H
  H47      1.0000 0.77490  0.40210  0.55250  Biso   1.000  H
  H48      1.0000 0.22510  0.59790  0.55250  Biso   1.000  H
  H49      1.0000 0.42920  0.29530  0.52630  Biso   1.000  H
  H50      1.0000 0.57080  0.70470  0.52630  Biso   1.000  H
  H51      1.0000 0.42920  0.70470  0.97370  Biso   1.000  H
  H52      1.0000 0.57080  0.29530  0.97370  Biso   1.000  H
  H53      1.0000 0.70470  0.57080  0.97370  Biso   1.000  H
  H54      1.0000 0.29530  0.42920  0.97370  Biso   1.000  H
  H55      1.0000 0.29530  0.57080  0.52630  Biso   1.000  H
  H56      1.0000 0.70470  0.42920  0.52630  Biso   1.000  H
  H57      1.0000 0.57080  0.70470  0.47370  Biso   1.000  H
  H58      1.0000 0.42920  0.29530  0.47370  Biso   1.000  H
  H59      1.0000 0.57080  0.29530  0.02630  Biso   1.000  H
  H60      1.0000 0.42920  0.70470  0.02630  Biso   1.000  H
  H61      1.0000 0.29530  0.42920  0.02630  Biso   1.000  H
  H62      1.0000 0.70470  0.57080  0.02630  Biso   1.000  H
  H63      1.0000 0.70470  0.42920  0.47370  Biso   1.000  H
  H64      1.0000 0.29530  0.57080  0.47370  Biso   1.000  H
  H65      1.0000 0.37490  0.15470  0.52620  Biso   1.000  H
  H66      1.0000 0.62510  0.84530  0.52620  Biso   1.000  H
  H67      1.0000 0.37490  0.84530  0.97380  Biso   1.000  H
  H68      1.0000 0.62510  0.15470  0.97380  Biso   1.000  H
  H69      1.0000 0.84530  0.62510  0.97380  Biso   1.000  H
  H70      1.0000 0.15470  0.37490  0.97380  Biso   1.000  H
  H71      1.0000 0.15470  0.62510  0.52620  Biso   1.000  H
  H72      1.0000 0.84530  0.37490  0.52620  Biso   1.000  H
  H73      1.0000 0.62510  0.84530  0.47380  Biso   1.000  H
  H74      1.0000 0.37490  0.15470  0.47380  Biso   1.000  H
  H75      1.0000 0.62510  0.15470  0.02620  Biso   1.000  H
  H76      1.0000 0.37490  0.84530  0.02620  Biso   1.000  H
  H77      1.0000 0.15470  0.37490  0.02620  Biso   1.000  H
  H78      1.0000 0.84530  0.62510  0.02620  Biso   1.000  H
  H79      1.0000 0.84530  0.37490  0.47380  Biso   1.000  H
  H80      1.0000 0.15470  0.62510  0.47380  Biso   1.000  H
