data_image0
_cell_length_a       18.6827
_cell_length_b       18.6827
_cell_length_c       51.005
_cell_angle_alpha    90
_cell_angle_beta     90
_cell_angle_gamma    120

_symmetry_space_group_name_H-M    "P 1"
_symmetry_int_tables_number       1

loop_
  _symmetry_equiv_pos_as_xyz
  'x, y, z'

loop_
  _atom_site_label
  _atom_site_occupancy
  _atom_site_fract_x
  _atom_site_fract_y
  _atom_site_fract_z
  _atom_site_thermal_displace_type
  _atom_site_B_iso_or_equiv
  _atom_site_type_symbol
  Cu1      1.0000 0.85671  0.14329  0.14538  Biso   1.000  Cu
  Cu2      1.0000 0.85671  0.71342  0.14538  Biso   1.000  Cu
  Cu3      1.0000 0.28658  0.14329  0.14538  Biso   1.000  Cu
  Cu4      1.0000 0.14329  0.85671  0.85462  Biso   1.000  Cu
  Cu5      1.0000 0.71342  0.85671  0.85462  Biso   1.000  Cu
  Cu6      1.0000 0.14329  0.28658  0.85462  Biso   1.000  Cu
  Cu7      1.0000 0.52338  0.47662  0.47871  Biso   1.000  Cu
  Cu8      1.0000 0.52338  0.04675  0.47871  Biso   1.000  Cu
  Cu9      1.0000 0.95325  0.47662  0.47871  Biso   1.000  Cu
  Cu10     1.0000 0.80996  0.19004  0.18795  Biso   1.000  Cu
  Cu11     1.0000 0.38009  0.19004  0.18795  Biso   1.000  Cu
  Cu12     1.0000 0.80996  0.61991  0.18795  Biso   1.000  Cu
  Cu13     1.0000 0.19004  0.80996  0.81205  Biso   1.000  Cu
  Cu14     1.0000 0.19004  0.38009  0.81205  Biso   1.000  Cu
  Cu15     1.0000 0.61991  0.80996  0.81205  Biso   1.000  Cu
  Cu16     1.0000 0.47662  0.52338  0.52129  Biso   1.000  Cu
  Cu17     1.0000 0.04675  0.52338  0.52129  Biso   1.000  Cu
  Cu18     1.0000 0.47662  0.95325  0.52129  Biso   1.000  Cu
  C1       1.0000 0.78830  0.02770  0.18708  Biso   1.000  C
  C2       1.0000 0.97230  0.76060  0.18708  Biso   1.000  C
  C3       1.0000 0.23940  0.21170  0.18708  Biso   1.000  C
  C4       1.0000 0.02770  0.78830  0.81292  Biso   1.000  C
  C5       1.0000 0.76060  0.97230  0.81292  Biso   1.000  C
  C6       1.0000 0.21170  0.23940  0.81292  Biso   1.000  C
  C7       1.0000 0.45497  0.36103  0.52041  Biso   1.000  C
  C8       1.0000 0.63897  0.09393  0.52041  Biso   1.000  C
  C9       1.0000 0.90607  0.54503  0.52041  Biso   1.000  C
  C10      1.0000 0.69437  0.12163  0.14625  Biso   1.000  C
  C11      1.0000 0.42727  0.30563  0.14625  Biso   1.000  C
  C12      1.0000 0.87837  0.57273  0.14625  Biso   1.000  C
  C13      1.0000 0.12163  0.69437  0.85375  Biso   1.000  C
  C14      1.0000 0.30563  0.42727  0.85375  Biso   1.000  C
  C15      1.0000 0.57273  0.87837  0.85375  Biso   1.000  C
  C16      1.0000 0.36103  0.45497  0.47959  Biso   1.000  C
  C17      1.0000 0.09393  0.63897  0.47959  Biso   1.000  C
  C18      1.0000 0.54503  0.90607  0.47959  Biso   1.000  C
  C19      1.0000 0.21170  0.97230  0.81292  Biso   1.000  C
  C20      1.0000 0.02770  0.23940  0.81292  Biso   1.000  C
  C21      1.0000 0.76060  0.78830  0.81292  Biso   1.000  C
  C22      1.0000 0.97230  0.21170  0.18708  Biso   1.000  C
  C23      1.0000 0.23940  0.02770  0.18708  Biso   1.000  C
  C24      1.0000 0.78830  0.76060  0.18708  Biso   1.000  C
  C25      1.0000 0.87837  0.30563  0.14625  Biso   1.000  C
  C26      1.0000 0.69437  0.57273  0.14625  Biso   1.000  C
  C27      1.0000 0.42727  0.12163  0.14625  Biso   1.000  C
  C28      1.0000 0.63897  0.54503  0.52041  Biso   1.000  C
  C29      1.0000 0.90607  0.36103  0.52041  Biso   1.000  C
  C30      1.0000 0.45497  0.09393  0.52041  Biso   1.000  C
  C31      1.0000 0.54503  0.63897  0.47959  Biso   1.000  C
  C32      1.0000 0.36103  0.90607  0.47959  Biso   1.000  C
  C33      1.0000 0.09393  0.45497  0.47959  Biso   1.000  C
  C34      1.0000 0.30563  0.87837  0.85375  Biso   1.000  C
  C35      1.0000 0.57273  0.69437  0.85375  Biso   1.000  C
  C36      1.0000 0.12163  0.42727  0.85375  Biso   1.000  C
  O1       1.0000 0.81570  0.03782  0.16393  Biso   1.000  O
  O2       1.0000 0.96218  0.77788  0.16393  Biso   1.000  O
  O3       1.0000 0.22212  0.18430  0.16393  Biso   1.000  O
  O4       1.0000 0.03782  0.81570  0.83607  Biso   1.000  O
  O5       1.0000 0.77788  0.96218  0.83607  Biso   1.000  O
  O6       1.0000 0.18430  0.22212  0.83607  Biso   1.000  O
  O7       1.0000 0.48237  0.37115  0.49726  Biso   1.000  O
  O8       1.0000 0.62885  0.11121  0.49726  Biso   1.000  O
  O9       1.0000 0.88879  0.51763  0.49726  Biso   1.000  O
  O10      1.0000 0.70449  0.14903  0.16940  Biso   1.000  O
  O11      1.0000 0.44455  0.29551  0.16940  Biso   1.000  O
  O12      1.0000 0.85097  0.55545  0.16940  Biso   1.000  O
  O13      1.0000 0.14903  0.70449  0.83060  Biso   1.000  O
  O14      1.0000 0.29551  0.44455  0.83060  Biso   1.000  O
  O15      1.0000 0.55545  0.85097  0.83060  Biso   1.000  O
  O16      1.0000 0.37115  0.48237  0.50274  Biso   1.000  O
  O17      1.0000 0.11121  0.62885  0.50274  Biso   1.000  O
  O18      1.0000 0.51763  0.88879  0.50274  Biso   1.000  O
  O19      1.0000 0.18430  0.96218  0.83607  Biso   1.000  O
  O20      1.0000 0.03782  0.22212  0.83607  Biso   1.000  O
  O21      1.0000 0.77788  0.81570  0.83607  Biso   1.000  O
  O22      1.0000 0.96218  0.18430  0.16393  Biso   1.000  O
  O23      1.0000 0.22212  0.03782  0.16393  Biso   1.000  O
  O24      1.0000 0.81570  0.77788  0.16393  Biso   1.000  O
  O25      1.0000 0.85097  0.29551  0.16940  Biso   1.000  O
  O26      1.0000 0.70449  0.55545  0.16940  Biso   1.000  O
  O27      1.0000 0.44455  0.14903  0.16940  Biso   1.000  O
  O28      1.0000 0.62885  0.51763  0.49726  Biso   1.000  O
  O29      1.0000 0.88879  0.37115  0.49726  Biso   1.000  O
  O30      1.0000 0.48237  0.11121  0.49726  Biso   1.000  O
  O31      1.0000 0.51763  0.62885  0.50274  Biso   1.000  O
  O32      1.0000 0.37115  0.88879  0.50274  Biso   1.000  O
  O33      1.0000 0.11121  0.48237  0.50274  Biso   1.000  O
  O34      1.0000 0.29551  0.85097  0.83060  Biso   1.000  O
  O35      1.0000 0.55545  0.70449  0.83060  Biso   1.000  O
  O36      1.0000 0.14903  0.44455  0.83060  Biso   1.000  O
  O37      1.0000 0.77630  0.07790  0.19990  Biso   1.000  O
  O38      1.0000 0.92210  0.69840  0.19990  Biso   1.000  O
  O39      1.0000 0.30160  0.22370  0.19990  Biso   1.000  O
  O40      1.0000 0.07790  0.77630  0.80010  Biso   1.000  O
  O41      1.0000 0.69840  0.92210  0.80010  Biso   1.000  O
  O42      1.0000 0.22370  0.30160  0.80010  Biso   1.000  O
  O43      1.0000 0.44297  0.41123  0.53323  Biso   1.000  O
  O44      1.0000 0.58877  0.03173  0.53323  Biso   1.000  O
  O45      1.0000 0.96827  0.55703  0.53323  Biso   1.000  O
  O46      1.0000 0.74457  0.10963  0.13343  Biso   1.000  O
  O47      1.0000 0.36507  0.25543  0.13343  Biso   1.000  O
  O48      1.0000 0.89037  0.63493  0.13343  Biso   1.000  O
  O49      1.0000 0.10963  0.74457  0.86657  Biso   1.000  O
  O50      1.0000 0.25543  0.36507  0.86657  Biso   1.000  O
  O51      1.0000 0.63493  0.89037  0.86657  Biso   1.000  O
  O52      1.0000 0.41123  0.44297  0.46677  Biso   1.000  O
  O53      1.0000 0.03173  0.58877  0.46677  Biso   1.000  O
  O54      1.0000 0.55703  0.96827  0.46677  Biso   1.000  O
  O55      1.0000 0.22370  0.92210  0.80010  Biso   1.000  O
  O56      1.0000 0.07790  0.30160  0.80010  Biso   1.000  O
  O57      1.0000 0.69840  0.77630  0.80010  Biso   1.000  O
  O58      1.0000 0.92210  0.22370  0.19990  Biso   1.000  O
  O59      1.0000 0.30160  0.07790  0.19990  Biso   1.000  O
  O60      1.0000 0.77630  0.69840  0.19990  Biso   1.000  O
  O61      1.0000 0.89037  0.25543  0.13343  Biso   1.000  O
  O62      1.0000 0.74457  0.63493  0.13343  Biso   1.000  O
  O63      1.0000 0.36507  0.10963  0.13343  Biso   1.000  O
  O64      1.0000 0.58877  0.55703  0.53323  Biso   1.000  O
  O65      1.0000 0.96827  0.41123  0.53323  Biso   1.000  O
  O66      1.0000 0.44297  0.03173  0.53323  Biso   1.000  O
  O67      1.0000 0.55703  0.58877  0.46677  Biso   1.000  O
  O68      1.0000 0.41123  0.96827  0.46677  Biso   1.000  O
  O69      1.0000 0.03173  0.44297  0.46677  Biso   1.000  O
  O70      1.0000 0.25543  0.89037  0.86657  Biso   1.000  O
  O71      1.0000 0.63493  0.74457  0.86657  Biso   1.000  O
  O72      1.0000 0.10963  0.36507  0.86657  Biso   1.000  O
  O73      1.0000 0.89191  0.10809  0.10957  Biso   1.000  O
  O74      1.0000 0.89191  0.78382  0.10957  Biso   1.000  O
  O75      1.0000 0.21618  0.10809  0.10957  Biso   1.000  O
  O76      1.0000 0.10809  0.89191  0.89043  Biso   1.000  O
  O77      1.0000 0.78382  0.89191  0.89043  Biso   1.000  O
  O78      1.0000 0.10809  0.21618  0.89043  Biso   1.000  O
  O79      1.0000 0.55858  0.44142  0.44290  Biso   1.000  O
  O80      1.0000 0.55858  0.11715  0.44290  Biso   1.000  O
  O81      1.0000 0.88285  0.44142  0.44290  Biso   1.000  O
  O82      1.0000 0.77476  0.22524  0.22376  Biso   1.000  O
  O83      1.0000 0.45049  0.22524  0.22376  Biso   1.000  O
  O84      1.0000 0.77476  0.54951  0.22376  Biso   1.000  O
  O85      1.0000 0.22524  0.77476  0.77624  Biso   1.000  O
  O86      1.0000 0.22524  0.45049  0.77624  Biso   1.000  O
  O87      1.0000 0.54951  0.77476  0.77624  Biso   1.000  O
  O88      1.0000 0.44142  0.55858  0.55710  Biso   1.000  O
  O89      1.0000 0.11715  0.55858  0.55710  Biso   1.000  O
  O90      1.0000 0.44142  0.88285  0.55710  Biso   1.000  O
  N1       1.0000 0.71530  0.85760  0.26656  Biso   1.000  N
  N2       1.0000 0.14240  0.85770  0.26656  Biso   1.000  N
  N3       1.0000 0.14230  0.28470  0.26656  Biso   1.000  N
  N4       1.0000 0.85760  0.71530  0.73344  Biso   1.000  N
  N5       1.0000 0.85770  0.14240  0.73344  Biso   1.000  N
  N6       1.0000 0.28470  0.14230  0.73344  Biso   1.000  N
  N7       1.0000 0.38197  0.19093  0.59989  Biso   1.000  N
  N8       1.0000 0.80907  0.19103  0.59989  Biso   1.000  N
  N9       1.0000 0.80897  0.61803  0.59989  Biso   1.000  N
  N10      1.0000 0.52427  0.04863  0.06677  Biso   1.000  N
  N11      1.0000 0.52437  0.47573  0.06677  Biso   1.000  N
  N12      1.0000 0.95137  0.47563  0.06677  Biso   1.000  N
  N13      1.0000 0.04863  0.52427  0.93323  Biso   1.000  N
  N14      1.0000 0.47573  0.52437  0.93323  Biso   1.000  N
  N15      1.0000 0.47563  0.95137  0.93323  Biso   1.000  N
  N16      1.0000 0.19093  0.38197  0.40011  Biso   1.000  N
  N17      1.0000 0.19103  0.80907  0.40011  Biso   1.000  N
  N18      1.0000 0.61803  0.80897  0.40011  Biso   1.000  N
  C37      1.0000 0.74690  0.93830  0.22676  Biso   1.000  C
  C38      1.0000 0.06170  0.80860  0.22676  Biso   1.000  C
  C39      1.0000 0.19140  0.25310  0.22676  Biso   1.000  C
  C40      1.0000 0.93830  0.74690  0.77324  Biso   1.000  C
  C41      1.0000 0.80860  0.06170  0.77324  Biso   1.000  C
  C42      1.0000 0.25310  0.19140  0.77324  Biso   1.000  C
  C43      1.0000 0.41357  0.27163  0.56009  Biso   1.000  C
  C44      1.0000 0.72837  0.14193  0.56009  Biso   1.000  C
  C45      1.0000 0.85807  0.58643  0.56009  Biso   1.000  C
  C46      1.0000 0.60497  0.08023  0.10657  Biso   1.000  C
  C47      1.0000 0.47527  0.39503  0.10657  Biso   1.000  C
  C48      1.0000 0.91977  0.52473  0.10657  Biso   1.000  C
  C49      1.0000 0.08023  0.60497  0.89343  Biso   1.000  C
  C50      1.0000 0.39503  0.47527  0.89343  Biso   1.000  C
  C51      1.0000 0.52473  0.91977  0.89343  Biso   1.000  C
  C52      1.0000 0.27163  0.41357  0.43991  Biso   1.000  C
  C53      1.0000 0.14193  0.72837  0.43991  Biso   1.000  C
  C54      1.0000 0.58643  0.85807  0.43991  Biso   1.000  C
  C55      1.0000 0.25310  0.06170  0.77324  Biso   1.000  C
  C56      1.0000 0.93830  0.19140  0.77324  Biso   1.000  C
  C57      1.0000 0.80860  0.74690  0.77324  Biso   1.000  C
  C58      1.0000 0.06170  0.25310  0.22676  Biso   1.000  C
  C59      1.0000 0.19140  0.93830  0.22676  Biso   1.000  C
  C60      1.0000 0.74690  0.80860  0.22676  Biso   1.000  C
  C61      1.0000 0.91977  0.39503  0.10657  Biso   1.000  C
  C62      1.0000 0.60497  0.52473  0.10657  Biso   1.000  C
  C63      1.0000 0.47527  0.08023  0.10657  Biso   1.000  C
  C64      1.0000 0.72837  0.58643  0.56009  Biso   1.000  C
  C65      1.0000 0.85807  0.27163  0.56009  Biso   1.000  C
  C66      1.0000 0.41357  0.14193  0.56009  Biso   1.000  C
  C67      1.0000 0.58643  0.72837  0.43991  Biso   1.000  C
  C68      1.0000 0.27163  0.85807  0.43991  Biso   1.000  C
  C69      1.0000 0.14193  0.41357  0.43991  Biso   1.000  C
  C70      1.0000 0.39503  0.91977  0.89343  Biso   1.000  C
  C71      1.0000 0.52473  0.60497  0.89343  Biso   1.000  C
  C72      1.0000 0.08023  0.47527  0.89343  Biso   1.000  C
  H1       1.0000 0.73910  0.97730  0.23570  Biso   1.000  H
  H2       1.0000 0.02270  0.76180  0.23570  Biso   1.000  H
  H3       1.0000 0.23820  0.26090  0.23570  Biso   1.000  H
  H4       1.0000 0.97730  0.73910  0.76430  Biso   1.000  H
  H5       1.0000 0.76180  0.02270  0.76430  Biso   1.000  H
  H6       1.0000 0.26090  0.23820  0.76430  Biso   1.000  H
  H7       1.0000 0.40577  0.31063  0.56903  Biso   1.000  H
  H8       1.0000 0.68937  0.09513  0.56903  Biso   1.000  H
  H9       1.0000 0.90487  0.59423  0.56903  Biso   1.000  H
  H10      1.0000 0.64397  0.07243  0.09763  Biso   1.000  H
  H11      1.0000 0.42847  0.35603  0.09763  Biso   1.000  H
  H12      1.0000 0.92757  0.57153  0.09763  Biso   1.000  H
  H13      1.0000 0.07243  0.64397  0.90237  Biso   1.000  H
  H14      1.0000 0.35603  0.42847  0.90237  Biso   1.000  H
  H15      1.0000 0.57153  0.92757  0.90237  Biso   1.000  H
  H16      1.0000 0.31063  0.40577  0.43097  Biso   1.000  H
  H17      1.0000 0.09513  0.68937  0.43097  Biso   1.000  H
  H18      1.0000 0.59423  0.90487  0.43097  Biso   1.000  H
  H19      1.0000 0.26090  0.02270  0.76430  Biso   1.000  H
  H20      1.0000 0.97730  0.23820  0.76430  Biso   1.000  H
  H21      1.0000 0.76180  0.73910  0.76430  Biso   1.000  H
  H22      1.0000 0.02270  0.26090  0.23570  Biso   1.000  H
  H23      1.0000 0.23820  0.97730  0.23570  Biso   1.000  H
  H24      1.0000 0.73910  0.76180  0.23570  Biso   1.000  H
  H25      1.0000 0.92757  0.35603  0.09763  Biso   1.000  H
  H26      1.0000 0.64397  0.57153  0.09763  Biso   1.000  H
  H27      1.0000 0.42847  0.07243  0.09763  Biso   1.000  H
  H28      1.0000 0.68937  0.59423  0.56903  Biso   1.000  H
  H29      1.0000 0.90487  0.31063  0.56903  Biso   1.000  H
  H30      1.0000 0.40577  0.09513  0.56903  Biso   1.000  H
  H31      1.0000 0.59423  0.68937  0.43097  Biso   1.000  H
  H32      1.0000 0.31063  0.90487  0.43097  Biso   1.000  H
  H33      1.0000 0.09513  0.40577  0.43097  Biso   1.000  H
  H34      1.0000 0.35603  0.92757  0.90237  Biso   1.000  H
  H35      1.0000 0.57153  0.64397  0.90237  Biso   1.000  H
  H36      1.0000 0.07243  0.42847  0.90237  Biso   1.000  H
  C73      1.0000 0.78300  0.89150  0.18746  Biso   1.000  C
  C74      1.0000 0.10850  0.89150  0.18746  Biso   1.000  C
  C75      1.0000 0.10850  0.21700  0.18746  Biso   1.000  C
  C76      1.0000 0.89150  0.78300  0.81254  Biso   1.000  C
  C77      1.0000 0.89150  0.10850  0.81254  Biso   1.000  C
  C78      1.0000 0.21700  0.10850  0.81254  Biso   1.000  C
  C79      1.0000 0.44967  0.22483  0.52079  Biso   1.000  C
  C80      1.0000 0.77517  0.22483  0.52079  Biso   1.000  C
  C81      1.0000 0.77517  0.55033  0.52079  Biso   1.000  C
  C82      1.0000 0.55817  0.11633  0.14587  Biso   1.000  C
  C83      1.0000 0.55817  0.44183  0.14587  Biso   1.000  C
  C84      1.0000 0.88367  0.44183  0.14587  Biso   1.000  C
  C85      1.0000 0.11633  0.55817  0.85413  Biso   1.000  C
  C86      1.0000 0.44183  0.55817  0.85413  Biso   1.000  C
  C87      1.0000 0.44183  0.88367  0.85413  Biso   1.000  C
  C88      1.0000 0.22483  0.44967  0.47921  Biso   1.000  C
  C89      1.0000 0.22483  0.77517  0.47921  Biso   1.000  C
  C90      1.0000 0.55033  0.77517  0.47921  Biso   1.000  C
  H37      1.0000 0.79960  0.89980  0.17000  Biso   1.000  H
  H38      1.0000 0.10020  0.89980  0.17000  Biso   1.000  H
  H39      1.0000 0.10020  0.20040  0.17000  Biso   1.000  H
  H40      1.0000 0.89980  0.79960  0.83000  Biso   1.000  H
  H41      1.0000 0.89980  0.10020  0.83000  Biso   1.000  H
  H42      1.0000 0.20040  0.10020  0.83000  Biso   1.000  H
  H43      1.0000 0.46627  0.23313  0.50333  Biso   1.000  H
  H44      1.0000 0.76687  0.23313  0.50333  Biso   1.000  H
  H45      1.0000 0.76687  0.53373  0.50333  Biso   1.000  H
  H46      1.0000 0.56647  0.13293  0.16333  Biso   1.000  H
  H47      1.0000 0.56647  0.43353  0.16333  Biso   1.000  H
  H48      1.0000 0.86707  0.43353  0.16333  Biso   1.000  H
  H49      1.0000 0.13293  0.56647  0.83667  Biso   1.000  H
  H50      1.0000 0.43353  0.56647  0.83667  Biso   1.000  H
  H51      1.0000 0.43353  0.86707  0.83667  Biso   1.000  H
  H52      1.0000 0.23313  0.46627  0.49667  Biso   1.000  H
  H53      1.0000 0.23313  0.76687  0.49667  Biso   1.000  H
  H54      1.0000 0.53373  0.76687  0.49667  Biso   1.000  H
  C91      1.0000 0.77080  0.95010  0.20036  Biso   1.000  C
  C92      1.0000 0.04990  0.82070  0.20036  Biso   1.000  C
  C93      1.0000 0.17930  0.22920  0.20036  Biso   1.000  C
  C94      1.0000 0.95010  0.77080  0.79964  Biso   1.000  C
  C95      1.0000 0.82070  0.04990  0.79964  Biso   1.000  C
  C96      1.0000 0.22920  0.17930  0.79964  Biso   1.000  C
  C97      1.0000 0.43747  0.28343  0.53369  Biso   1.000  C
  C98      1.0000 0.71657  0.15403  0.53369  Biso   1.000  C
  C99      1.0000 0.84597  0.56253  0.53369  Biso   1.000  C
  C100     1.0000 0.61677  0.10413  0.13297  Biso   1.000  C
  C101     1.0000 0.48737  0.38323  0.13297  Biso   1.000  C
  C102     1.0000 0.89587  0.51263  0.13297  Biso   1.000  C
  C103     1.0000 0.10413  0.61677  0.86703  Biso   1.000  C
  C104     1.0000 0.38323  0.48737  0.86703  Biso   1.000  C
  C105     1.0000 0.51263  0.89587  0.86703  Biso   1.000  C
  C106     1.0000 0.28343  0.43747  0.46631  Biso   1.000  C
  C107     1.0000 0.15403  0.71657  0.46631  Biso   1.000  C
  C108     1.0000 0.56253  0.84597  0.46631  Biso   1.000  C
  C109     1.0000 0.22920  0.04990  0.79964  Biso   1.000  C
  C110     1.0000 0.95010  0.17930  0.79964  Biso   1.000  C
  C111     1.0000 0.82070  0.77080  0.79964  Biso   1.000  C
  C112     1.0000 0.04990  0.22920  0.20036  Biso   1.000  C
  C113     1.0000 0.17930  0.95010  0.20036  Biso   1.000  C
  C114     1.0000 0.77080  0.82070  0.20036  Biso   1.000  C
  C115     1.0000 0.89587  0.38323  0.13297  Biso   1.000  C
  C116     1.0000 0.61677  0.51263  0.13297  Biso   1.000  C
  C117     1.0000 0.48737  0.10413  0.13297  Biso   1.000  C
  C118     1.0000 0.71657  0.56253  0.53369  Biso   1.000  C
  C119     1.0000 0.84597  0.28343  0.53369  Biso   1.000  C
  C120     1.0000 0.43747  0.15403  0.53369  Biso   1.000  C
  C121     1.0000 0.56253  0.71657  0.46631  Biso   1.000  C
  C122     1.0000 0.28343  0.84597  0.46631  Biso   1.000  C
  C123     1.0000 0.15403  0.43747  0.46631  Biso   1.000  C
  C124     1.0000 0.38323  0.89587  0.86703  Biso   1.000  C
  C125     1.0000 0.51263  0.61677  0.86703  Biso   1.000  C
  C126     1.0000 0.10413  0.48737  0.86703  Biso   1.000  C
  C127     1.0000 0.73530  0.86760  0.23925  Biso   1.000  C
  C128     1.0000 0.13240  0.86770  0.23925  Biso   1.000  C
  C129     1.0000 0.13230  0.26470  0.23925  Biso   1.000  C
  C130     1.0000 0.86760  0.73530  0.76075  Biso   1.000  C
  C131     1.0000 0.86770  0.13240  0.76075  Biso   1.000  C
  C132     1.0000 0.26470  0.13230  0.76075  Biso   1.000  C
  C133     1.0000 0.40197  0.20093  0.57258  Biso   1.000  C
  C134     1.0000 0.79907  0.20103  0.57258  Biso   1.000  C
  C135     1.0000 0.79897  0.59803  0.57258  Biso   1.000  C
  C136     1.0000 0.53427  0.06863  0.09408  Biso   1.000  C
  C137     1.0000 0.53437  0.46573  0.09408  Biso   1.000  C
  C138     1.0000 0.93137  0.46563  0.09408  Biso   1.000  C
  C139     1.0000 0.06863  0.53427  0.90592  Biso   1.000  C
  C140     1.0000 0.46573  0.53437  0.90592  Biso   1.000  C
  C141     1.0000 0.46563  0.93137  0.90592  Biso   1.000  C
  C142     1.0000 0.20093  0.40197  0.42742  Biso   1.000  C
  C143     1.0000 0.20103  0.79907  0.42742  Biso   1.000  C
  C144     1.0000 0.59803  0.79897  0.42742  Biso   1.000  C
  C145     1.0000 0.67370  0.83680  0.31958  Biso   1.000  C
  C146     1.0000 0.16320  0.83690  0.31958  Biso   1.000  C
  C147     1.0000 0.16310  0.32630  0.31958  Biso   1.000  C
  C148     1.0000 0.83680  0.67370  0.68042  Biso   1.000  C
  C149     1.0000 0.83690  0.16320  0.68042  Biso   1.000  C
  C150     1.0000 0.32630  0.16310  0.68042  Biso   1.000  C
  C151     1.0000 0.34037  0.17013  0.65291  Biso   1.000  C
  C152     1.0000 0.82987  0.17023  0.65291  Biso   1.000  C
  C153     1.0000 0.82977  0.65963  0.65291  Biso   1.000  C
  C154     1.0000 0.50347  0.00703  0.01375  Biso   1.000  C
  C155     1.0000 0.50357  0.49653  0.01375  Biso   1.000  C
  C156     1.0000 0.99297  0.49643  0.01375  Biso   1.000  C
  C157     1.0000 0.00703  0.50347  0.98625  Biso   1.000  C
  C158     1.0000 0.49653  0.50357  0.98625  Biso   1.000  C
  C159     1.0000 0.49643  0.99297  0.98625  Biso   1.000  C
  C160     1.0000 0.17013  0.34037  0.34709  Biso   1.000  C
  C161     1.0000 0.17023  0.82987  0.34709  Biso   1.000  C
  C162     1.0000 0.65963  0.82977  0.34709  Biso   1.000  C
  C163     1.0000 0.74190  0.90360  0.31190  Biso   1.000  C
  C164     1.0000 0.09640  0.83830  0.31190  Biso   1.000  C
  C165     1.0000 0.16170  0.25810  0.31190  Biso   1.000  C
  C166     1.0000 0.90360  0.74190  0.68810  Biso   1.000  C
  C167     1.0000 0.83830  0.09640  0.68810  Biso   1.000  C
  C168     1.0000 0.25810  0.16170  0.68810  Biso   1.000  C
  C169     1.0000 0.40857  0.23693  0.64523  Biso   1.000  C
  C170     1.0000 0.76307  0.17163  0.64523  Biso   1.000  C
  C171     1.0000 0.82837  0.59143  0.64523  Biso   1.000  C
  C172     1.0000 0.57027  0.07523  0.02143  Biso   1.000  C
  C173     1.0000 0.50497  0.42973  0.02143  Biso   1.000  C
  C174     1.0000 0.92477  0.49503  0.02143  Biso   1.000  C
  C175     1.0000 0.07523  0.57027  0.97857  Biso   1.000  C
  C176     1.0000 0.42973  0.50497  0.97857  Biso   1.000  C
  C177     1.0000 0.49503  0.92477  0.97857  Biso   1.000  C
  C178     1.0000 0.23693  0.40857  0.35477  Biso   1.000  C
  C179     1.0000 0.17163  0.76307  0.35477  Biso   1.000  C
  C180     1.0000 0.59143  0.82837  0.35477  Biso   1.000  C
  C181     1.0000 0.25810  0.09640  0.68810  Biso   1.000  C
  C182     1.0000 0.90360  0.16170  0.68810  Biso   1.000  C
  C183     1.0000 0.83830  0.74190  0.68810  Biso   1.000  C
  C184     1.0000 0.09640  0.25810  0.31190  Biso   1.000  C
  C185     1.0000 0.16170  0.90360  0.31190  Biso   1.000  C
  C186     1.0000 0.74190  0.83830  0.31190  Biso   1.000  C
  C187     1.0000 0.92477  0.42973  0.02143  Biso   1.000  C
  C188     1.0000 0.57027  0.49503  0.02143  Biso   1.000  C
  C189     1.0000 0.50497  0.07523  0.02143  Biso   1.000  C
  C190     1.0000 0.76307  0.59143  0.64523  Biso   1.000  C
  C191     1.0000 0.82837  0.23693  0.64523  Biso   1.000  C
  C192     1.0000 0.40857  0.17163  0.64523  Biso   1.000  C
  C193     1.0000 0.59143  0.76307  0.35477  Biso   1.000  C
  C194     1.0000 0.23693  0.82837  0.35477  Biso   1.000  C
  C195     1.0000 0.17163  0.40857  0.35477  Biso   1.000  C
  C196     1.0000 0.42973  0.92477  0.97857  Biso   1.000  C
  C197     1.0000 0.49503  0.57027  0.97857  Biso   1.000  C
  C198     1.0000 0.07523  0.50497  0.97857  Biso   1.000  C
  C199     1.0000 0.64680  0.78510  0.27350  Biso   1.000  C
  C200     1.0000 0.21490  0.86170  0.27350  Biso   1.000  C
  C201     1.0000 0.13830  0.35320  0.27350  Biso   1.000  C
  C202     1.0000 0.78510  0.64680  0.72650  Biso   1.000  C
  C203     1.0000 0.86170  0.21490  0.72650  Biso   1.000  C
  C204     1.0000 0.35320  0.13830  0.72650  Biso   1.000  C
  C205     1.0000 0.31347  0.11843  0.60683  Biso   1.000  C
  C206     1.0000 0.88157  0.19503  0.60683  Biso   1.000  C
  C207     1.0000 0.80497  0.68653  0.60683  Biso   1.000  C
  C208     1.0000 0.45177  0.98013  0.05983  Biso   1.000  C
  C209     1.0000 0.52837  0.54823  0.05983  Biso   1.000  C
  C210     1.0000 0.01987  0.47163  0.05983  Biso   1.000  C
  C211     1.0000 0.98013  0.45177  0.94017  Biso   1.000  C
  C212     1.0000 0.54823  0.52837  0.94017  Biso   1.000  C
  C213     1.0000 0.47163  0.01987  0.94017  Biso   1.000  C
  C214     1.0000 0.11843  0.31347  0.39317  Biso   1.000  C
  C215     1.0000 0.19503  0.88157  0.39317  Biso   1.000  C
  C216     1.0000 0.68653  0.80497  0.39317  Biso   1.000  C
  C217     1.0000 0.35320  0.21490  0.72650  Biso   1.000  C
  C218     1.0000 0.78510  0.13830  0.72650  Biso   1.000  C
  C219     1.0000 0.86170  0.64680  0.72650  Biso   1.000  C
  C220     1.0000 0.21490  0.35320  0.27350  Biso   1.000  C
  C221     1.0000 0.13830  0.78510  0.27350  Biso   1.000  C
  C222     1.0000 0.64680  0.86170  0.27350  Biso   1.000  C
  C223     1.0000 0.01987  0.54823  0.05983  Biso   1.000  C
  C224     1.0000 0.45177  0.47163  0.05983  Biso   1.000  C
  C225     1.0000 0.52837  0.98013  0.05983  Biso   1.000  C
  C226     1.0000 0.88157  0.68653  0.60683  Biso   1.000  C
  C227     1.0000 0.80497  0.11843  0.60683  Biso   1.000  C
  C228     1.0000 0.31347  0.19503  0.60683  Biso   1.000  C
  C229     1.0000 0.68653  0.88157  0.39317  Biso   1.000  C
  C230     1.0000 0.11843  0.80497  0.39317  Biso   1.000  C
  C231     1.0000 0.19503  0.31347  0.39317  Biso   1.000  C
  C232     1.0000 0.54823  0.01987  0.94017  Biso   1.000  C
  C233     1.0000 0.47163  0.45177  0.94017  Biso   1.000  C
  C234     1.0000 0.98013  0.52837  0.94017  Biso   1.000  C
  C235     1.0000 0.76520  0.84770  0.28110  Biso   1.000  C
  C236     1.0000 0.15230  0.91750  0.28110  Biso   1.000  C
  C237     1.0000 0.08250  0.23480  0.28110  Biso   1.000  C
  C238     1.0000 0.84770  0.76520  0.71890  Biso   1.000  C
  C239     1.0000 0.91750  0.15230  0.71890  Biso   1.000  C
  C240     1.0000 0.23480  0.08250  0.71890  Biso   1.000  C
  C241     1.0000 0.43187  0.18103  0.61443  Biso   1.000  C
  C242     1.0000 0.81897  0.25083  0.61443  Biso   1.000  C
  C243     1.0000 0.74917  0.56813  0.61443  Biso   1.000  C
  C244     1.0000 0.51437  0.09853  0.05223  Biso   1.000  C
  C245     1.0000 0.58417  0.48563  0.05223  Biso   1.000  C
  C246     1.0000 0.90147  0.41583  0.05223  Biso   1.000  C
  C247     1.0000 0.09853  0.51437  0.94777  Biso   1.000  C
  C248     1.0000 0.48563  0.58417  0.94777  Biso   1.000  C
  C249     1.0000 0.41583  0.90147  0.94777  Biso   1.000  C
  C250     1.0000 0.18103  0.43187  0.38557  Biso   1.000  C
  C251     1.0000 0.25083  0.81897  0.38557  Biso   1.000  C
  C252     1.0000 0.56813  0.74917  0.38557  Biso   1.000  C
  C253     1.0000 0.23480  0.15230  0.71890  Biso   1.000  C
  C254     1.0000 0.84770  0.08250  0.71890  Biso   1.000  C
  C255     1.0000 0.91750  0.76520  0.71890  Biso   1.000  C
  C256     1.0000 0.15230  0.23480  0.28110  Biso   1.000  C
  C257     1.0000 0.08250  0.84770  0.28110  Biso   1.000  C
  C258     1.0000 0.76520  0.91750  0.28110  Biso   1.000  C
  C259     1.0000 0.90147  0.48563  0.05223  Biso   1.000  C
  C260     1.0000 0.51437  0.41583  0.05223  Biso   1.000  C
  C261     1.0000 0.58417  0.09853  0.05223  Biso   1.000  C
  C262     1.0000 0.81897  0.56813  0.61443  Biso   1.000  C
  C263     1.0000 0.74917  0.18103  0.61443  Biso   1.000  C
  C264     1.0000 0.43187  0.25083  0.61443  Biso   1.000  C
  C265     1.0000 0.56813  0.81897  0.38557  Biso   1.000  C
  C266     1.0000 0.18103  0.74917  0.38557  Biso   1.000  C
  C267     1.0000 0.25083  0.43187  0.38557  Biso   1.000  C
  C268     1.0000 0.48563  0.90147  0.94777  Biso   1.000  C
  C269     1.0000 0.41583  0.51437  0.94777  Biso   1.000  C
  C270     1.0000 0.09853  0.58417  0.94777  Biso   1.000  C
  C271     1.0000 0.62620  0.77660  0.30280  Biso   1.000  C
  C272     1.0000 0.22340  0.84960  0.30280  Biso   1.000  C
  C273     1.0000 0.15040  0.37380  0.30280  Biso   1.000  C
  C274     1.0000 0.77660  0.62620  0.69720  Biso   1.000  C
  C275     1.0000 0.84960  0.22340  0.69720  Biso   1.000  C
  C276     1.0000 0.37380  0.15040  0.69720  Biso   1.000  C
  C277     1.0000 0.29287  0.10993  0.63613  Biso   1.000  C
  C278     1.0000 0.89007  0.18293  0.63613  Biso   1.000  C
  C279     1.0000 0.81707  0.70713  0.63613  Biso   1.000  C
  C280     1.0000 0.44327  0.95953  0.03053  Biso   1.000  C
  C281     1.0000 0.51627  0.55673  0.03053  Biso   1.000  C
  C282     1.0000 0.04047  0.48373  0.03053  Biso   1.000  C
  C283     1.0000 0.95953  0.44327  0.96947  Biso   1.000  C
  C284     1.0000 0.55673  0.51627  0.96947  Biso   1.000  C
  C285     1.0000 0.48373  0.04047  0.96947  Biso   1.000  C
  C286     1.0000 0.10993  0.29287  0.36387  Biso   1.000  C
  C287     1.0000 0.18293  0.89007  0.36387  Biso   1.000  C
  C288     1.0000 0.70713  0.81707  0.36387  Biso   1.000  C
  C289     1.0000 0.37380  0.22340  0.69720  Biso   1.000  C
  C290     1.0000 0.77660  0.15040  0.69720  Biso   1.000  C
  C291     1.0000 0.84960  0.62620  0.69720  Biso   1.000  C
  C292     1.0000 0.22340  0.37380  0.30280  Biso   1.000  C
  C293     1.0000 0.15040  0.77660  0.30280  Biso   1.000  C
  C294     1.0000 0.62620  0.84960  0.30280  Biso   1.000  C
  C295     1.0000 0.04047  0.55673  0.03053  Biso   1.000  C
  C296     1.0000 0.44327  0.48373  0.03053  Biso   1.000  C
  C297     1.0000 0.51627  0.95953  0.03053  Biso   1.000  C
  C298     1.0000 0.89007  0.70713  0.63613  Biso   1.000  C
  C299     1.0000 0.81707  0.10993  0.63613  Biso   1.000  C
  C300     1.0000 0.29287  0.18293  0.63613  Biso   1.000  C
  C301     1.0000 0.70713  0.89007  0.36387  Biso   1.000  C
  C302     1.0000 0.10993  0.81707  0.36387  Biso   1.000  C
  C303     1.0000 0.18293  0.29287  0.36387  Biso   1.000  C
  C304     1.0000 0.55673  0.04047  0.96947  Biso   1.000  C
  C305     1.0000 0.48373  0.44327  0.96947  Biso   1.000  C
  C306     1.0000 0.95953  0.51627  0.96947  Biso   1.000  C
