data_image0
_cell_length_a       10.4204
_cell_length_b       10.4263
_cell_length_c       19.2543
_cell_angle_alpha    90
_cell_angle_beta     94.118
_cell_angle_gamma    90

_symmetry_space_group_name_H-M    "P 1"
_symmetry_int_tables_number       1

loop_
  _symmetry_equiv_pos_as_xyz
  'x, y, z'

loop_
  _atom_site_label
  _atom_site_occupancy
  _atom_site_fract_x
  _atom_site_fract_y
  _atom_site_fract_z
  _atom_site_thermal_displace_type
  _atom_site_B_iso_or_equiv
  _atom_site_type_symbol
  C1       1.0000 0.56390  0.38710  0.58874  Biso   1.000  C
  C2       1.0000 0.43610  0.88710  0.91126  Biso   1.000  C
  C3       1.0000 0.43610  0.61290  0.41126  Biso   1.000  C
  C4       1.0000 0.56390  0.11290  0.08874  Biso   1.000  C
  H1       1.0000 0.53290  0.30840  0.60600  Biso   1.000  H
  H2       1.0000 0.46710  0.80840  0.89400  Biso   1.000  H
  H3       1.0000 0.46710  0.69160  0.39400  Biso   1.000  H
  H4       1.0000 0.53290  0.19160  0.10600  Biso   1.000  H
  C5       1.0000 0.57550  0.60070  0.58854  Biso   1.000  C
  C6       1.0000 0.42450  0.10070  0.91146  Biso   1.000  C
  C7       1.0000 0.42450  0.39930  0.41146  Biso   1.000  C
  C8       1.0000 0.57550  0.89930  0.08854  Biso   1.000  C
  C9       1.0000 0.66400  0.60460  0.53778  Biso   1.000  C
  C10      1.0000 0.33600  0.10460  0.96222  Biso   1.000  C
  C11      1.0000 0.33600  0.39540  0.46222  Biso   1.000  C
  C12      1.0000 0.66400  0.89540  0.03778  Biso   1.000  C
  C13      1.0000 0.70080  0.48700  0.50892  Biso   1.000  C
  C14      1.0000 0.29920  0.98700  0.99108  Biso   1.000  C
  C15      1.0000 0.29920  0.51300  0.49108  Biso   1.000  C
  C16      1.0000 0.70080  0.01300  0.00892  Biso   1.000  C
  C17      1.0000 0.62200  0.79590  0.56865  Biso   1.000  C
  C18      1.0000 0.37800  0.29590  0.93135  Biso   1.000  C
  C19      1.0000 0.37800  0.20410  0.43135  Biso   1.000  C
  C20      1.0000 0.62200  0.70410  0.06865  Biso   1.000  C
  H5       1.0000 0.62230  0.88690  0.57130  Biso   1.000  H
  H6       1.0000 0.37770  0.38690  0.92870  Biso   1.000  H
  H7       1.0000 0.37770  0.11310  0.42870  Biso   1.000  H
  H8       1.0000 0.62230  0.61310  0.07130  Biso   1.000  H
  C21      1.0000 0.42460  0.05040  0.68663  Biso   1.000  C
  C22      1.0000 0.57540  0.55040  0.81337  Biso   1.000  C
  C23      1.0000 0.57540  0.94960  0.31337  Biso   1.000  C
  C24      1.0000 0.42460  0.44960  0.18663  Biso   1.000  C
  C25      1.0000 0.32310  0.00640  0.73018  Biso   1.000  C
  C26      1.0000 0.67690  0.50640  0.76982  Biso   1.000  C
  C27      1.0000 0.67690  0.99360  0.26982  Biso   1.000  C
  C28      1.0000 0.32310  0.49360  0.23018  Biso   1.000  C
  C29      1.0000 0.23830  0.06950  0.77104  Biso   1.000  C
  C30      1.0000 0.76170  0.56950  0.72896  Biso   1.000  C
  C31      1.0000 0.76170  0.93050  0.22896  Biso   1.000  C
  C32      1.0000 0.23830  0.43050  0.27104  Biso   1.000  C
  H9       1.0000 0.22390  0.15910  0.77510  Biso   1.000  H
  H10      1.0000 0.77610  0.65910  0.72490  Biso   1.000  H
  H11      1.0000 0.77610  0.84090  0.22490  Biso   1.000  H
  H12      1.0000 0.22390  0.34090  0.27510  Biso   1.000  H
  C33      1.0000 0.17950  0.96960  0.80444  Biso   1.000  C
  C34      1.0000 0.82050  0.46960  0.69556  Biso   1.000  C
  C35      1.0000 0.82050  0.03040  0.19556  Biso   1.000  C
  C36      1.0000 0.17950  0.53040  0.30444  Biso   1.000  C
  C37      1.0000 0.09110  0.96740  0.86055  Biso   1.000  C
  C38      1.0000 0.90890  0.46740  0.63945  Biso   1.000  C
  C39      1.0000 0.90890  0.03260  0.13945  Biso   1.000  C
  C40      1.0000 0.09110  0.53260  0.36055  Biso   1.000  C
  C41      1.0000 0.11930  0.46510  0.77665  Biso   1.000  C
  C42      1.0000 0.88070  0.96510  0.72335  Biso   1.000  C
  C43      1.0000 0.88070  0.53490  0.22335  Biso   1.000  C
  C44      1.0000 0.11930  0.03490  0.27665  Biso   1.000  C
  C45      1.0000 0.03380  0.46810  0.83408  Biso   1.000  C
  C46      1.0000 0.96620  0.96810  0.66592  Biso   1.000  C
  C47      1.0000 0.96620  0.53190  0.16592  Biso   1.000  C
  C48      1.0000 0.03380  0.03190  0.33408  Biso   1.000  C
  C49      1.0000 0.95340  0.37790  0.86067  Biso   1.000  C
  C50      1.0000 0.04660  0.87790  0.63933  Biso   1.000  C
  C51      1.0000 0.04660  0.62210  0.13933  Biso   1.000  C
  C52      1.0000 0.95340  0.12210  0.36067  Biso   1.000  C
  H13      1.0000 0.94480  0.28960  0.84900  Biso   1.000  H
  H14      1.0000 0.05520  0.78960  0.65100  Biso   1.000  H
  H15      1.0000 0.05520  0.71040  0.15100  Biso   1.000  H
  H16      1.0000 0.94480  0.21040  0.34900  Biso   1.000  H
  C53      1.0000 0.88850  0.44710  0.90851  Biso   1.000  C
  C54      1.0000 0.11150  0.94710  0.59149  Biso   1.000  C
  C55      1.0000 0.11150  0.55290  0.09149  Biso   1.000  C
  C56      1.0000 0.88850  0.05290  0.40851  Biso   1.000  C
  C57      1.0000 0.78240  0.41640  0.95091  Biso   1.000  C
  C58      1.0000 0.21760  0.91640  0.54909  Biso   1.000  C
  C59      1.0000 0.21760  0.58360  0.04909  Biso   1.000  C
  C60      1.0000 0.78240  0.08360  0.45091  Biso   1.000  C
  Cu1      1.0000 0.42456  0.78746  0.67398  Biso   1.000  Cu
  Cu2      1.0000 0.57544  0.28746  0.82602  Biso   1.000  Cu
  Cu3      1.0000 0.57544  0.21254  0.32602  Biso   1.000  Cu
  Cu4      1.0000 0.42456  0.71254  0.17398  Biso   1.000  Cu
  Cu5      1.0000 0.13532  0.71267  0.82930  Biso   1.000  Cu
  Cu6      1.0000 0.86468  0.21267  0.67070  Biso   1.000  Cu
  Cu7      1.0000 0.86468  0.28733  0.17070  Biso   1.000  Cu
  Cu8      1.0000 0.13532  0.78733  0.32930  Biso   1.000  Cu
  Cu9      1.0000 0.82402  0.82054  0.47020  Biso   1.000  Cu
  Cu10     1.0000 0.17598  0.32054  0.02980  Biso   1.000  Cu
  Cu11     1.0000 0.17598  0.17946  0.52980  Biso   1.000  Cu
  Cu12     1.0000 0.82402  0.67946  0.97020  Biso   1.000  Cu
  N1       1.0000 0.64740  0.38200  0.53851  Biso   1.000  N
  N2       1.0000 0.35260  0.88200  0.96149  Biso   1.000  N
  N3       1.0000 0.35260  0.61800  0.46149  Biso   1.000  N
  N4       1.0000 0.64740  0.11800  0.03851  Biso   1.000  N
  H17      1.0000 0.66920  0.30570  0.52360  Biso   1.000  H
  H18      1.0000 0.33080  0.80570  0.97640  Biso   1.000  H
  H19      1.0000 0.33080  0.69430  0.47640  Biso   1.000  H
  H20      1.0000 0.66920  0.19430  0.02360  Biso   1.000  H
  N5       1.0000 0.31270  0.87730  0.73776  Biso   1.000  N
  N6       1.0000 0.68730  0.37730  0.76224  Biso   1.000  N
  N7       1.0000 0.68730  0.12270  0.26224  Biso   1.000  N
  N8       1.0000 0.31270  0.62270  0.23776  Biso   1.000  N
  N9       1.0000 0.52320  0.49340  0.61510  Biso   1.000  N
  N10      1.0000 0.47680  0.99340  0.88490  Biso   1.000  N
  N11      1.0000 0.47680  0.50660  0.38490  Biso   1.000  N
  N12      1.0000 0.52320  0.00660  0.11510  Biso   1.000  N
  N13      1.0000 0.22510  0.85470  0.78347  Biso   1.000  N
  N14      1.0000 0.77490  0.35470  0.71653  Biso   1.000  N
  N15      1.0000 0.77490  0.14530  0.21653  Biso   1.000  N
  N16      1.0000 0.22510  0.64530  0.28347  Biso   1.000  N
  N17      1.0000 0.01860  0.58370  0.86527  Biso   1.000  N
  N18      1.0000 0.98140  0.08370  0.63473  Biso   1.000  N
  N19      1.0000 0.98140  0.41630  0.13473  Biso   1.000  N
  N20      1.0000 0.01860  0.91630  0.36527  Biso   1.000  N
  N21      1.0000 0.69420  0.73230  0.52554  Biso   1.000  N
  N22      1.0000 0.30580  0.23230  0.97446  Biso   1.000  N
  N23      1.0000 0.30580  0.26770  0.47446  Biso   1.000  N
  N24      1.0000 0.69420  0.76770  0.02554  Biso   1.000  N
  N25      1.0000 0.54840  0.72280  0.60848  Biso   1.000  N
  N26      1.0000 0.45160  0.22280  0.89152  Biso   1.000  N
  N27      1.0000 0.45160  0.27720  0.39152  Biso   1.000  N
  N28      1.0000 0.54840  0.77720  0.10848  Biso   1.000  N
  N29      1.0000 0.77810  0.46940  0.45863  Biso   1.000  N
  N30      1.0000 0.22190  0.96940  0.04137  Biso   1.000  N
  N31      1.0000 0.22190  0.53060  0.54137  Biso   1.000  N
  N32      1.0000 0.77810  0.03060  0.95863  Biso   1.000  N
  H21      1.0000 0.79460  0.39130  0.44450  Biso   1.000  H
  H22      1.0000 0.20540  0.89130  0.05550  Biso   1.000  H
  H23      1.0000 0.20540  0.60870  0.55550  Biso   1.000  H
  H24      1.0000 0.79460  0.10870  0.94450  Biso   1.000  H
  H25      1.0000 0.81320  0.53580  0.43910  Biso   1.000  H
  H26      1.0000 0.18680  0.03580  0.06090  Biso   1.000  H
  H27      1.0000 0.18680  0.46420  0.56090  Biso   1.000  H
  H28      1.0000 0.81320  0.96420  0.93910  Biso   1.000  H
  N33      1.0000 0.92990  0.57120  0.91099  Biso   1.000  N
  N34      1.0000 0.07010  0.07120  0.58901  Biso   1.000  N
  N35      1.0000 0.07010  0.42880  0.08901  Biso   1.000  N
  N36      1.0000 0.92990  0.92880  0.41099  Biso   1.000  N
  O1       1.0000 0.48880  0.96084  0.65950  Biso   1.000  O
  O2       1.0000 0.51120  0.46084  0.84050  Biso   1.000  O
  O3       1.0000 0.51120  0.03916  0.34050  Biso   1.000  O
  O4       1.0000 0.48880  0.53916  0.15950  Biso   1.000  O
  O5       1.0000 0.35200  0.62030  0.68416  Biso   1.000  O
  O6       1.0000 0.64800  0.12030  0.81584  Biso   1.000  O
  O7       1.0000 0.64800  0.37970  0.31584  Biso   1.000  O
  O8       1.0000 0.35200  0.87970  0.18416  Biso   1.000  O
  O9       1.0000 0.44710  0.16648  0.67831  Biso   1.000  O
  O10      1.0000 0.55290  0.66648  0.82169  Biso   1.000  O
  O11      1.0000 0.55290  0.83352  0.32169  Biso   1.000  O
  O12      1.0000 0.44710  0.33352  0.17831  Biso   1.000  O
  O13      1.0000 0.31130  0.63487  0.89745  Biso   1.000  O
  O14      1.0000 0.68870  0.13487  0.60255  Biso   1.000  O
  O15      1.0000 0.68870  0.36513  0.10255  Biso   1.000  O
  O16      1.0000 0.31130  0.86513  0.39745  Biso   1.000  O
  H29      1.0000 0.36490  0.59400  0.87190  Biso   1.000  H
  H30      1.0000 0.63510  0.09400  0.62810  Biso   1.000  H
  H31      1.0000 0.63510  0.40600  0.12810  Biso   1.000  H
  H32      1.0000 0.36490  0.90600  0.37190  Biso   1.000  H
  H33      1.0000 0.28670  0.58100  0.92920  Biso   1.000  H
  H34      1.0000 0.71330  0.08100  0.57080  Biso   1.000  H
  H35      1.0000 0.71330  0.41900  0.07080  Biso   1.000  H
  H36      1.0000 0.28670  0.91900  0.42920  Biso   1.000  H
  O17      1.0000 0.07190  0.85272  0.88489  Biso   1.000  O
  O18      1.0000 0.92810  0.35272  0.61511  Biso   1.000  O
  O19      1.0000 0.92810  0.14728  0.11511  Biso   1.000  O
  O20      1.0000 0.07190  0.64728  0.38489  Biso   1.000  O
  O21      1.0000 0.75940  0.69802  0.37600  Biso   1.000  O
  O22      1.0000 0.24060  0.19802  0.12400  Biso   1.000  O
  O23      1.0000 0.24060  0.30198  0.62400  Biso   1.000  O
  O24      1.0000 0.75940  0.80198  0.87600  Biso   1.000  O
  H37      1.0000 0.82040  0.69240  0.34630  Biso   1.000  H
  H38      1.0000 0.17960  0.19240  0.15370  Biso   1.000  H
  H39      1.0000 0.17960  0.30760  0.65370  Biso   1.000  H
  H40      1.0000 0.82040  0.80760  0.84630  Biso   1.000  H
  H41      1.0000 0.69020  0.73100  0.35310  Biso   1.000  H
  H42      1.0000 0.30980  0.23100  0.14690  Biso   1.000  H
  H43      1.0000 0.30980  0.26900  0.64690  Biso   1.000  H
  H44      1.0000 0.69020  0.76900  0.85310  Biso   1.000  H
  O25      1.0000 0.04400  0.06609  0.88281  Biso   1.000  O
  O26      1.0000 0.95600  0.56609  0.61719  Biso   1.000  O
  O27      1.0000 0.95600  0.93391  0.11719  Biso   1.000  O
  O28      1.0000 0.04400  0.43391  0.38281  Biso   1.000  O
  O29      1.0000 0.96250  0.69990  0.49885  Biso   1.000  O
  O30      1.0000 0.03750  0.19990  0.00115  Biso   1.000  O
  O31      1.0000 0.03750  0.30010  0.50115  Biso   1.000  O
  O32      1.0000 0.96250  0.80010  0.99885  Biso   1.000  O
  O33      1.0000 0.17160  0.57502  0.76373  Biso   1.000  O
  O34      1.0000 0.82840  0.07502  0.73627  Biso   1.000  O
  O35      1.0000 0.82840  0.42498  0.23627  Biso   1.000  O
  O36      1.0000 0.17160  0.92498  0.26373  Biso   1.000  O
  O37      1.0000 0.13400  0.36558  0.74328  Biso   1.000  O
  O38      1.0000 0.86600  0.86558  0.75672  Biso   1.000  O
  O39      1.0000 0.86600  0.63442  0.25672  Biso   1.000  O
  O40      1.0000 0.13400  0.13442  0.24328  Biso   1.000  O
  O41      1.0000 0.74040  0.51065  0.98630  Biso   1.000  O
  O42      1.0000 0.25960  0.01065  0.51370  Biso   1.000  O
  O43      1.0000 0.25960  0.48935  0.01370  Biso   1.000  O
  O44      1.0000 0.74040  0.98935  0.48630  Biso   1.000  O
  O45      1.0000 0.73510  0.30624  0.95089  Biso   1.000  O
  O46      1.0000 0.26490  0.80624  0.54911  Biso   1.000  O
  O47      1.0000 0.26490  0.69376  0.04911  Biso   1.000  O
  O48      1.0000 0.73510  0.19376  0.45089  Biso   1.000  O
  H45      1.0000 0.30800  0.60100  0.71230  Biso   1.000  H
  H46      1.0000 0.69200  0.10100  0.78770  Biso   1.000  H
  H47      1.0000 0.69200  0.39900  0.28770  Biso   1.000  H
  H48      1.0000 0.30800  0.89900  0.21230  Biso   1.000  H
  H49      1.0000 0.39500  0.56600  0.67400  Biso   1.000  H
  H50      1.0000 0.60500  0.06600  0.82600  Biso   1.000  H
  H51      1.0000 0.60500  0.43400  0.32600  Biso   1.000  H
  H52      1.0000 0.39500  0.93400  0.17400  Biso   1.000  H
  H53      1.0000 0.00200  0.67600  0.47120  Biso   1.000  H
  H54      1.0000 0.99800  0.17600  0.02880  Biso   1.000  H
  H55      1.0000 0.99800  0.32400  0.52880  Biso   1.000  H
  H56      1.0000 0.00200  0.82400  0.97120  Biso   1.000  H
  H57      1.0000 0.96700  0.65600  0.52900  Biso   1.000  H
  H58      1.0000 0.03300  0.15600  0.97100  Biso   1.000  H
  H59      1.0000 0.03300  0.34400  0.47100  Biso   1.000  H
  H60      1.0000 0.96700  0.84400  0.02900  Biso   1.000  H
