data_image0
_cell_length_a       9.7571
_cell_length_b       9.7571
_cell_length_c       5.845
_cell_angle_alpha    90
_cell_angle_beta     90
_cell_angle_gamma    90

_symmetry_space_group_name_H-M    "P 1"
_symmetry_int_tables_number       1

loop_
  _symmetry_equiv_pos_as_xyz
  'x, y, z'

loop_
  _atom_site_label
  _atom_site_occupancy
  _atom_site_fract_x
  _atom_site_fract_y
  _atom_site_fract_z
  _atom_site_thermal_displace_type
  _atom_site_B_iso_or_equiv
  _atom_site_type_symbol
  Cu1      1.0000 0.25000  0.25000  0.00000  Biso   1.000  Cu
  Cu2      1.0000 0.75000  0.75000  0.00000  Biso   1.000  Cu
  Br1      1.0000 0.25000  0.25000  0.50000  Biso   1.000  Br
  Br2      1.0000 0.75000  0.75000  0.50000  Biso   1.000  Br
  N1       1.0000 0.10101  0.10101  0.00000  Biso   1.000  N
  N2       1.0000 0.39899  0.39899  0.00000  Biso   1.000  N
  N3       1.0000 0.39899  0.10101  0.00000  Biso   1.000  N
  N4       1.0000 0.10101  0.39899  0.00000  Biso   1.000  N
  N5       1.0000 0.89899  0.89899  0.00000  Biso   1.000  N
  N6       1.0000 0.60101  0.60101  0.00000  Biso   1.000  N
  N7       1.0000 0.60101  0.89899  0.00000  Biso   1.000  N
  N8       1.0000 0.89899  0.60101  0.00000  Biso   1.000  N
  C1       1.0000 0.00285  0.09785  0.16023  Biso   1.000  C
  C2       1.0000 0.49715  0.40215  0.16023  Biso   1.000  C
  C3       1.0000 0.40215  0.00285  0.16023  Biso   1.000  C
  C4       1.0000 0.09785  0.49715  0.16023  Biso   1.000  C
  C5       1.0000 0.49715  0.09785  0.83977  Biso   1.000  C
  C6       1.0000 0.00285  0.40215  0.83977  Biso   1.000  C
  C7       1.0000 0.09785  0.00285  0.83977  Biso   1.000  C
  C8       1.0000 0.40215  0.49715  0.83977  Biso   1.000  C
  C9       1.0000 0.99715  0.90215  0.83977  Biso   1.000  C
  C10      1.0000 0.50285  0.59785  0.83977  Biso   1.000  C
  C11      1.0000 0.59785  0.99715  0.83977  Biso   1.000  C
  C12      1.0000 0.90215  0.50285  0.83977  Biso   1.000  C
  C13      1.0000 0.50285  0.90215  0.16023  Biso   1.000  C
  C14      1.0000 0.99715  0.59785  0.16023  Biso   1.000  C
  C15      1.0000 0.90215  0.99715  0.16023  Biso   1.000  C
  C16      1.0000 0.59785  0.50285  0.16023  Biso   1.000  C
  H1       1.0000 0.00210  0.16450  0.27390  Biso   1.000  H
  H2       1.0000 0.49790  0.33550  0.27390  Biso   1.000  H
  H3       1.0000 0.33550  0.00210  0.27390  Biso   1.000  H
  H4       1.0000 0.16450  0.49790  0.27390  Biso   1.000  H
  H5       1.0000 0.49790  0.16450  0.72610  Biso   1.000  H
  H6       1.0000 0.00210  0.33550  0.72610  Biso   1.000  H
  H7       1.0000 0.16450  0.00210  0.72610  Biso   1.000  H
  H8       1.0000 0.33550  0.49790  0.72610  Biso   1.000  H
  H9       1.0000 0.99790  0.83550  0.72610  Biso   1.000  H
  H10      1.0000 0.50210  0.66450  0.72610  Biso   1.000  H
  H11      1.0000 0.66450  0.99790  0.72610  Biso   1.000  H
  H12      1.0000 0.83550  0.50210  0.72610  Biso   1.000  H
  H13      1.0000 0.50210  0.83550  0.27390  Biso   1.000  H
  H14      1.0000 0.99790  0.66450  0.27390  Biso   1.000  H
  H15      1.0000 0.83550  0.99790  0.27390  Biso   1.000  H
  H16      1.0000 0.66450  0.50210  0.27390  Biso   1.000  H
  F1       1.0000 0.83357  0.33357  0.36558  Biso   1.000  F
  F2       1.0000 0.66643  0.16643  0.36558  Biso   1.000  F
  F3       1.0000 0.16643  0.83357  0.36558  Biso   1.000  F
  F4       1.0000 0.33357  0.66643  0.36558  Biso   1.000  F
  F5       1.0000 0.66643  0.33357  0.63442  Biso   1.000  F
  F6       1.0000 0.83357  0.16643  0.63442  Biso   1.000  F
  F7       1.0000 0.33357  0.83357  0.63442  Biso   1.000  F
  F8       1.0000 0.16643  0.66643  0.63442  Biso   1.000  F
  B1       1.0000 0.75000  0.25000  0.50000  Biso   1.000  B
  B2       1.0000 0.25000  0.75000  0.50000  Biso   1.000  B
