data_image0
_cell_length_a       9.7467
_cell_length_b       9.7467
_cell_length_c       5.6179
_cell_angle_alpha    90
_cell_angle_beta     90
_cell_angle_gamma    90

_symmetry_space_group_name_H-M    "P 1"
_symmetry_int_tables_number       1

loop_
  _symmetry_equiv_pos_as_xyz
  'x, y, z'

loop_
  _atom_site_label
  _atom_site_occupancy
  _atom_site_fract_x
  _atom_site_fract_y
  _atom_site_fract_z
  _atom_site_thermal_displace_type
  _atom_site_B_iso_or_equiv
  _atom_site_type_symbol
  Cu1      1.0000 0.25000  0.25000  0.00000  Biso   1.000  Cu
  Cu2      1.0000 0.75000  0.75000  0.00000  Biso   1.000  Cu
  Cl1      1.0000 0.25000  0.25000  0.50000  Biso   1.000  Cl
  Cl2      1.0000 0.75000  0.75000  0.50000  Biso   1.000  Cl
  N1       1.0000 0.10096  0.10096  0.00000  Biso   1.000  N
  N2       1.0000 0.39904  0.39904  0.00000  Biso   1.000  N
  N3       1.0000 0.39904  0.10096  0.00000  Biso   1.000  N
  N4       1.0000 0.10096  0.39904  0.00000  Biso   1.000  N
  N5       1.0000 0.89904  0.89904  0.00000  Biso   1.000  N
  N6       1.0000 0.60096  0.60096  0.00000  Biso   1.000  N
  N7       1.0000 0.60096  0.89904  0.00000  Biso   1.000  N
  N8       1.0000 0.89904  0.60096  0.00000  Biso   1.000  N
  C1       1.0000 0.00692  0.09403  0.82662  Biso   1.000  C
  C2       1.0000 0.49308  0.40597  0.82662  Biso   1.000  C
  C3       1.0000 0.40597  0.00692  0.82662  Biso   1.000  C
  C4       1.0000 0.09403  0.49308  0.82662  Biso   1.000  C
  C5       1.0000 0.49308  0.09403  0.17338  Biso   1.000  C
  C6       1.0000 0.00692  0.40597  0.17338  Biso   1.000  C
  C7       1.0000 0.09403  0.00692  0.17338  Biso   1.000  C
  C8       1.0000 0.40597  0.49308  0.17338  Biso   1.000  C
  C9       1.0000 0.99308  0.90597  0.17338  Biso   1.000  C
  C10      1.0000 0.50692  0.59403  0.17338  Biso   1.000  C
  C11      1.0000 0.59403  0.99308  0.17338  Biso   1.000  C
  C12      1.0000 0.90597  0.50692  0.17338  Biso   1.000  C
  C13      1.0000 0.50692  0.90597  0.82662  Biso   1.000  C
  C14      1.0000 0.99308  0.59403  0.82662  Biso   1.000  C
  C15      1.0000 0.90597  0.99308  0.82662  Biso   1.000  C
  C16      1.0000 0.59403  0.50692  0.82662  Biso   1.000  C
  H1       1.0000 0.01310  0.15920  0.70030  Biso   1.000  H
  H2       1.0000 0.48690  0.34080  0.70030  Biso   1.000  H
  H3       1.0000 0.34080  0.01310  0.70030  Biso   1.000  H
  H4       1.0000 0.15920  0.48690  0.70030  Biso   1.000  H
  H5       1.0000 0.48690  0.15920  0.29970  Biso   1.000  H
  H6       1.0000 0.01310  0.34080  0.29970  Biso   1.000  H
  H7       1.0000 0.15920  0.01310  0.29970  Biso   1.000  H
  H8       1.0000 0.34080  0.48690  0.29970  Biso   1.000  H
  H9       1.0000 0.98690  0.84080  0.29970  Biso   1.000  H
  H10      1.0000 0.51310  0.65920  0.29970  Biso   1.000  H
  H11      1.0000 0.65920  0.98690  0.29970  Biso   1.000  H
  H12      1.0000 0.84080  0.51310  0.29970  Biso   1.000  H
  H13      1.0000 0.51310  0.84080  0.70030  Biso   1.000  H
  H14      1.0000 0.98690  0.65920  0.70030  Biso   1.000  H
  H15      1.0000 0.84080  0.98690  0.70030  Biso   1.000  H
  H16      1.0000 0.65920  0.51310  0.70030  Biso   1.000  H
  F1       1.0000 0.16653  0.66653  0.35884  Biso   1.000  F
  F2       1.0000 0.33347  0.83347  0.35884  Biso   1.000  F
  F3       1.0000 0.83347  0.16653  0.35884  Biso   1.000  F
  F4       1.0000 0.66653  0.33347  0.35884  Biso   1.000  F
  F5       1.0000 0.33347  0.66653  0.64116  Biso   1.000  F
  F6       1.0000 0.16653  0.83347  0.64116  Biso   1.000  F
  F7       1.0000 0.66653  0.16653  0.64116  Biso   1.000  F
  F8       1.0000 0.83347  0.33347  0.64116  Biso   1.000  F
  B1       1.0000 0.25000  0.75000  0.50000  Biso   1.000  B
  B2       1.0000 0.75000  0.25000  0.50000  Biso   1.000  B
