data_image0
_cell_length_a       15.246
_cell_length_b       17.806
_cell_length_c       19.654
_cell_angle_alpha    90
_cell_angle_beta     90
_cell_angle_gamma    90

_symmetry_space_group_name_H-M    "P 1"
_symmetry_int_tables_number       1

loop_
  _symmetry_equiv_pos_as_xyz
  'x, y, z'

loop_
  _atom_site_label
  _atom_site_occupancy
  _atom_site_fract_x
  _atom_site_fract_y
  _atom_site_fract_z
  _atom_site_thermal_displace_type
  _atom_site_B_iso_or_equiv
  _atom_site_type_symbol
  Cu1      1.0000 0.03990  0.11970  0.25400  Biso   1.000  Cu
  Cu2      1.0000 0.46010  0.61970  0.25400  Biso   1.000  Cu
  Cu3      1.0000 0.03990  0.38030  0.75400  Biso   1.000  Cu
  Cu4      1.0000 0.46010  0.88030  0.75400  Biso   1.000  Cu
  Cu5      1.0000 0.96010  0.88030  0.74600  Biso   1.000  Cu
  Cu6      1.0000 0.53990  0.38030  0.74600  Biso   1.000  Cu
  Cu7      1.0000 0.96010  0.61970  0.24600  Biso   1.000  Cu
  Cu8      1.0000 0.53990  0.11970  0.24600  Biso   1.000  Cu
  O1       1.0000 0.94300  0.16740  0.30180  Biso   1.000  O
  O2       1.0000 0.55700  0.66740  0.30180  Biso   1.000  O
  O3       1.0000 0.94300  0.33260  0.80180  Biso   1.000  O
  O4       1.0000 0.55700  0.83260  0.80180  Biso   1.000  O
  O5       1.0000 0.05700  0.83260  0.69820  Biso   1.000  O
  O6       1.0000 0.44300  0.33260  0.69820  Biso   1.000  O
  O7       1.0000 0.05700  0.66740  0.19820  Biso   1.000  O
  O8       1.0000 0.44300  0.16740  0.19820  Biso   1.000  O
  O9       1.0000 0.09360  0.08300  0.33630  Biso   1.000  O
  O10      1.0000 0.40640  0.58300  0.33630  Biso   1.000  O
  O11      1.0000 0.09360  0.41700  0.83630  Biso   1.000  O
  O12      1.0000 0.40640  0.91700  0.83630  Biso   1.000  O
  O13      1.0000 0.90640  0.91700  0.66370  Biso   1.000  O
  O14      1.0000 0.59360  0.41700  0.66370  Biso   1.000  O
  O15      1.0000 0.90640  0.58300  0.16370  Biso   1.000  O
  O16      1.0000 0.59360  0.08300  0.16370  Biso   1.000  O
  C1       1.0000 0.93100  0.16000  0.36500  Biso   1.000  C
  C2       1.0000 0.56900  0.66000  0.36500  Biso   1.000  C
  C3       1.0000 0.93100  0.34000  0.86500  Biso   1.000  C
  C4       1.0000 0.56900  0.84000  0.86500  Biso   1.000  C
  C5       1.0000 0.06900  0.84000  0.63500  Biso   1.000  C
  C6       1.0000 0.43100  0.34000  0.63500  Biso   1.000  C
  C7       1.0000 0.06900  0.66000  0.13500  Biso   1.000  C
  C8       1.0000 0.43100  0.16000  0.13500  Biso   1.000  C
  C9       1.0000 0.98290  0.12630  0.41280  Biso   1.000  C
  C10      1.0000 0.51710  0.62630  0.41280  Biso   1.000  C
  C11      1.0000 0.98290  0.37370  0.91280  Biso   1.000  C
  C12      1.0000 0.51710  0.87370  0.91280  Biso   1.000  C
  C13      1.0000 0.01710  0.87370  0.58720  Biso   1.000  C
  C14      1.0000 0.48290  0.37370  0.58720  Biso   1.000  C
  C15      1.0000 0.01710  0.62630  0.08720  Biso   1.000  C
  C16      1.0000 0.48290  0.12630  0.08720  Biso   1.000  C
  H1       1.0000 0.04400  0.11400  0.46200  Biso   1.000  H
  H2       1.0000 0.45600  0.61400  0.46200  Biso   1.000  H
  H3       1.0000 0.04400  0.38600  0.96200  Biso   1.000  H
  H4       1.0000 0.45600  0.88600  0.96200  Biso   1.000  H
  H5       1.0000 0.95600  0.88600  0.53800  Biso   1.000  H
  H6       1.0000 0.54400  0.38600  0.53800  Biso   1.000  H
  H7       1.0000 0.95600  0.61400  0.03800  Biso   1.000  H
  H8       1.0000 0.54400  0.11400  0.03800  Biso   1.000  H
  C17      1.0000 0.06070  0.09130  0.39350  Biso   1.000  C
  C18      1.0000 0.43930  0.59130  0.39350  Biso   1.000  C
  C19      1.0000 0.06070  0.40870  0.89350  Biso   1.000  C
  C20      1.0000 0.43930  0.90870  0.89350  Biso   1.000  C
  C21      1.0000 0.93930  0.90870  0.60650  Biso   1.000  C
  C22      1.0000 0.56070  0.40870  0.60650  Biso   1.000  C
  C23      1.0000 0.93930  0.59130  0.10650  Biso   1.000  C
  C24      1.0000 0.56070  0.09130  0.10650  Biso   1.000  C
  C25      1.0000 0.84600  0.19880  0.38900  Biso   1.000  C
  C26      1.0000 0.65400  0.69880  0.38900  Biso   1.000  C
  C27      1.0000 0.84600  0.30120  0.88900  Biso   1.000  C
  C28      1.0000 0.65400  0.80120  0.88900  Biso   1.000  C
  C29      1.0000 0.15400  0.80120  0.61100  Biso   1.000  C
  C30      1.0000 0.34600  0.30120  0.61100  Biso   1.000  C
  C31      1.0000 0.15400  0.69880  0.11100  Biso   1.000  C
  C32      1.0000 0.34600  0.19880  0.11100  Biso   1.000  C
  C33      1.0000 0.11700  0.05600  0.45060  Biso   1.000  C
  C34      1.0000 0.38300  0.55600  0.45060  Biso   1.000  C
  C35      1.0000 0.11700  0.44400  0.95060  Biso   1.000  C
  C36      1.0000 0.38300  0.94400  0.95060  Biso   1.000  C
  C37      1.0000 0.88300  0.94400  0.54940  Biso   1.000  C
  C38      1.0000 0.61700  0.44400  0.54940  Biso   1.000  C
  C39      1.0000 0.88300  0.55600  0.04940  Biso   1.000  C
  C40      1.0000 0.61700  0.05600  0.04940  Biso   1.000  C
  F1       1.0000 0.85360  0.27080  0.39220  Biso   1.000  F
  F2       1.0000 0.64640  0.77080  0.39220  Biso   1.000  F
  F3       1.0000 0.85360  0.22920  0.89220  Biso   1.000  F
  F4       1.0000 0.64640  0.72920  0.89220  Biso   1.000  F
  F5       1.0000 0.14640  0.72920  0.60780  Biso   1.000  F
  F6       1.0000 0.35360  0.22920  0.60780  Biso   1.000  F
  F7       1.0000 0.14640  0.77080  0.10780  Biso   1.000  F
  F8       1.0000 0.35360  0.27080  0.10780  Biso   1.000  F
  F9       1.0000 0.78010  0.18570  0.34690  Biso   1.000  F
  F10      1.0000 0.71990  0.68570  0.34690  Biso   1.000  F
  F11      1.0000 0.78010  0.31430  0.84690  Biso   1.000  F
  F12      1.0000 0.71990  0.81430  0.84690  Biso   1.000  F
  F13      1.0000 0.21990  0.81430  0.65310  Biso   1.000  F
  F14      1.0000 0.28010  0.31430  0.65310  Biso   1.000  F
  F15      1.0000 0.21990  0.68570  0.15310  Biso   1.000  F
  F16      1.0000 0.28010  0.18570  0.15310  Biso   1.000  F
  F17      1.0000 0.82040  0.17590  0.44930  Biso   1.000  F
  F18      1.0000 0.67960  0.67590  0.44930  Biso   1.000  F
  F19      1.0000 0.82040  0.32410  0.94930  Biso   1.000  F
  F20      1.0000 0.67960  0.82410  0.94930  Biso   1.000  F
  F21      1.0000 0.17960  0.82410  0.55070  Biso   1.000  F
  F22      1.0000 0.32040  0.32410  0.55070  Biso   1.000  F
  F23      1.0000 0.17960  0.67590  0.05070  Biso   1.000  F
  F24      1.0000 0.32040  0.17590  0.05070  Biso   1.000  F
  F25      1.0000 0.19700  0.07480  0.44420  Biso   1.000  F
  F26      1.0000 0.30300  0.57480  0.44420  Biso   1.000  F
  F27      1.0000 0.19700  0.42520  0.94420  Biso   1.000  F
  F28      1.0000 0.30300  0.92520  0.94420  Biso   1.000  F
  F29      1.0000 0.80300  0.92520  0.55580  Biso   1.000  F
  F30      1.0000 0.69700  0.42520  0.55580  Biso   1.000  F
  F31      1.0000 0.80300  0.57480  0.05580  Biso   1.000  F
  F32      1.0000 0.69700  0.07480  0.05580  Biso   1.000  F
  F33      1.0000 0.11850  0.98480  0.44670  Biso   1.000  F
  F34      1.0000 0.38150  0.48480  0.44670  Biso   1.000  F
  F35      1.0000 0.11850  0.51520  0.94670  Biso   1.000  F
  F36      1.0000 0.38150  0.01520  0.94670  Biso   1.000  F
  F37      1.0000 0.88150  0.01520  0.55330  Biso   1.000  F
  F38      1.0000 0.61850  0.51520  0.55330  Biso   1.000  F
  F39      1.0000 0.88150  0.48480  0.05330  Biso   1.000  F
  F40      1.0000 0.61850  0.98480  0.05330  Biso   1.000  F
  F41      1.0000 0.08970  0.06750  0.51080  Biso   1.000  F
  F42      1.0000 0.41030  0.56750  0.51080  Biso   1.000  F
  F43      1.0000 0.08970  0.43250  0.01080  Biso   1.000  F
  F44      1.0000 0.41030  0.93250  0.01080  Biso   1.000  F
  F45      1.0000 0.91030  0.93250  0.48920  Biso   1.000  F
  F46      1.0000 0.58970  0.43250  0.48920  Biso   1.000  F
  F47      1.0000 0.91030  0.56750  0.98920  Biso   1.000  F
  F48      1.0000 0.58970  0.06750  0.98920  Biso   1.000  F
  O17      1.0000 0.13060  0.06390  0.20610  Biso   1.000  O
  O18      1.0000 0.36940  0.56390  0.20610  Biso   1.000  O
  O19      1.0000 0.13060  0.43610  0.70610  Biso   1.000  O
  O20      1.0000 0.36940  0.93610  0.70610  Biso   1.000  O
  O21      1.0000 0.86940  0.93610  0.79390  Biso   1.000  O
  O22      1.0000 0.63060  0.43610  0.79390  Biso   1.000  O
  O23      1.0000 0.86940  0.56390  0.29390  Biso   1.000  O
  O24      1.0000 0.63060  0.06390  0.29390  Biso   1.000  O
  O25      1.0000 0.99380  0.16140  0.17020  Biso   1.000  O
  O26      1.0000 0.50620  0.66140  0.17020  Biso   1.000  O
  O27      1.0000 0.99380  0.33860  0.67020  Biso   1.000  O
  O28      1.0000 0.50620  0.83860  0.67020  Biso   1.000  O
  O29      1.0000 0.00620  0.83860  0.82980  Biso   1.000  O
  O30      1.0000 0.49380  0.33860  0.82980  Biso   1.000  O
  O31      1.0000 0.00620  0.66140  0.32980  Biso   1.000  O
  O32      1.0000 0.49380  0.16140  0.32980  Biso   1.000  O
  C41      1.0000 0.13010  0.05350  0.14390  Biso   1.000  C
  C42      1.0000 0.36990  0.55350  0.14390  Biso   1.000  C
  C43      1.0000 0.13010  0.44650  0.64390  Biso   1.000  C
  C44      1.0000 0.36990  0.94650  0.64390  Biso   1.000  C
  C45      1.0000 0.86990  0.94650  0.85610  Biso   1.000  C
  C46      1.0000 0.63010  0.44650  0.85610  Biso   1.000  C
  C47      1.0000 0.86990  0.55350  0.35610  Biso   1.000  C
  C48      1.0000 0.63010  0.05350  0.35610  Biso   1.000  C
  C49      1.0000 0.07860  0.08600  0.09500  Biso   1.000  C
  C50      1.0000 0.42140  0.58600  0.09500  Biso   1.000  C
  C51      1.0000 0.07860  0.41400  0.59500  Biso   1.000  C
  C52      1.0000 0.42140  0.91400  0.59500  Biso   1.000  C
  C53      1.0000 0.92140  0.91400  0.90500  Biso   1.000  C
  C54      1.0000 0.57860  0.41400  0.90500  Biso   1.000  C
  C55      1.0000 0.92140  0.58600  0.40500  Biso   1.000  C
  C56      1.0000 0.57860  0.08600  0.40500  Biso   1.000  C
  C57      1.0000 0.01530  0.13870  0.11280  Biso   1.000  C
  C58      1.0000 0.48470  0.63870  0.11280  Biso   1.000  C
  C59      1.0000 0.01530  0.36130  0.61280  Biso   1.000  C
  C60      1.0000 0.48470  0.86130  0.61280  Biso   1.000  C
  C61      1.0000 0.98470  0.86130  0.88720  Biso   1.000  C
  C62      1.0000 0.51530  0.36130  0.88720  Biso   1.000  C
  C63      1.0000 0.98470  0.63870  0.38720  Biso   1.000  C
  C64      1.0000 0.51530  0.13870  0.38720  Biso   1.000  C
  H9       1.0000 0.08800  0.07000  0.05400  Biso   1.000  H
  H10      1.0000 0.41200  0.57000  0.05400  Biso   1.000  H
  H11      1.0000 0.08800  0.43000  0.55400  Biso   1.000  H
  H12      1.0000 0.41200  0.93000  0.55400  Biso   1.000  H
  H13      1.0000 0.91200  0.93000  0.94600  Biso   1.000  H
  H14      1.0000 0.58800  0.43000  0.94600  Biso   1.000  H
  H15      1.0000 0.91200  0.57000  0.44600  Biso   1.000  H
  H16      1.0000 0.58800  0.07000  0.44600  Biso   1.000  H
  C65      1.0000 0.19990  0.99680  0.11910  Biso   1.000  C
  C66      1.0000 0.30010  0.49680  0.11910  Biso   1.000  C
  C67      1.0000 0.19990  0.50320  0.61910  Biso   1.000  C
  C68      1.0000 0.30010  0.00320  0.61910  Biso   1.000  C
  C69      1.0000 0.80010  0.00320  0.88090  Biso   1.000  C
  C70      1.0000 0.69990  0.50320  0.88090  Biso   1.000  C
  C71      1.0000 0.80010  0.49680  0.38090  Biso   1.000  C
  C72      1.0000 0.69990  0.99680  0.38090  Biso   1.000  C
  C73      1.0000 0.96190  0.17520  0.05460  Biso   1.000  C
  C74      1.0000 0.53810  0.67520  0.05460  Biso   1.000  C
  C75      1.0000 0.96190  0.32480  0.55460  Biso   1.000  C
  C76      1.0000 0.53810  0.82480  0.55460  Biso   1.000  C
  C77      1.0000 0.03810  0.82480  0.94540  Biso   1.000  C
  C78      1.0000 0.46190  0.32480  0.94540  Biso   1.000  C
  C79      1.0000 0.03810  0.67520  0.44540  Biso   1.000  C
  C80      1.0000 0.46190  0.17520  0.44540  Biso   1.000  C
  F49      1.0000 0.27750  0.01520  0.13330  Biso   1.000  F
  F50      1.0000 0.22250  0.51520  0.13330  Biso   1.000  F
  F51      1.0000 0.27750  0.48480  0.63330  Biso   1.000  F
  F52      1.0000 0.22250  0.98480  0.63330  Biso   1.000  F
  F53      1.0000 0.72250  0.98480  0.86670  Biso   1.000  F
  F54      1.0000 0.77750  0.48480  0.86670  Biso   1.000  F
  F55      1.0000 0.72250  0.51520  0.36670  Biso   1.000  F
  F56      1.0000 0.77750  0.01520  0.36670  Biso   1.000  F
  F57      1.0000 0.19220  0.93460  0.15100  Biso   1.000  F
  F58      1.0000 0.30780  0.43460  0.15100  Biso   1.000  F
  F59      1.0000 0.19220  0.56540  0.65100  Biso   1.000  F
  F60      1.0000 0.30780  0.06540  0.65100  Biso   1.000  F
  F61      1.0000 0.80780  0.06540  0.84900  Biso   1.000  F
  F62      1.0000 0.69220  0.56540  0.84900  Biso   1.000  F
  F63      1.0000 0.80780  0.43460  0.34900  Biso   1.000  F
  F64      1.0000 0.69220  0.93460  0.34900  Biso   1.000  F
  F65      1.0000 0.19830  0.98450  0.05710  Biso   1.000  F
  F66      1.0000 0.30170  0.48450  0.05710  Biso   1.000  F
  F67      1.0000 0.19830  0.51550  0.55710  Biso   1.000  F
  F68      1.0000 0.30170  0.01550  0.55710  Biso   1.000  F
  F69      1.0000 0.80170  0.01550  0.94290  Biso   1.000  F
  F70      1.0000 0.69830  0.51550  0.94290  Biso   1.000  F
  F71      1.0000 0.80170  0.48450  0.44290  Biso   1.000  F
  F72      1.0000 0.69830  0.98450  0.44290  Biso   1.000  F
  F73      1.0000 0.96900  0.24760  0.05610  Biso   1.000  F
  F74      1.0000 0.53100  0.74760  0.05610  Biso   1.000  F
  F75      1.0000 0.96900  0.25240  0.55610  Biso   1.000  F
  F76      1.0000 0.53100  0.75240  0.55610  Biso   1.000  F
  F77      1.0000 0.03100  0.75240  0.94390  Biso   1.000  F
  F78      1.0000 0.46900  0.25240  0.94390  Biso   1.000  F
  F79      1.0000 0.03100  0.74760  0.44390  Biso   1.000  F
  F80      1.0000 0.46900  0.24760  0.44390  Biso   1.000  F
  F81      1.0000 0.98290  0.15330  0.99470  Biso   1.000  F
  F82      1.0000 0.51710  0.65330  0.99470  Biso   1.000  F
  F83      1.0000 0.98290  0.34670  0.49470  Biso   1.000  F
  F84      1.0000 0.51710  0.84670  0.49470  Biso   1.000  F
  F85      1.0000 0.01710  0.84670  0.00530  Biso   1.000  F
  F86      1.0000 0.48290  0.34670  0.00530  Biso   1.000  F
  F87      1.0000 0.01710  0.65330  0.50530  Biso   1.000  F
  F88      1.0000 0.48290  0.15330  0.50530  Biso   1.000  F
  F89      1.0000 0.87860  0.16470  0.06150  Biso   1.000  F
  F90      1.0000 0.62140  0.66470  0.06150  Biso   1.000  F
  F91      1.0000 0.87860  0.33530  0.56150  Biso   1.000  F
  F92      1.0000 0.62140  0.83530  0.56150  Biso   1.000  F
  F93      1.0000 0.12140  0.83530  0.93850  Biso   1.000  F
  F94      1.0000 0.37860  0.33530  0.93850  Biso   1.000  F
  F95      1.0000 0.12140  0.66470  0.43850  Biso   1.000  F
  F96      1.0000 0.37860  0.16470  0.43850  Biso   1.000  F
  O33      1.0000 0.13950  0.22740  0.27830  Biso   1.000  O
  O34      1.0000 0.36050  0.72740  0.27830  Biso   1.000  O
  O35      1.0000 0.13950  0.27260  0.77830  Biso   1.000  O
  O36      1.0000 0.36050  0.77260  0.77830  Biso   1.000  O
  O37      1.0000 0.86050  0.77260  0.72170  Biso   1.000  O
  O38      1.0000 0.63950  0.27260  0.72170  Biso   1.000  O
  O39      1.0000 0.86050  0.72740  0.22170  Biso   1.000  O
  O40      1.0000 0.63950  0.22740  0.22170  Biso   1.000  O
  N1       1.0000 0.15190  0.29660  0.28930  Biso   1.000  N
  N2       1.0000 0.34810  0.79660  0.28930  Biso   1.000  N
  N3       1.0000 0.15190  0.20340  0.78930  Biso   1.000  N
  N4       1.0000 0.34810  0.70340  0.78930  Biso   1.000  N
  N5       1.0000 0.84810  0.70340  0.71070  Biso   1.000  N
  N6       1.0000 0.65190  0.20340  0.71070  Biso   1.000  N
  N7       1.0000 0.84810  0.79660  0.21070  Biso   1.000  N
  N8       1.0000 0.65190  0.29660  0.21070  Biso   1.000  N
  O41      1.0000 0.05020  0.51550  0.25420  Biso   1.000  O
  O42      1.0000 0.44980  0.01550  0.25420  Biso   1.000  O
  O43      1.0000 0.05020  0.98450  0.75420  Biso   1.000  O
  O44      1.0000 0.44980  0.48450  0.75420  Biso   1.000  O
  O45      1.0000 0.94980  0.48450  0.74580  Biso   1.000  O
  O46      1.0000 0.55020  0.98450  0.74580  Biso   1.000  O
  O47      1.0000 0.94980  0.01550  0.24580  Biso   1.000  O
  O48      1.0000 0.55020  0.51550  0.24580  Biso   1.000  O
  N9       1.0000 0.21440  0.40570  0.32700  Biso   1.000  N
  N10      1.0000 0.28560  0.90570  0.32700  Biso   1.000  N
  N11      1.0000 0.21440  0.09430  0.82700  Biso   1.000  N
  N12      1.0000 0.28560  0.59430  0.82700  Biso   1.000  N
  N13      1.0000 0.78560  0.59430  0.67300  Biso   1.000  N
  N14      1.0000 0.71440  0.09430  0.67300  Biso   1.000  N
  N15      1.0000 0.78560  0.90570  0.17300  Biso   1.000  N
  N16      1.0000 0.71440  0.40570  0.17300  Biso   1.000  N
  N17      1.0000 0.18270  0.55390  0.29420  Biso   1.000  N
  N18      1.0000 0.31730  0.05390  0.29420  Biso   1.000  N
  N19      1.0000 0.18270  0.94610  0.79420  Biso   1.000  N
  N20      1.0000 0.31730  0.44610  0.79420  Biso   1.000  N
  N21      1.0000 0.81730  0.44610  0.70580  Biso   1.000  N
  N22      1.0000 0.68270  0.94610  0.70580  Biso   1.000  N
  N23      1.0000 0.81730  0.05390  0.20580  Biso   1.000  N
  N24      1.0000 0.68270  0.55390  0.20580  Biso   1.000  N
  C81      1.0000 0.09630  0.35730  0.26260  Biso   1.000  C
  C82      1.0000 0.40370  0.85730  0.26260  Biso   1.000  C
  C83      1.0000 0.09630  0.14270  0.76260  Biso   1.000  C
  C84      1.0000 0.40370  0.64270  0.76260  Biso   1.000  C
  C85      1.0000 0.90370  0.64270  0.73740  Biso   1.000  C
  C86      1.0000 0.59630  0.14270  0.73740  Biso   1.000  C
  C87      1.0000 0.90370  0.85730  0.23740  Biso   1.000  C
  C88      1.0000 0.59630  0.35730  0.23740  Biso   1.000  C
  C89      1.0000 0.09530  0.35360  0.18600  Biso   1.000  C
  C90      1.0000 0.40470  0.85360  0.18600  Biso   1.000  C
  C91      1.0000 0.09530  0.14640  0.68600  Biso   1.000  C
  C92      1.0000 0.40470  0.64640  0.68600  Biso   1.000  C
  C93      1.0000 0.90470  0.64640  0.81400  Biso   1.000  C
  C94      1.0000 0.59530  0.14640  0.81400  Biso   1.000  C
  C95      1.0000 0.90470  0.85360  0.31400  Biso   1.000  C
  C96      1.0000 0.59530  0.35360  0.31400  Biso   1.000  C
  H17      1.0000 0.05400  0.39800  0.16600  Biso   1.000  H
  H18      1.0000 0.44600  0.89800  0.16600  Biso   1.000  H
  H19      1.0000 0.05400  0.10200  0.66600  Biso   1.000  H
  H20      1.0000 0.44600  0.60200  0.66600  Biso   1.000  H
  H21      1.0000 0.94600  0.60200  0.83400  Biso   1.000  H
  H22      1.0000 0.55400  0.10200  0.83400  Biso   1.000  H
  H23      1.0000 0.94600  0.89800  0.33400  Biso   1.000  H
  H24      1.0000 0.55400  0.39800  0.33400  Biso   1.000  H
  H25      1.0000 0.06900  0.30000  0.17000  Biso   1.000  H
  H26      1.0000 0.43100  0.80000  0.17000  Biso   1.000  H
  H27      1.0000 0.06900  0.20000  0.67000  Biso   1.000  H
  H28      1.0000 0.43100  0.70000  0.67000  Biso   1.000  H
  H29      1.0000 0.93100  0.70000  0.83000  Biso   1.000  H
  H30      1.0000 0.56900  0.20000  0.83000  Biso   1.000  H
  H31      1.0000 0.93100  0.80000  0.33000  Biso   1.000  H
  H32      1.0000 0.56900  0.30000  0.33000  Biso   1.000  H
  H33      1.0000 0.16100  0.35900  0.16700  Biso   1.000  H
  H34      1.0000 0.33900  0.85900  0.16700  Biso   1.000  H
  H35      1.0000 0.16100  0.14100  0.66700  Biso   1.000  H
  H36      1.0000 0.33900  0.64100  0.66700  Biso   1.000  H
  H37      1.0000 0.83900  0.64100  0.83300  Biso   1.000  H
  H38      1.0000 0.66100  0.14100  0.83300  Biso   1.000  H
  H39      1.0000 0.83900  0.85900  0.33300  Biso   1.000  H
  H40      1.0000 0.66100  0.35900  0.33300  Biso   1.000  H
  C97      1.0000 0.00390  0.35230  0.29620  Biso   1.000  C
  C98      1.0000 0.49610  0.85230  0.29620  Biso   1.000  C
  C99      1.0000 0.00390  0.14770  0.79620  Biso   1.000  C
  C100     1.0000 0.49610  0.64770  0.79620  Biso   1.000  C
  C101     1.0000 0.99610  0.64770  0.70380  Biso   1.000  C
  C102     1.0000 0.50390  0.14770  0.70380  Biso   1.000  C
  C103     1.0000 0.99610  0.85230  0.20380  Biso   1.000  C
  C104     1.0000 0.50390  0.35230  0.20380  Biso   1.000  C
  H41      1.0000 0.96300  0.39700  0.27700  Biso   1.000  H
  H42      1.0000 0.53700  0.89700  0.27700  Biso   1.000  H
  H43      1.0000 0.96300  0.10300  0.77700  Biso   1.000  H
  H44      1.0000 0.53700  0.60300  0.77700  Biso   1.000  H
  H45      1.0000 0.03700  0.60300  0.72300  Biso   1.000  H
  H46      1.0000 0.46300  0.10300  0.72300  Biso   1.000  H
  H47      1.0000 0.03700  0.89700  0.22300  Biso   1.000  H
  H48      1.0000 0.46300  0.39700  0.22300  Biso   1.000  H
  H49      1.0000 0.01000  0.35800  0.35100  Biso   1.000  H
  H50      1.0000 0.49000  0.85800  0.35100  Biso   1.000  H
  H51      1.0000 0.01000  0.14200  0.85100  Biso   1.000  H
  H52      1.0000 0.49000  0.64200  0.85100  Biso   1.000  H
  H53      1.0000 0.99000  0.64200  0.64900  Biso   1.000  H
  H54      1.0000 0.51000  0.14200  0.64900  Biso   1.000  H
  H55      1.0000 0.99000  0.85800  0.14900  Biso   1.000  H
  H56      1.0000 0.51000  0.35800  0.14900  Biso   1.000  H
  H57      1.0000 0.97500  0.29900  0.28400  Biso   1.000  H
  H58      1.0000 0.52500  0.79900  0.28400  Biso   1.000  H
  H59      1.0000 0.97500  0.20100  0.78400  Biso   1.000  H
  H60      1.0000 0.52500  0.70100  0.78400  Biso   1.000  H
  H61      1.0000 0.02500  0.70100  0.71600  Biso   1.000  H
  H62      1.0000 0.47500  0.20100  0.71600  Biso   1.000  H
  H63      1.0000 0.02500  0.79900  0.21600  Biso   1.000  H
  H64      1.0000 0.47500  0.29900  0.21600  Biso   1.000  H
  C105     1.0000 0.12360  0.50170  0.27860  Biso   1.000  C
  C106     1.0000 0.37640  0.00170  0.27860  Biso   1.000  C
  C107     1.0000 0.12360  0.99830  0.77860  Biso   1.000  C
  C108     1.0000 0.37640  0.49830  0.77860  Biso   1.000  C
  C109     1.0000 0.87640  0.49830  0.72140  Biso   1.000  C
  C110     1.0000 0.62360  0.99830  0.72140  Biso   1.000  C
  C111     1.0000 0.87640  0.00170  0.22140  Biso   1.000  C
  C112     1.0000 0.62360  0.50170  0.22140  Biso   1.000  C
  C113     1.0000 0.14910  0.42170  0.29020  Biso   1.000  C
  C114     1.0000 0.35090  0.92170  0.29020  Biso   1.000  C
  C115     1.0000 0.14910  0.07830  0.79020  Biso   1.000  C
  C116     1.0000 0.35090  0.57830  0.79020  Biso   1.000  C
  C117     1.0000 0.85090  0.57830  0.70980  Biso   1.000  C
  C118     1.0000 0.64910  0.07830  0.70980  Biso   1.000  C
  C119     1.0000 0.85090  0.92170  0.20980  Biso   1.000  C
  C120     1.0000 0.64910  0.42170  0.20980  Biso   1.000  C
  C121     1.0000 0.22370  0.32450  0.33300  Biso   1.000  C
  C122     1.0000 0.27630  0.82450  0.33300  Biso   1.000  C
  C123     1.0000 0.22370  0.17550  0.83300  Biso   1.000  C
  C124     1.0000 0.27630  0.67550  0.83300  Biso   1.000  C
  C125     1.0000 0.77630  0.67550  0.66700  Biso   1.000  C
  C126     1.0000 0.72370  0.17550  0.66700  Biso   1.000  C
  C127     1.0000 0.77630  0.82450  0.16700  Biso   1.000  C
  C128     1.0000 0.72370  0.32450  0.16700  Biso   1.000  C
  C129     1.0000 0.21180  0.30150  0.40560  Biso   1.000  C
  C130     1.0000 0.28820  0.80150  0.40560  Biso   1.000  C
  C131     1.0000 0.21180  0.19850  0.90560  Biso   1.000  C
  C132     1.0000 0.28820  0.69850  0.90560  Biso   1.000  C
  C133     1.0000 0.78820  0.69850  0.59440  Biso   1.000  C
  C134     1.0000 0.71180  0.19850  0.59440  Biso   1.000  C
  C135     1.0000 0.78820  0.80150  0.09440  Biso   1.000  C
  C136     1.0000 0.71180  0.30150  0.09440  Biso   1.000  C
  H65      1.0000 0.21860  0.24130  0.40990  Biso   1.000  H
  H66      1.0000 0.28140  0.74130  0.40990  Biso   1.000  H
  H67      1.0000 0.21860  0.25870  0.90990  Biso   1.000  H
  H68      1.0000 0.28140  0.75870  0.90990  Biso   1.000  H
  H69      1.0000 0.78140  0.75870  0.59010  Biso   1.000  H
  H70      1.0000 0.71860  0.25870  0.59010  Biso   1.000  H
  H71      1.0000 0.78140  0.74130  0.09010  Biso   1.000  H
  H72      1.0000 0.71860  0.24130  0.09010  Biso   1.000  H
  H73      1.0000 0.14700  0.31800  0.42300  Biso   1.000  H
  H74      1.0000 0.35300  0.81800  0.42300  Biso   1.000  H
  H75      1.0000 0.14700  0.18200  0.92300  Biso   1.000  H
  H76      1.0000 0.35300  0.68200  0.92300  Biso   1.000  H
  H77      1.0000 0.85300  0.68200  0.57700  Biso   1.000  H
  H78      1.0000 0.64700  0.18200  0.57700  Biso   1.000  H
  H79      1.0000 0.85300  0.81800  0.07700  Biso   1.000  H
  H80      1.0000 0.64700  0.31800  0.07700  Biso   1.000  H
  H81      1.0000 0.26100  0.32900  0.43700  Biso   1.000  H
  H82      1.0000 0.23900  0.82900  0.43700  Biso   1.000  H
  H83      1.0000 0.26100  0.17100  0.93700  Biso   1.000  H
  H84      1.0000 0.23900  0.67100  0.93700  Biso   1.000  H
  H85      1.0000 0.73900  0.67100  0.56300  Biso   1.000  H
  H86      1.0000 0.76100  0.17100  0.56300  Biso   1.000  H
  H87      1.0000 0.73900  0.82900  0.06300  Biso   1.000  H
  H88      1.0000 0.76100  0.32900  0.06300  Biso   1.000  H
  C137     1.0000 0.31100  0.29810  0.30450  Biso   1.000  C
  C138     1.0000 0.18900  0.79810  0.30450  Biso   1.000  C
  C139     1.0000 0.31100  0.20190  0.80450  Biso   1.000  C
  C140     1.0000 0.18900  0.70190  0.80450  Biso   1.000  C
  C141     1.0000 0.68900  0.70190  0.69550  Biso   1.000  C
  C142     1.0000 0.81100  0.20190  0.69550  Biso   1.000  C
  C143     1.0000 0.68900  0.79810  0.19550  Biso   1.000  C
  C144     1.0000 0.81100  0.29810  0.19550  Biso   1.000  C
  H89      1.0000 0.36300  0.31800  0.33600  Biso   1.000  H
  H90      1.0000 0.13700  0.81800  0.33600  Biso   1.000  H
  H91      1.0000 0.36300  0.18200  0.83600  Biso   1.000  H
  H92      1.0000 0.13700  0.68200  0.83600  Biso   1.000  H
  H93      1.0000 0.63700  0.68200  0.66400  Biso   1.000  H
  H94      1.0000 0.86300  0.18200  0.66400  Biso   1.000  H
  H95      1.0000 0.63700  0.81800  0.16400  Biso   1.000  H
  H96      1.0000 0.86300  0.31800  0.16400  Biso   1.000  H
  H97      1.0000 0.31900  0.32000  0.25400  Biso   1.000  H
  H98      1.0000 0.18100  0.82000  0.25400  Biso   1.000  H
  H99      1.0000 0.31900  0.18000  0.75400  Biso   1.000  H
  H100     1.0000 0.18100  0.68000  0.75400  Biso   1.000  H
  H101     1.0000 0.68100  0.68000  0.74600  Biso   1.000  H
  H102     1.0000 0.81900  0.18000  0.74600  Biso   1.000  H
  H103     1.0000 0.68100  0.82000  0.24600  Biso   1.000  H
  H104     1.0000 0.81900  0.32000  0.24600  Biso   1.000  H
  H105     1.0000 0.31200  0.23800  0.30300  Biso   1.000  H
  H106     1.0000 0.18800  0.73800  0.30300  Biso   1.000  H
  H107     1.0000 0.31200  0.26200  0.80300  Biso   1.000  H
  H108     1.0000 0.18800  0.76200  0.80300  Biso   1.000  H
  H109     1.0000 0.68800  0.76200  0.69700  Biso   1.000  H
  H110     1.0000 0.81200  0.26200  0.69700  Biso   1.000  H
  H111     1.0000 0.68800  0.73800  0.19700  Biso   1.000  H
  H112     1.0000 0.81200  0.23800  0.19700  Biso   1.000  H
