data_image0
_cell_length_a       15.6055
_cell_length_b       15.6055
_cell_length_c       18.2575
_cell_angle_alpha    90
_cell_angle_beta     90
_cell_angle_gamma    90

_symmetry_space_group_name_H-M    "P 1"
_symmetry_int_tables_number       1

loop_
  _symmetry_equiv_pos_as_xyz
  'x, y, z'

loop_
  _atom_site_label
  _atom_site_occupancy
  _atom_site_fract_x
  _atom_site_fract_y
  _atom_site_fract_z
  _atom_site_thermal_displace_type
  _atom_site_B_iso_or_equiv
  _atom_site_type_symbol
  W1       1.0000 0.63424  0.68254  0.50000  Biso   1.000  W
  W2       1.0000 0.36576  0.31746  0.50000  Biso   1.000  W
  W3       1.0000 0.31746  0.63424  0.50000  Biso   1.000  W
  W4       1.0000 0.68254  0.36576  0.50000  Biso   1.000  W
  W5       1.0000 0.13424  0.18254  0.00000  Biso   1.000  W
  W6       1.0000 0.86576  0.81746  0.00000  Biso   1.000  W
  W7       1.0000 0.81746  0.13424  0.00000  Biso   1.000  W
  W8       1.0000 0.18254  0.86576  0.00000  Biso   1.000  W
  W9       1.0000 0.47534  0.65833  0.63657  Biso   1.000  W
  W10      1.0000 0.52466  0.34167  0.63657  Biso   1.000  W
  W11      1.0000 0.34167  0.47534  0.63657  Biso   1.000  W
  W12      1.0000 0.65833  0.52466  0.63657  Biso   1.000  W
  W13      1.0000 0.97534  0.15833  0.13657  Biso   1.000  W
  W14      1.0000 0.02466  0.84167  0.13657  Biso   1.000  W
  W15      1.0000 0.84167  0.97534  0.13657  Biso   1.000  W
  W16      1.0000 0.15833  0.02466  0.13657  Biso   1.000  W
  W17      1.0000 0.52466  0.34167  0.36343  Biso   1.000  W
  W18      1.0000 0.47534  0.65833  0.36343  Biso   1.000  W
  W19      1.0000 0.65833  0.52466  0.36343  Biso   1.000  W
  W20      1.0000 0.34167  0.47534  0.36343  Biso   1.000  W
  W21      1.0000 0.02466  0.84167  0.86343  Biso   1.000  W
  W22      1.0000 0.97534  0.15833  0.86343  Biso   1.000  W
  W23      1.0000 0.15833  0.02466  0.86343  Biso   1.000  W
  W24      1.0000 0.84167  0.97534  0.86343  Biso   1.000  W
  Si1      1.0000 0.50000  0.50000  0.50000  Biso   1.000  Si
  Si2      1.0000 0.00000  0.00000  0.00000  Biso   1.000  Si
  O1       1.0000 0.46530  0.73400  0.70170  Biso   1.000  O
  O2       1.0000 0.53470  0.26600  0.70170  Biso   1.000  O
  O3       1.0000 0.26600  0.46530  0.70170  Biso   1.000  O
  O4       1.0000 0.73400  0.53470  0.70170  Biso   1.000  O
  O5       1.0000 0.96530  0.23400  0.20170  Biso   1.000  O
  O6       1.0000 0.03470  0.76600  0.20170  Biso   1.000  O
  O7       1.0000 0.76600  0.96530  0.20170  Biso   1.000  O
  O8       1.0000 0.23400  0.03470  0.20170  Biso   1.000  O
  O9       1.0000 0.53470  0.26600  0.29830  Biso   1.000  O
  O10      1.0000 0.46530  0.73400  0.29830  Biso   1.000  O
  O11      1.0000 0.73400  0.53470  0.29830  Biso   1.000  O
  O12      1.0000 0.26600  0.46530  0.29830  Biso   1.000  O
  O13      1.0000 0.03470  0.76600  0.79830  Biso   1.000  O
  O14      1.0000 0.96530  0.23400  0.79830  Biso   1.000  O
  O15      1.0000 0.23400  0.03470  0.79830  Biso   1.000  O
  O16      1.0000 0.76600  0.96530  0.79830  Biso   1.000  O
  O17      1.0000 0.70690  0.76750  0.50000  Biso   1.000  O
  O18      1.0000 0.29310  0.23250  0.50000  Biso   1.000  O
  O19      1.0000 0.23250  0.70690  0.50000  Biso   1.000  O
  O20      1.0000 0.76750  0.29310  0.50000  Biso   1.000  O
  O21      1.0000 0.20690  0.26750  0.00000  Biso   1.000  O
  O22      1.0000 0.79310  0.73250  0.00000  Biso   1.000  O
  O23      1.0000 0.73250  0.20690  0.00000  Biso   1.000  O
  O24      1.0000 0.26750  0.79310  0.00000  Biso   1.000  O
  O25      1.0000 0.55190  0.71860  0.57230  Biso   1.000  O
  O26      1.0000 0.44810  0.28140  0.57230  Biso   1.000  O
  O27      1.0000 0.28140  0.55190  0.57230  Biso   1.000  O
  O28      1.0000 0.71860  0.44810  0.57230  Biso   1.000  O
  O29      1.0000 0.05190  0.21860  0.07230  Biso   1.000  O
  O30      1.0000 0.94810  0.78140  0.07230  Biso   1.000  O
  O31      1.0000 0.78140  0.05190  0.07230  Biso   1.000  O
  O32      1.0000 0.21860  0.94810  0.07230  Biso   1.000  O
  O33      1.0000 0.44810  0.28140  0.42770  Biso   1.000  O
  O34      1.0000 0.55190  0.71860  0.42770  Biso   1.000  O
  O35      1.0000 0.71860  0.44810  0.42770  Biso   1.000  O
  O36      1.0000 0.28140  0.55190  0.42770  Biso   1.000  O
  O37      1.0000 0.94810  0.78140  0.92770  Biso   1.000  O
  O38      1.0000 0.05190  0.21860  0.92770  Biso   1.000  O
  O39      1.0000 0.21860  0.94810  0.92770  Biso   1.000  O
  O40      1.0000 0.78140  0.05190  0.92770  Biso   1.000  O
  O41      1.0000 0.38850  0.69130  0.57180  Biso   1.000  O
  O42      1.0000 0.61150  0.30870  0.57180  Biso   1.000  O
  O43      1.0000 0.30870  0.38850  0.57180  Biso   1.000  O
  O44      1.0000 0.69130  0.61150  0.57180  Biso   1.000  O
  O45      1.0000 0.88850  0.19130  0.07180  Biso   1.000  O
  O46      1.0000 0.11150  0.80870  0.07180  Biso   1.000  O
  O47      1.0000 0.80870  0.88850  0.07180  Biso   1.000  O
  O48      1.0000 0.19130  0.11150  0.07180  Biso   1.000  O
  O49      1.0000 0.61150  0.30870  0.42820  Biso   1.000  O
  O50      1.0000 0.38850  0.69130  0.42820  Biso   1.000  O
  O51      1.0000 0.69130  0.61150  0.42820  Biso   1.000  O
  O52      1.0000 0.30870  0.38850  0.42820  Biso   1.000  O
  O53      1.0000 0.11150  0.80870  0.92820  Biso   1.000  O
  O54      1.0000 0.88850  0.19130  0.92820  Biso   1.000  O
  O55      1.0000 0.19130  0.11150  0.92820  Biso   1.000  O
  O56      1.0000 0.80870  0.88850  0.92820  Biso   1.000  O
  O57      1.0000 0.40480  0.56880  0.67310  Biso   1.000  O
  O58      1.0000 0.59520  0.43120  0.67310  Biso   1.000  O
  O59      1.0000 0.43120  0.40480  0.67310  Biso   1.000  O
  O60      1.0000 0.56880  0.59520  0.67310  Biso   1.000  O
  O61      1.0000 0.90480  0.06880  0.17310  Biso   1.000  O
  O62      1.0000 0.09520  0.93120  0.17310  Biso   1.000  O
  O63      1.0000 0.93120  0.90480  0.17310  Biso   1.000  O
  O64      1.0000 0.06880  0.09520  0.17310  Biso   1.000  O
  O65      1.0000 0.59520  0.43120  0.32690  Biso   1.000  O
  O66      1.0000 0.40480  0.56880  0.32690  Biso   1.000  O
  O67      1.0000 0.56880  0.59520  0.32690  Biso   1.000  O
  O68      1.0000 0.43120  0.40480  0.32690  Biso   1.000  O
  O69      1.0000 0.09520  0.93120  0.82690  Biso   1.000  O
  O70      1.0000 0.90480  0.06880  0.82690  Biso   1.000  O
  O71      1.0000 0.06880  0.09520  0.82690  Biso   1.000  O
  O72      1.0000 0.93120  0.90480  0.82690  Biso   1.000  O
  O73      1.0000 0.55270  0.56960  0.55270  Biso   1.000  O
  O74      1.0000 0.44730  0.43040  0.55270  Biso   1.000  O
  O75      1.0000 0.43040  0.55270  0.55270  Biso   1.000  O
  O76      1.0000 0.56960  0.44730  0.55270  Biso   1.000  O
  O77      1.0000 0.05270  0.06960  0.05270  Biso   1.000  O
  O78      1.0000 0.94730  0.93040  0.05270  Biso   1.000  O
  O79      1.0000 0.93040  0.05270  0.05270  Biso   1.000  O
  O80      1.0000 0.06960  0.94730  0.05270  Biso   1.000  O
  O81      1.0000 0.44730  0.43040  0.44730  Biso   1.000  O
  O82      1.0000 0.55270  0.56960  0.44730  Biso   1.000  O
  O83      1.0000 0.56960  0.44730  0.44730  Biso   1.000  O
  O84      1.0000 0.43040  0.55270  0.44730  Biso   1.000  O
  O85      1.0000 0.94730  0.93040  0.94730  Biso   1.000  O
  O86      1.0000 0.05270  0.06960  0.94730  Biso   1.000  O
  O87      1.0000 0.06960  0.94730  0.94730  Biso   1.000  O
  O88      1.0000 0.93040  0.05270  0.94730  Biso   1.000  O
  Cu1      1.0000 0.50050  0.66040  0.00000  Biso   1.000  Cu
  Cu2      1.0000 0.49950  0.33960  0.00000  Biso   1.000  Cu
  Cu3      1.0000 0.33960  0.50050  0.00000  Biso   1.000  Cu
  Cu4      1.0000 0.66040  0.49950  0.00000  Biso   1.000  Cu
  Cu5      1.0000 0.00050  0.16040  0.50000  Biso   1.000  Cu
  Cu6      1.0000 0.99950  0.83960  0.50000  Biso   1.000  Cu
  Cu7      1.0000 0.83960  0.00050  0.50000  Biso   1.000  Cu
  Cu8      1.0000 0.16040  0.99950  0.50000  Biso   1.000  Cu
  Cl1      1.0000 0.50000  0.50000  0.00000  Biso   1.000  Cl
  Cl2      1.0000 0.00000  0.00000  0.50000  Biso   1.000  Cl
  N1       1.0000 0.59800  0.66300  0.92900  Biso   1.000  N
  N2       1.0000 0.40200  0.33700  0.92900  Biso   1.000  N
  N3       1.0000 0.33700  0.59800  0.92900  Biso   1.000  N
  N4       1.0000 0.66300  0.40200  0.92900  Biso   1.000  N
  N5       1.0000 0.09800  0.16300  0.42900  Biso   1.000  N
  N6       1.0000 0.90200  0.83700  0.42900  Biso   1.000  N
  N7       1.0000 0.83700  0.09800  0.42900  Biso   1.000  N
  N8       1.0000 0.16300  0.90200  0.42900  Biso   1.000  N
  N9       1.0000 0.40200  0.33700  0.07100  Biso   1.000  N
  N10      1.0000 0.59800  0.66300  0.07100  Biso   1.000  N
  N11      1.0000 0.66300  0.40200  0.07100  Biso   1.000  N
  N12      1.0000 0.33700  0.59800  0.07100  Biso   1.000  N
  N13      1.0000 0.90200  0.83700  0.57100  Biso   1.000  N
  N14      1.0000 0.09800  0.16300  0.57100  Biso   1.000  N
  N15      1.0000 0.16300  0.90200  0.57100  Biso   1.000  N
  N16      1.0000 0.83700  0.09800  0.57100  Biso   1.000  N
  N17      1.0000 0.66000  0.59940  0.92450  Biso   1.000  N
  N18      1.0000 0.34000  0.40060  0.92450  Biso   1.000  N
  N19      1.0000 0.40060  0.66000  0.92450  Biso   1.000  N
  N20      1.0000 0.59940  0.34000  0.92450  Biso   1.000  N
  N21      1.0000 0.16000  0.09940  0.42450  Biso   1.000  N
  N22      1.0000 0.84000  0.90060  0.42450  Biso   1.000  N
  N23      1.0000 0.90060  0.16000  0.42450  Biso   1.000  N
  N24      1.0000 0.09940  0.84000  0.42450  Biso   1.000  N
  N25      1.0000 0.34000  0.40060  0.07550  Biso   1.000  N
  N26      1.0000 0.66000  0.59940  0.07550  Biso   1.000  N
  N27      1.0000 0.59940  0.34000  0.07550  Biso   1.000  N
  N28      1.0000 0.40060  0.66000  0.07550  Biso   1.000  N
  N29      1.0000 0.84000  0.90060  0.57550  Biso   1.000  N
  N30      1.0000 0.16000  0.09940  0.57550  Biso   1.000  N
  N31      1.0000 0.09940  0.84000  0.57550  Biso   1.000  N
  N32      1.0000 0.90060  0.16000  0.57550  Biso   1.000  N
  N33      1.0000 0.68780  0.68980  0.83790  Biso   1.000  N
  N34      1.0000 0.31220  0.31020  0.83790  Biso   1.000  N
  N35      1.0000 0.31020  0.68780  0.83790  Biso   1.000  N
  N36      1.0000 0.68980  0.31220  0.83790  Biso   1.000  N
  N37      1.0000 0.18780  0.18980  0.33790  Biso   1.000  N
  N38      1.0000 0.81220  0.81020  0.33790  Biso   1.000  N
  N39      1.0000 0.81020  0.18780  0.33790  Biso   1.000  N
  N40      1.0000 0.18980  0.81220  0.33790  Biso   1.000  N
  N41      1.0000 0.31220  0.31020  0.16210  Biso   1.000  N
  N42      1.0000 0.68780  0.68980  0.16210  Biso   1.000  N
  N43      1.0000 0.68980  0.31220  0.16210  Biso   1.000  N
  N44      1.0000 0.31020  0.68780  0.16210  Biso   1.000  N
  N45      1.0000 0.81220  0.81020  0.66210  Biso   1.000  N
  N46      1.0000 0.18780  0.18980  0.66210  Biso   1.000  N
  N47      1.0000 0.18980  0.81220  0.66210  Biso   1.000  N
  N48      1.0000 0.81020  0.18780  0.66210  Biso   1.000  N
  C1       1.0000 0.64500  0.73300  0.78640  Biso   1.000  C
  C2       1.0000 0.35500  0.26700  0.78640  Biso   1.000  C
  C3       1.0000 0.26700  0.64500  0.78640  Biso   1.000  C
  C4       1.0000 0.73300  0.35500  0.78640  Biso   1.000  C
  C5       1.0000 0.14500  0.23300  0.28640  Biso   1.000  C
  C6       1.0000 0.85500  0.76700  0.28640  Biso   1.000  C
  C7       1.0000 0.76700  0.14500  0.28640  Biso   1.000  C
  C8       1.0000 0.23300  0.85500  0.28640  Biso   1.000  C
  C9       1.0000 0.35500  0.26700  0.21360  Biso   1.000  C
  C10      1.0000 0.64500  0.73300  0.21360  Biso   1.000  C
  C11      1.0000 0.73300  0.35500  0.21360  Biso   1.000  C
  C12      1.0000 0.26700  0.64500  0.21360  Biso   1.000  C
  C13      1.0000 0.85500  0.76700  0.71360  Biso   1.000  C
  C14      1.0000 0.14500  0.23300  0.71360  Biso   1.000  C
  C15      1.0000 0.23300  0.85500  0.71360  Biso   1.000  C
  C16      1.0000 0.76700  0.14500  0.71360  Biso   1.000  C
  H1       1.0000 0.58497  0.73090  0.78820  Biso   1.000  H
  H2       1.0000 0.41503  0.26910  0.78820  Biso   1.000  H
  H3       1.0000 0.26910  0.58497  0.78820  Biso   1.000  H
  H4       1.0000 0.73090  0.41503  0.78820  Biso   1.000  H
  H5       1.0000 0.08497  0.23090  0.28820  Biso   1.000  H
  H6       1.0000 0.91503  0.76910  0.28820  Biso   1.000  H
  H7       1.0000 0.76910  0.08497  0.28820  Biso   1.000  H
  H8       1.0000 0.23090  0.91503  0.28820  Biso   1.000  H
  H9       1.0000 0.41503  0.26910  0.21180  Biso   1.000  H
  H10      1.0000 0.58497  0.73090  0.21180  Biso   1.000  H
  H11      1.0000 0.73090  0.41503  0.21180  Biso   1.000  H
  H12      1.0000 0.26910  0.58497  0.21180  Biso   1.000  H
  H13      1.0000 0.91503  0.76910  0.71180  Biso   1.000  H
  H14      1.0000 0.08497  0.23090  0.71180  Biso   1.000  H
  H15      1.0000 0.23090  0.91503  0.71180  Biso   1.000  H
  H16      1.0000 0.76910  0.08497  0.71180  Biso   1.000  H
  C17      1.0000 0.72440  0.73210  0.77840  Biso   1.000  C
  C18      1.0000 0.27560  0.26790  0.77840  Biso   1.000  C
  C19      1.0000 0.26790  0.72440  0.77840  Biso   1.000  C
  C20      1.0000 0.73210  0.27560  0.77840  Biso   1.000  C
  C21      1.0000 0.22440  0.23210  0.27840  Biso   1.000  C
  C22      1.0000 0.77560  0.76790  0.27840  Biso   1.000  C
  C23      1.0000 0.76790  0.22440  0.27840  Biso   1.000  C
  C24      1.0000 0.23210  0.77560  0.27840  Biso   1.000  C
  C25      1.0000 0.27560  0.26790  0.22160  Biso   1.000  C
  C26      1.0000 0.72440  0.73210  0.22160  Biso   1.000  C
  C27      1.0000 0.73210  0.27560  0.22160  Biso   1.000  C
  C28      1.0000 0.26790  0.72440  0.22160  Biso   1.000  C
  C29      1.0000 0.77560  0.76790  0.72160  Biso   1.000  C
  C30      1.0000 0.22440  0.23210  0.72160  Biso   1.000  C
  C31      1.0000 0.23210  0.77560  0.72160  Biso   1.000  C
  C32      1.0000 0.76790  0.22440  0.72160  Biso   1.000  C
  C33      1.0000 0.70800  0.61700  0.87120  Biso   1.000  C
  C34      1.0000 0.29200  0.38300  0.87120  Biso   1.000  C
  C35      1.0000 0.38300  0.70800  0.87120  Biso   1.000  C
  C36      1.0000 0.61700  0.29200  0.87120  Biso   1.000  C
  C37      1.0000 0.20800  0.11700  0.37120  Biso   1.000  C
  C38      1.0000 0.79200  0.88300  0.37120  Biso   1.000  C
  C39      1.0000 0.88300  0.20800  0.37120  Biso   1.000  C
  C40      1.0000 0.11700  0.79200  0.37120  Biso   1.000  C
  C41      1.0000 0.29200  0.38300  0.12880  Biso   1.000  C
  C42      1.0000 0.70800  0.61700  0.12880  Biso   1.000  C
  C43      1.0000 0.61700  0.29200  0.12880  Biso   1.000  C
  C44      1.0000 0.38300  0.70800  0.12880  Biso   1.000  C
  C45      1.0000 0.79200  0.88300  0.62880  Biso   1.000  C
  C46      1.0000 0.20800  0.11700  0.62880  Biso   1.000  C
  C47      1.0000 0.11700  0.79200  0.62880  Biso   1.000  C
  C48      1.0000 0.88300  0.20800  0.62880  Biso   1.000  C
  C49      1.0000 0.68240  0.77930  0.73080  Biso   1.000  C
  C50      1.0000 0.31760  0.22070  0.73080  Biso   1.000  C
  C51      1.0000 0.22070  0.68240  0.73080  Biso   1.000  C
  C52      1.0000 0.77930  0.31760  0.73080  Biso   1.000  C
  C53      1.0000 0.18240  0.27930  0.23080  Biso   1.000  C
  C54      1.0000 0.81760  0.72070  0.23080  Biso   1.000  C
  C55      1.0000 0.72070  0.18240  0.23080  Biso   1.000  C
  C56      1.0000 0.27930  0.81760  0.23080  Biso   1.000  C
  C57      1.0000 0.31760  0.22070  0.26920  Biso   1.000  C
  C58      1.0000 0.68240  0.77930  0.26920  Biso   1.000  C
  C59      1.0000 0.77930  0.31760  0.26920  Biso   1.000  C
  C60      1.0000 0.22070  0.68240  0.26920  Biso   1.000  C
  C61      1.0000 0.81760  0.72070  0.76920  Biso   1.000  C
  C62      1.0000 0.18240  0.27930  0.76920  Biso   1.000  C
  C63      1.0000 0.27930  0.81760  0.76920  Biso   1.000  C
  C64      1.0000 0.72070  0.18240  0.76920  Biso   1.000  C
  H17      1.0000 0.63086  0.79894  0.71637  Biso   1.000  H
  H18      1.0000 0.36914  0.20106  0.71637  Biso   1.000  H
  H19      1.0000 0.20106  0.63086  0.71637  Biso   1.000  H
  H20      1.0000 0.79894  0.36914  0.71637  Biso   1.000  H
  H21      1.0000 0.13086  0.29894  0.21637  Biso   1.000  H
  H22      1.0000 0.86914  0.70106  0.21637  Biso   1.000  H
  H23      1.0000 0.70106  0.13086  0.21637  Biso   1.000  H
  H24      1.0000 0.29894  0.86914  0.21637  Biso   1.000  H
  H25      1.0000 0.36914  0.20106  0.28363  Biso   1.000  H
  H26      1.0000 0.63086  0.79894  0.28363  Biso   1.000  H
  H27      1.0000 0.79894  0.36914  0.28363  Biso   1.000  H
  H28      1.0000 0.20106  0.63086  0.28363  Biso   1.000  H
  H29      1.0000 0.86914  0.70106  0.78363  Biso   1.000  H
  H30      1.0000 0.13086  0.29894  0.78363  Biso   1.000  H
  H31      1.0000 0.29894  0.86914  0.78363  Biso   1.000  H
  H32      1.0000 0.70106  0.13086  0.78363  Biso   1.000  H
  C65      1.0000 0.61660  0.71800  0.87710  Biso   1.000  C
  C66      1.0000 0.38340  0.28200  0.87710  Biso   1.000  C
  C67      1.0000 0.28200  0.61660  0.87710  Biso   1.000  C
  C68      1.0000 0.71800  0.38340  0.87710  Biso   1.000  C
  C69      1.0000 0.11660  0.21800  0.37710  Biso   1.000  C
  C70      1.0000 0.88340  0.78200  0.37710  Biso   1.000  C
  C71      1.0000 0.78200  0.11660  0.37710  Biso   1.000  C
  C72      1.0000 0.21800  0.88340  0.37710  Biso   1.000  C
  C73      1.0000 0.38340  0.28200  0.12290  Biso   1.000  C
  C74      1.0000 0.61660  0.71800  0.12290  Biso   1.000  C
  C75      1.0000 0.71800  0.38340  0.12290  Biso   1.000  C
  C76      1.0000 0.28200  0.61660  0.12290  Biso   1.000  C
  C77      1.0000 0.88340  0.78200  0.62290  Biso   1.000  C
  C78      1.0000 0.11660  0.21800  0.62290  Biso   1.000  C
  C79      1.0000 0.21800  0.88340  0.62290  Biso   1.000  C
  C80      1.0000 0.78200  0.11660  0.62290  Biso   1.000  C
  H33      1.0000 0.58703  0.76898  0.86807  Biso   1.000  H
  H34      1.0000 0.41297  0.23102  0.86807  Biso   1.000  H
  H35      1.0000 0.23102  0.58703  0.86807  Biso   1.000  H
  H36      1.0000 0.76898  0.41297  0.86807  Biso   1.000  H
  H37      1.0000 0.08703  0.26898  0.36807  Biso   1.000  H
  H38      1.0000 0.91297  0.73102  0.36807  Biso   1.000  H
  H39      1.0000 0.73102  0.08703  0.36807  Biso   1.000  H
  H40      1.0000 0.26898  0.91297  0.36807  Biso   1.000  H
  H41      1.0000 0.41297  0.23102  0.13193  Biso   1.000  H
  H42      1.0000 0.58703  0.76898  0.13193  Biso   1.000  H
  H43      1.0000 0.76898  0.41297  0.13193  Biso   1.000  H
  H44      1.0000 0.23102  0.58703  0.13193  Biso   1.000  H
  H45      1.0000 0.91297  0.73102  0.63193  Biso   1.000  H
  H46      1.0000 0.08703  0.26898  0.63193  Biso   1.000  H
  H47      1.0000 0.26898  0.91297  0.63193  Biso   1.000  H
  H48      1.0000 0.73102  0.08703  0.63193  Biso   1.000  H
  C81      1.0000 0.78300  0.67500  0.82470  Biso   1.000  C
  C82      1.0000 0.21700  0.32500  0.82470  Biso   1.000  C
  C83      1.0000 0.32500  0.78300  0.82470  Biso   1.000  C
  C84      1.0000 0.67500  0.21700  0.82470  Biso   1.000  C
  C85      1.0000 0.28300  0.17500  0.32470  Biso   1.000  C
  C86      1.0000 0.71700  0.82500  0.32470  Biso   1.000  C
  C87      1.0000 0.82500  0.28300  0.32470  Biso   1.000  C
  C88      1.0000 0.17500  0.71700  0.32470  Biso   1.000  C
  C89      1.0000 0.21700  0.32500  0.17530  Biso   1.000  C
  C90      1.0000 0.78300  0.67500  0.17530  Biso   1.000  C
  C91      1.0000 0.67500  0.21700  0.17530  Biso   1.000  C
  C92      1.0000 0.32500  0.78300  0.17530  Biso   1.000  C
  C93      1.0000 0.71700  0.82500  0.67530  Biso   1.000  C
  C94      1.0000 0.28300  0.17500  0.67530  Biso   1.000  C
  C95      1.0000 0.17500  0.71700  0.67530  Biso   1.000  C
  C96      1.0000 0.82500  0.28300  0.67530  Biso   1.000  C
  H49      1.0000 0.81489  0.63818  0.85427  Biso   1.000  H
  H50      1.0000 0.18511  0.36182  0.85427  Biso   1.000  H
  H51      1.0000 0.36182  0.81489  0.85427  Biso   1.000  H
  H52      1.0000 0.63818  0.18511  0.85427  Biso   1.000  H
  H53      1.0000 0.31489  0.13818  0.35427  Biso   1.000  H
  H54      1.0000 0.68511  0.86182  0.35427  Biso   1.000  H
  H55      1.0000 0.86182  0.31489  0.35427  Biso   1.000  H
  H56      1.0000 0.13818  0.68511  0.35427  Biso   1.000  H
  H57      1.0000 0.18511  0.36182  0.14573  Biso   1.000  H
  H58      1.0000 0.81489  0.63818  0.14573  Biso   1.000  H
  H59      1.0000 0.63818  0.18511  0.14573  Biso   1.000  H
  H60      1.0000 0.36182  0.81489  0.14573  Biso   1.000  H
  H61      1.0000 0.68511  0.86182  0.64573  Biso   1.000  H
  H62      1.0000 0.31489  0.13818  0.64573  Biso   1.000  H
  H63      1.0000 0.13818  0.68511  0.64573  Biso   1.000  H
  H64      1.0000 0.86182  0.31489  0.64573  Biso   1.000  H
  C97      1.0000 0.64750  0.64800  0.89490  Biso   1.000  C
  C98      1.0000 0.35250  0.35200  0.89490  Biso   1.000  C
  C99      1.0000 0.35200  0.64750  0.89490  Biso   1.000  C
  C100     1.0000 0.64800  0.35250  0.89490  Biso   1.000  C
  C101     1.0000 0.14750  0.14800  0.39490  Biso   1.000  C
  C102     1.0000 0.85250  0.85200  0.39490  Biso   1.000  C
  C103     1.0000 0.85200  0.14750  0.39490  Biso   1.000  C
  C104     1.0000 0.14800  0.85250  0.39490  Biso   1.000  C
  C105     1.0000 0.35250  0.35200  0.10510  Biso   1.000  C
  C106     1.0000 0.64750  0.64800  0.10510  Biso   1.000  C
  C107     1.0000 0.64800  0.35250  0.10510  Biso   1.000  C
  C108     1.0000 0.35200  0.64750  0.10510  Biso   1.000  C
  C109     1.0000 0.85250  0.85200  0.60510  Biso   1.000  C
  C110     1.0000 0.14750  0.14800  0.60510  Biso   1.000  C
  C111     1.0000 0.14800  0.85250  0.60510  Biso   1.000  C
  C112     1.0000 0.85200  0.14750  0.60510  Biso   1.000  C
  O89      1.0000 0.68800  0.57800  0.92320  Biso   1.000  O
  O90      1.0000 0.31200  0.42200  0.92320  Biso   1.000  O
  O91      1.0000 0.42200  0.68800  0.92320  Biso   1.000  O
  O92      1.0000 0.57800  0.31200  0.92320  Biso   1.000  O
  O93      1.0000 0.18800  0.07800  0.42320  Biso   1.000  O
  O94      1.0000 0.81200  0.92200  0.42320  Biso   1.000  O
  O95      1.0000 0.92200  0.18800  0.42320  Biso   1.000  O
  O96      1.0000 0.07800  0.81200  0.42320  Biso   1.000  O
  O97      1.0000 0.31200  0.42200  0.07680  Biso   1.000  O
  O98      1.0000 0.68800  0.57800  0.07680  Biso   1.000  O
  O99      1.0000 0.57800  0.31200  0.07680  Biso   1.000  O
  O100     1.0000 0.42200  0.68800  0.07680  Biso   1.000  O
  O101     1.0000 0.81200  0.92200  0.57680  Biso   1.000  O
  O102     1.0000 0.18800  0.07800  0.57680  Biso   1.000  O
  O103     1.0000 0.07800  0.81200  0.57680  Biso   1.000  O
  O104     1.0000 0.92200  0.18800  0.57680  Biso   1.000  O
  O105     1.0000 0.57800  0.67500  0.91730  Biso   1.000  O
  O106     1.0000 0.42200  0.32500  0.91730  Biso   1.000  O
  O107     1.0000 0.32500  0.57800  0.91730  Biso   1.000  O
  O108     1.0000 0.67500  0.42200  0.91730  Biso   1.000  O
  O109     1.0000 0.07800  0.17500  0.41730  Biso   1.000  O
  O110     1.0000 0.92200  0.82500  0.41730  Biso   1.000  O
  O111     1.0000 0.82500  0.07800  0.41730  Biso   1.000  O
  O112     1.0000 0.17500  0.92200  0.41730  Biso   1.000  O
  O113     1.0000 0.42200  0.32500  0.08270  Biso   1.000  O
  O114     1.0000 0.57800  0.67500  0.08270  Biso   1.000  O
  O115     1.0000 0.67500  0.42200  0.08270  Biso   1.000  O
  O116     1.0000 0.32500  0.57800  0.08270  Biso   1.000  O
  O117     1.0000 0.92200  0.82500  0.58270  Biso   1.000  O
  O118     1.0000 0.07800  0.17500  0.58270  Biso   1.000  O
  O119     1.0000 0.17500  0.92200  0.58270  Biso   1.000  O
  O120     1.0000 0.82500  0.07800  0.58270  Biso   1.000  O
