data_image0
_cell_length_a       8.261
_cell_length_b       9.404
_cell_length_c       10.357
_cell_angle_alpha    87.933
_cell_angle_beta     83.04
_cell_angle_gamma    89.238

_symmetry_space_group_name_H-M    "P 1"
_symmetry_int_tables_number       1

loop_
  _symmetry_equiv_pos_as_xyz
  'x, y, z'

loop_
  _atom_site_label
  _atom_site_occupancy
  _atom_site_fract_x
  _atom_site_fract_y
  _atom_site_fract_z
  _atom_site_thermal_displace_type
  _atom_site_B_iso_or_equiv
  _atom_site_type_symbol
  Cu1      1.0000 0.51434  0.35702  0.56807  Biso   1.000  Cu
  Cu2      1.0000 0.48566  0.64298  0.43193  Biso   1.000  Cu
  O1       1.0000 0.37510  0.52190  0.56772  Biso   1.000  O
  O2       1.0000 0.62490  0.47810  0.43228  Biso   1.000  O
  N1       1.0000 0.32690  0.80190  0.45610  Biso   1.000  N
  N2       1.0000 0.67310  0.19810  0.54390  Biso   1.000  N
  H1       1.0000 0.37600  0.85900  0.50200  Biso   1.000  H
  H2       1.0000 0.62400  0.14100  0.49800  Biso   1.000  H
  H3       1.0000 0.32300  0.84300  0.38900  Biso   1.000  H
  H4       1.0000 0.67700  0.15700  0.61100  Biso   1.000  H
  N3       1.0000 0.36330  0.23810  0.69320  Biso   1.000  N
  N4       1.0000 0.63670  0.76190  0.30680  Biso   1.000  N
  C1       1.0000 0.21950  0.54070  0.63560  Biso   1.000  C
  C2       1.0000 0.78050  0.45930  0.36440  Biso   1.000  C
  H5       1.0000 0.21870  0.49850  0.72260  Biso   1.000  H
  H6       1.0000 0.78130  0.50150  0.27740  Biso   1.000  H
  H7       1.0000 0.14160  0.48950  0.59240  Biso   1.000  H
  H8       1.0000 0.85840  0.51050  0.40760  Biso   1.000  H
  C3       1.0000 0.16480  0.69160  0.64650  Biso   1.000  C
  C4       1.0000 0.83520  0.30840  0.35350  Biso   1.000  C
  H9       1.0000 0.23610  0.74000  0.69820  Biso   1.000  H
  H10      1.0000 0.76390  0.26000  0.30180  Biso   1.000  H
  H11      1.0000 0.05590  0.69350  0.69350  Biso   1.000  H
  H12      1.0000 0.94410  0.30650  0.30650  Biso   1.000  H
  C5       1.0000 0.16210  0.77310  0.52060  Biso   1.000  C
  C6       1.0000 0.83790  0.22690  0.47940  Biso   1.000  C
  H13      1.0000 0.10300  0.71950  0.46360  Biso   1.000  H
  H14      1.0000 0.89700  0.28050  0.53640  Biso   1.000  H
  H15      1.0000 0.10470  0.86260  0.53650  Biso   1.000  H
  H16      1.0000 0.89530  0.13740  0.46350  Biso   1.000  H
  C7       1.0000 0.23050  0.17900  0.65730  Biso   1.000  C
  C8       1.0000 0.76950  0.82100  0.34270  Biso   1.000  C
  H17      1.0000 0.20510  0.19880  0.57340  Biso   1.000  H
  H18      1.0000 0.79490  0.80120  0.42660  Biso   1.000  H
  C9       1.0000 0.12980  0.09080  0.73760  Biso   1.000  C
  C10      1.0000 0.87020  0.90920  0.26240  Biso   1.000  C
  H19      1.0000 0.03740  0.05370  0.70860  Biso   1.000  H
  H20      1.0000 0.96260  0.94630  0.29140  Biso   1.000  H
  C11      1.0000 0.16580  0.05690  0.86210  Biso   1.000  C
  C12      1.0000 0.83420  0.94310  0.13790  Biso   1.000  C
  C13      1.0000 0.30080  0.11910  0.89910  Biso   1.000  C
  C14      1.0000 0.69920  0.88090  0.10090  Biso   1.000  C
  H21      1.0000 0.32840  0.10110  0.98270  Biso   1.000  H
  H22      1.0000 0.67160  0.89890  0.01730  Biso   1.000  H
  C15      1.0000 0.39580  0.20750  0.81420  Biso   1.000  C
  C16      1.0000 0.60420  0.79250  0.18580  Biso   1.000  C
  H23      1.0000 0.48700  0.24800  0.84220  Biso   1.000  H
  H24      1.0000 0.51300  0.75200  0.15780  Biso   1.000  H
  C17      1.0000 0.05840  0.95930  0.95390  Biso   1.000  C
  C18      1.0000 0.94160  0.04070  0.04610  Biso   1.000  C
  H25      1.0000 0.99750  0.89870  0.90370  Biso   1.000  H
  H26      1.0000 0.00250  0.10130  0.09630  Biso   1.000  H
  H27      1.0000 0.12640  0.89870  0.00320  Biso   1.000  H
  H28      1.0000 0.87360  0.10130  0.99680  Biso   1.000  H
  B1       1.0000 0.36010  0.14720  0.27660  Biso   1.000  B
  B2       1.0000 0.63990  0.85280  0.72340  Biso   1.000  B
  F1       1.0000 0.27270  0.25720  0.33870  Biso   1.000  F
  F2       1.0000 0.72730  0.74280  0.66130  Biso   1.000  F
  F3       1.0000 0.44800  0.20660  0.17190  Biso   1.000  F
  F4       1.0000 0.55200  0.79340  0.82810  Biso   1.000  F
  F5       1.0000 0.26320  0.04140  0.24360  Biso   1.000  F
  F6       1.0000 0.73680  0.95860  0.75640  Biso   1.000  F
  F7       1.0000 0.45630  0.08930  0.36320  Biso   1.000  F
  F8       1.0000 0.54370  0.91070  0.63680  Biso   1.000  F
  B3       1.0000 0.33000  0.13800  0.28500  Biso   1.000  B
  B4       1.0000 0.67000  0.86200  0.71500  Biso   1.000  B
  F9       1.0000 0.18100  0.12200  0.36000  Biso   1.000  F
  F10      1.0000 0.81900  0.87800  0.64000  Biso   1.000  F
  F11      1.0000 0.29400  0.24900  0.21100  Biso   1.000  F
  F12      1.0000 0.70600  0.75100  0.78900  Biso   1.000  F
  F13      1.0000 0.33900  0.01750  0.21730  Biso   1.000  F
  F14      1.0000 0.66100  0.98250  0.78270  Biso   1.000  F
  F15      1.0000 0.42900  0.15100  0.37700  Biso   1.000  F
  F16      1.0000 0.57100  0.84900  0.62300  Biso   1.000  F
  O3       1.0000 0.66380  0.45100  0.75100  Biso   1.000  O
  O4       1.0000 0.33620  0.54900  0.24900  Biso   1.000  O
  H29      1.0000 0.66340  0.53640  0.73190  Biso   1.000  H
  H30      1.0000 0.33660  0.46360  0.26810  Biso   1.000  H
  C19      1.0000 0.78920  0.42010  0.82260  Biso   1.000  C
  C20      1.0000 0.21080  0.57990  0.17740  Biso   1.000  C
  H31      1.0000 0.88460  0.47150  0.78290  Biso   1.000  H
  H32      1.0000 0.11540  0.52850  0.21710  Biso   1.000  H
  H33      1.0000 0.81430  0.31940  0.81600  Biso   1.000  H
  H34      1.0000 0.18570  0.68060  0.18400  Biso   1.000  H
  C21      1.0000 0.76410  0.45140  0.95510  Biso   1.000  C
  C22      1.0000 0.23590  0.54860  0.04490  Biso   1.000  C
  H35      1.0000 0.75820  0.55270  0.96380  Biso   1.000  H
  H36      1.0000 0.24180  0.44730  0.03620  Biso   1.000  H
  H37      1.0000 0.85300  0.41340  0.99760  Biso   1.000  H
  H38      1.0000 0.14700  0.58660  0.00240  Biso   1.000  H
  H39      1.0000 0.66390  0.40950  0.99440  Biso   1.000  H
  H40      1.0000 0.33610  0.59050  0.00560  Biso   1.000  H
