data_image0
_cell_length_a       8.403
_cell_length_b       10.826
_cell_length_c       21.937
_cell_angle_alpha    98.053
_cell_angle_beta     93.368
_cell_angle_gamma    96.092

_symmetry_space_group_name_H-M    "P 1"
_symmetry_int_tables_number       1

loop_
  _symmetry_equiv_pos_as_xyz
  'x, y, z'

loop_
  _atom_site_label
  _atom_site_occupancy
  _atom_site_fract_x
  _atom_site_fract_y
  _atom_site_fract_z
  _atom_site_thermal_displace_type
  _atom_site_B_iso_or_equiv
  _atom_site_type_symbol
  O1       1.0000 0.39170  0.47130  0.53100  Biso   1.000  O
  O2       1.0000 0.60830  0.52870  0.46900  Biso   1.000  O
  C1       1.0000 0.23470  0.44610  0.55190  Biso   1.000  C
  C2       1.0000 0.76530  0.55390  0.44810  Biso   1.000  C
  H1       1.0000 0.15380  0.46400  0.52060  Biso   1.000  H
  H2       1.0000 0.84620  0.53600  0.47940  Biso   1.000  H
  H3       1.0000 0.22580  0.50290  0.59070  Biso   1.000  H
  H4       1.0000 0.77420  0.49710  0.40930  Biso   1.000  H
  C3       1.0000 0.19900  0.31350  0.56270  Biso   1.000  C
  C4       1.0000 0.80100  0.68650  0.43730  Biso   1.000  C
  H5       1.0000 0.09140  0.30330  0.57860  Biso   1.000  H
  H6       1.0000 0.90860  0.69670  0.42140  Biso   1.000  H
  H7       1.0000 0.27770  0.29810  0.59550  Biso   1.000  H
  H8       1.0000 0.72230  0.70190  0.40450  Biso   1.000  H
  C5       1.0000 0.20310  0.21490  0.50800  Biso   1.000  C
  C6       1.0000 0.79690  0.78510  0.49200  Biso   1.000  C
  H9       1.0000 0.15720  0.13300  0.51820  Biso   1.000  H
  H10      1.0000 0.84280  0.86700  0.48180  Biso   1.000  H
  H11      1.0000 0.13470  0.23510  0.47330  Biso   1.000  H
  H12      1.0000 0.86530  0.76490  0.52670  Biso   1.000  H
  N1       1.0000 0.36500  0.20390  0.48830  Biso   1.000  N
  N2       1.0000 0.63500  0.79610  0.51170  Biso   1.000  N
  H13      1.0000 0.35870  0.14240  0.45450  Biso   1.000  H
  H14      1.0000 0.64130  0.85760  0.54550  Biso   1.000  H
  H15      1.0000 0.42550  0.17830  0.51950  Biso   1.000  H
  H16      1.0000 0.57450  0.82170  0.48050  Biso   1.000  H
  O3       1.0000 0.51310  0.89010  0.00440  Biso   1.000  O
  O4       1.0000 0.48690  0.10990  0.99560  Biso   1.000  O
  C7       1.0000 0.57980  0.79470  0.02920  Biso   1.000  C
  C8       1.0000 0.42020  0.20530  0.97080  Biso   1.000  C
  H17      1.0000 0.49360  0.74260  0.04590  Biso   1.000  H
  H18      1.0000 0.50640  0.25740  0.95410  Biso   1.000  H
  H19      1.0000 0.65750  0.83290  0.06420  Biso   1.000  H
  H20      1.0000 0.34250  0.16710  0.93580  Biso   1.000  H
  C9       1.0000 0.66400  0.71100  0.98420  Biso   1.000  C
  C10      1.0000 0.33600  0.28900  0.01580  Biso   1.000  C
  H21      1.0000 0.59080  0.67870  0.94710  Biso   1.000  H
  H22      1.0000 0.40920  0.32130  0.05290  Biso   1.000  H
  H23      1.0000 0.69190  0.63740  0.00340  Biso   1.000  H
  H24      1.0000 0.30810  0.36260  0.99660  Biso   1.000  H
  C11      1.0000 0.82100  0.78080  0.96430  Biso   1.000  C
  C12      1.0000 0.17900  0.21920  0.03570  Biso   1.000  C
  H25      1.0000 0.89110  0.81980  0.00140  Biso   1.000  H
  H26      1.0000 0.10890  0.18020  0.99860  Biso   1.000  H
  H27      1.0000 0.88070  0.72030  0.93940  Biso   1.000  H
  H28      1.0000 0.11930  0.27970  0.06060  Biso   1.000  H
  N3       1.0000 0.77890  0.87800  0.92800  Biso   1.000  N
  N4       1.0000 0.22110  0.12200  0.07200  Biso   1.000  N
  H29      1.0000 0.72950  0.83770  0.89090  Biso   1.000  H
  H30      1.0000 0.27050  0.16230  0.10910  Biso   1.000  H
  H31      1.0000 0.87330  0.92090  0.91930  Biso   1.000  H
  H32      1.0000 0.12670  0.07910  0.08070  Biso   1.000  H
  N5       1.0000 0.62910  0.26720  0.41400  Biso   1.000  N
  N6       1.0000 0.37090  0.73280  0.58600  Biso   1.000  N
  C13      1.0000 0.72110  0.19080  0.43580  Biso   1.000  C
  C14      1.0000 0.27890  0.80920  0.56420  Biso   1.000  C
  H33      1.0000 0.72630  0.19060  0.47910  Biso   1.000  H
  H34      1.0000 0.27370  0.80940  0.52090  Biso   1.000  H
  C15      1.0000 0.80920  0.11240  0.40280  Biso   1.000  C
  C16      1.0000 0.19080  0.88760  0.59720  Biso   1.000  C
  H35      1.0000 0.87360  0.06020  0.42240  Biso   1.000  H
  H36      1.0000 0.12640  0.93980  0.57760  Biso   1.000  H
  C17      1.0000 0.80270  0.11030  0.33930  Biso   1.000  C
  C18      1.0000 0.19730  0.88970  0.66070  Biso   1.000  C
  C19      1.0000 0.71560  0.18810  0.31310  Biso   1.000  C
  C20      1.0000 0.28440  0.81190  0.68690  Biso   1.000  C
  H37      1.0000 0.71200  0.18960  0.26990  Biso   1.000  H
  H38      1.0000 0.28800  0.81040  0.73010  Biso   1.000  H
  C21      1.0000 0.62680  0.27030  0.35270  Biso   1.000  C
  C22      1.0000 0.37320  0.72970  0.64730  Biso   1.000  C
  H39      1.0000 0.56580  0.32730  0.33520  Biso   1.000  H
  H40      1.0000 0.43420  0.67270  0.66480  Biso   1.000  H
  C23      1.0000 0.89700  0.02420  0.29840  Biso   1.000  C
  C24      1.0000 0.10300  0.97580  0.70160  Biso   1.000  C
  H41      1.0000 0.00700  0.02780  0.31790  Biso   1.000  H
  H42      1.0000 0.99300  0.97220  0.68210  Biso   1.000  H
  H43      1.0000 0.90570  0.05490  0.25810  Biso   1.000  H
  H44      1.0000 0.09430  0.94510  0.74190  Biso   1.000  H
  C25      1.0000 0.81910  0.88680  0.28730  Biso   1.000  C
  C26      1.0000 0.18090  0.11320  0.71270  Biso   1.000  C
  H45      1.0000 0.88790  0.83440  0.26210  Biso   1.000  H
  H46      1.0000 0.11210  0.16560  0.73790  Biso   1.000  H
  H47      1.0000 0.81160  0.85540  0.32740  Biso   1.000  H
  H48      1.0000 0.18840  0.14460  0.67260  Biso   1.000  H
  C27      1.0000 0.65140  0.87370  0.25430  Biso   1.000  C
  C28      1.0000 0.34860  0.12630  0.74570  Biso   1.000  C
  H49      1.0000 0.57710  0.91530  0.28160  Biso   1.000  H
  H50      1.0000 0.42290  0.08470  0.71840  Biso   1.000  H
  H51      1.0000 0.65520  0.91370  0.21640  Biso   1.000  H
  H52      1.0000 0.34480  0.08630  0.78360  Biso   1.000  H
  C29      1.0000 0.59400  0.73530  0.23790  Biso   1.000  C
  C30      1.0000 0.40600  0.26470  0.76210  Biso   1.000  C
  C31      1.0000 0.51910  0.66730  0.27930  Biso   1.000  C
  C32      1.0000 0.48090  0.33270  0.72070  Biso   1.000  C
  H53      1.0000 0.49540  0.70830  0.31830  Biso   1.000  H
  H54      1.0000 0.50460  0.29170  0.68170  Biso   1.000  H
  C33      1.0000 0.48000  0.54000  0.26330  Biso   1.000  C
  C34      1.0000 0.52000  0.46000  0.73670  Biso   1.000  C
  H55      1.0000 0.43540  0.49490  0.29360  Biso   1.000  H
  H56      1.0000 0.56460  0.50510  0.70640  Biso   1.000  H
  C35      1.0000 0.56600  0.53900  0.16960  Biso   1.000  C
  C36      1.0000 0.43400  0.46100  0.83040  Biso   1.000  C
  H57      1.0000 0.58750  0.49470  0.13110  Biso   1.000  H
  H58      1.0000 0.41250  0.50530  0.86890  Biso   1.000  H
  C37      1.0000 0.60900  0.66600  0.18090  Biso   1.000  C
  C38      1.0000 0.39100  0.33400  0.81910  Biso   1.000  C
  H59      1.0000 0.64880  0.70810  0.14870  Biso   1.000  H
  H60      1.0000 0.35120  0.29190  0.85130  Biso   1.000  H
  N7       1.0000 0.49780  0.47670  0.20990  Biso   1.000  N
  N8       1.0000 0.50220  0.52330  0.79010  Biso   1.000  N
  N9       1.0000 0.25750  0.86730  0.08550  Biso   1.000  N
  N10      1.0000 0.74250  0.13270  0.91450  Biso   1.000  N
  C39      1.0000 0.26600  0.88800  0.14900  Biso   1.000  C
  C40      1.0000 0.73400  0.11200  0.85100  Biso   1.000  C
  H61      1.0000 0.30930  0.96790  0.17090  Biso   1.000  H
  H62      1.0000 0.69070  0.03210  0.82910  Biso   1.000  H
  C41      1.0000 0.21100  0.79200  0.18080  Biso   1.000  C
  C42      1.0000 0.78900  0.20800  0.81920  Biso   1.000  C
  H63      1.0000 0.22200  0.80920  0.22460  Biso   1.000  H
  H64      1.0000 0.77800  0.19080  0.77540  Biso   1.000  H
  C43      1.0000 0.14000  0.67200  0.15480  Biso   1.000  C
  C44      1.0000 0.86000  0.32800  0.84520  Biso   1.000  C
  C45      1.0000 0.13100  0.65700  0.09120  Biso   1.000  C
  C46      1.0000 0.86900  0.34300  0.90880  Biso   1.000  C
  H65      1.0000 0.08300  0.58090  0.06740  Biso   1.000  H
  H66      1.0000 0.91700  0.41910  0.93260  Biso   1.000  H
  C47      1.0000 0.19900  0.76100  0.06110  Biso   1.000  C
  C48      1.0000 0.80100  0.23900  0.93890  Biso   1.000  C
  H67      1.0000 0.19710  0.74550  0.01740  Biso   1.000  H
  H68      1.0000 0.80290  0.25450  0.98260  Biso   1.000  H
  C49      1.0000 0.09300  0.54400  0.17600  Biso   1.000  C
  C50      1.0000 0.90700  0.45600  0.82400  Biso   1.000  C
  H69      1.0000 0.18830  0.51080  0.19340  Biso   1.000  H
  H70      1.0000 0.81170  0.48920  0.80660  Biso   1.000  H
  H71      1.0000 0.03980  0.48210  0.14140  Biso   1.000  H
  H72      1.0000 0.96020  0.51790  0.85860  Biso   1.000  H
  C51      1.0000 0.08400  0.62800  0.21360  Biso   1.000  C
  C52      1.0000 0.91600  0.37200  0.78640  Biso   1.000  C
  H73      1.0000 0.99730  0.67450  0.23010  Biso   1.000  H
  H74      1.0000 0.00270  0.32550  0.76990  Biso   1.000  H
  H75      1.0000 0.17410  0.63620  0.24580  Biso   1.000  H
  H76      1.0000 0.82590  0.36380  0.75420  Biso   1.000  H
  C53      1.0000 0.97600  0.57600  0.22630  Biso   1.000  C
  C54      1.0000 0.02400  0.42400  0.77370  Biso   1.000  C
  H77      1.0000 0.87790  0.60620  0.20890  Biso   1.000  H
  H78      1.0000 0.12210  0.39380  0.79110  Biso   1.000  H
  H79      1.0000 0.02720  0.63930  0.26060  Biso   1.000  H
  H80      1.0000 0.97280  0.36070  0.73940  Biso   1.000  H
  C55      1.0000 0.02200  0.48700  0.19090  Biso   1.000  C
  C56      1.0000 0.97800  0.51300  0.80910  Biso   1.000  C
  H81      1.0000 0.11250  0.43810  0.18070  Biso   1.000  H
  H82      1.0000 0.88750  0.56190  0.81930  Biso   1.000  H
  H83      1.0000 0.94600  0.47860  0.15400  Biso   1.000  H
  H84      1.0000 0.05400  0.52140  0.84600  Biso   1.000  H
  C57      1.0000 0.93700  0.44440  0.24730  Biso   1.000  C
  C58      1.0000 0.06300  0.55560  0.75270  Biso   1.000  C
  H85      1.0000 0.82830  0.43790  0.26250  Biso   1.000  H
  H86      1.0000 0.17170  0.56210  0.73750  Biso   1.000  H
  H87      1.0000 0.93760  0.37800  0.21140  Biso   1.000  H
  H88      1.0000 0.06240  0.62200  0.78860  Biso   1.000  H
  H89      1.0000 0.87010  0.50930  0.26400  Biso   1.000  H
  H90      1.0000 0.12990  0.49070  0.73600  Biso   1.000  H
  H91      1.0000 0.86560  0.36560  0.23330  Biso   1.000  H
  H92      1.0000 0.13440  0.63440  0.76670  Biso   1.000  H
  C59      1.0000 0.05690  0.42340  0.29750  Biso   1.000  C
  C60      1.0000 0.94310  0.57660  0.70250  Biso   1.000  C
  C61      1.0000 0.11800  0.51790  0.34770  Biso   1.000  C
  C62      1.0000 0.88200  0.48210  0.65230  Biso   1.000  C
  H93      1.0000 0.08290  0.59910  0.35100  Biso   1.000  H
  H94      1.0000 0.91710  0.40090  0.64900  Biso   1.000  H
  C63      1.0000 0.22400  0.49080  0.39000  Biso   1.000  C
  C64      1.0000 0.77600  0.50920  0.61000  Biso   1.000  C
  H95      1.0000 0.25460  0.55300  0.42490  Biso   1.000  H
  H96      1.0000 0.74540  0.44700  0.57510  Biso   1.000  H
  C65      1.0000 0.23680  0.29240  0.34010  Biso   1.000  C
  C66      1.0000 0.76320  0.70760  0.65990  Biso   1.000  C
  H97      1.0000 0.27530  0.21270  0.33820  Biso   1.000  H
  H98      1.0000 0.72470  0.78730  0.66180  Biso   1.000  H
  C67      1.0000 0.12690  0.31200  0.29400  Biso   1.000  C
  C68      1.0000 0.87310  0.68800  0.70600  Biso   1.000  C
  H99      1.0000 0.09870  0.24840  0.25950  Biso   1.000  H
  H100     1.0000 0.90130  0.75160  0.74050  Biso   1.000  H
  N11      1.0000 0.29120  0.38310  0.38760  Biso   1.000  N
  N12      1.0000 0.70880  0.61690  0.61240  Biso   1.000  N
  Cl1      1.0000 0.20050  0.86060  0.88793  Biso   1.000  Cl
  Cl2      1.0000 0.79950  0.13940  0.11207  Biso   1.000  Cl
  O5       1.0000 0.06960  0.85850  0.84430  Biso   1.000  O
  O6       1.0000 0.93040  0.14150  0.15570  Biso   1.000  O
  O7       1.0000 0.23360  0.73550  0.89640  Biso   1.000  O
  O8       1.0000 0.76640  0.26450  0.10360  Biso   1.000  O
  O9       1.0000 0.34140  0.93130  0.86780  Biso   1.000  O
  O10      1.0000 0.65860  0.06870  0.13220  Biso   1.000  O
  O11      1.0000 0.16200  0.92620  0.94640  Biso   1.000  O
  O12      1.0000 0.83800  0.07380  0.05360  Biso   1.000  O
  Cl3      1.0000 0.26790  0.89210  0.38854  Biso   1.000  Cl
  Cl4      1.0000 0.73210  0.10790  0.61146  Biso   1.000  Cl
  O13      1.0000 0.18760  0.82630  0.33350  Biso   1.000  O
  O14      1.0000 0.81240  0.17370  0.66650  Biso   1.000  O
  O15      1.0000 0.36210  0.00430  0.37320  Biso   1.000  O
  O16      1.0000 0.63790  0.99570  0.62680  Biso   1.000  O
  O17      1.0000 0.37200  0.81330  0.41300  Biso   1.000  O
  O18      1.0000 0.62800  0.18670  0.58700  Biso   1.000  O
  O19      1.0000 0.15950  0.92790  0.43250  Biso   1.000  O
  O20      1.0000 0.84050  0.07210  0.56750  Biso   1.000  O
  O21      1.0000 0.42120  0.21710  0.18760  Biso   1.000  O
  O22      1.0000 0.57880  0.78290  0.81240  Biso   1.000  O
  H101     1.0000 0.41700  0.30210  0.18300  Biso   1.000  H
  H102     1.0000 0.58300  0.69790  0.81700  Biso   1.000  H
  H103     1.0000 0.50400  0.19300  0.16300  Biso   1.000  H
  H104     1.0000 0.49600  0.80700  0.83700  Biso   1.000  H
  Cu1      1.0000 0.48090  0.36530  0.46609  Biso   1.000  Cu
  Cu2      1.0000 0.51910  0.63470  0.53391  Biso   1.000  Cu
  Cu3      1.0000 0.36010  0.99493  0.03861  Biso   1.000  Cu
  Cu4      1.0000 0.63990  0.00507  0.96139  Biso   1.000  Cu
