data_image0
_cell_length_a       9.039
_cell_length_b       16.4229
_cell_length_c       8.3294
_cell_angle_alpha    90
_cell_angle_beta     101.539
_cell_angle_gamma    90

_symmetry_space_group_name_H-M    "P 1"
_symmetry_int_tables_number       1

loop_
  _symmetry_equiv_pos_as_xyz
  'x, y, z'

loop_
  _atom_site_label
  _atom_site_occupancy
  _atom_site_fract_x
  _atom_site_fract_y
  _atom_site_fract_z
  _atom_site_thermal_displace_type
  _atom_site_B_iso_or_equiv
  _atom_site_type_symbol
  Cu1      1.0000 0.87677  0.04021  0.56051  Biso   1.000  Cu
  Cu2      1.0000 0.12323  0.54021  0.93949  Biso   1.000  Cu
  Cu3      1.0000 0.12323  0.95979  0.43949  Biso   1.000  Cu
  Cu4      1.0000 0.87677  0.45979  0.06051  Biso   1.000  Cu
  O1       1.0000 0.08140  0.06388  0.53530  Biso   1.000  O
  O2       1.0000 0.91860  0.56388  0.96470  Biso   1.000  O
  O3       1.0000 0.91860  0.93612  0.46470  Biso   1.000  O
  O4       1.0000 0.08140  0.43612  0.03530  Biso   1.000  O
  N1       1.0000 0.85460  0.16110  0.56830  Biso   1.000  N
  N2       1.0000 0.14540  0.66110  0.93170  Biso   1.000  N
  N3       1.0000 0.14540  0.83890  0.43170  Biso   1.000  N
  N4       1.0000 0.85460  0.33890  0.06830  Biso   1.000  N
  H1       1.0000 0.79700  0.17900  0.47600  Biso   1.000  H
  H2       1.0000 0.20300  0.67900  0.02400  Biso   1.000  H
  H3       1.0000 0.20300  0.82100  0.52400  Biso   1.000  H
  H4       1.0000 0.79700  0.32100  0.97600  Biso   1.000  H
  H5       1.0000 0.82000  0.18000  0.64100  Biso   1.000  H
  H6       1.0000 0.18000  0.68000  0.85900  Biso   1.000  H
  H7       1.0000 0.18000  0.82000  0.35900  Biso   1.000  H
  H8       1.0000 0.82000  0.32000  0.14100  Biso   1.000  H
  C1       1.0000 0.08870  0.14370  0.47220  Biso   1.000  C
  C2       1.0000 0.91130  0.64370  0.02780  Biso   1.000  C
  C3       1.0000 0.91130  0.85630  0.52780  Biso   1.000  C
  C4       1.0000 0.08870  0.35630  0.97220  Biso   1.000  C
  H9       1.0000 0.04190  0.14520  0.35420  Biso   1.000  H
  H10      1.0000 0.95810  0.64520  0.14580  Biso   1.000  H
  H11      1.0000 0.95810  0.85480  0.64580  Biso   1.000  H
  H12      1.0000 0.04190  0.35480  0.85420  Biso   1.000  H
  H13      1.0000 0.19510  0.16160  0.48580  Biso   1.000  H
  H14      1.0000 0.80490  0.66160  0.01420  Biso   1.000  H
  H15      1.0000 0.80490  0.83840  0.51420  Biso   1.000  H
  H16      1.0000 0.19510  0.33840  0.98580  Biso   1.000  H
  C5       1.0000 0.00300  0.19895  0.56880  Biso   1.000  C
  C6       1.0000 0.99700  0.69895  0.93120  Biso   1.000  C
  C7       1.0000 0.99700  0.80105  0.43120  Biso   1.000  C
  C8       1.0000 0.00300  0.30105  0.06880  Biso   1.000  C
  H17      1.0000 0.06000  0.20510  0.68260  Biso   1.000  H
  H18      1.0000 0.94000  0.70510  0.81740  Biso   1.000  H
  H19      1.0000 0.94000  0.79490  0.31740  Biso   1.000  H
  H20      1.0000 0.06000  0.29490  0.18260  Biso   1.000  H
  H21      1.0000 0.98930  0.25350  0.51750  Biso   1.000  H
  H22      1.0000 0.01070  0.75350  0.98250  Biso   1.000  H
  H23      1.0000 0.01070  0.74650  0.48250  Biso   1.000  H
  H24      1.0000 0.98930  0.24650  0.01750  Biso   1.000  H
  N5       1.0000 0.65440  0.01545  0.53060  Biso   1.000  N
  N6       1.0000 0.34560  0.51545  0.96940  Biso   1.000  N
  N7       1.0000 0.34560  0.98455  0.46940  Biso   1.000  N
  N8       1.0000 0.65440  0.48455  0.03060  Biso   1.000  N
  C9       1.0000 0.58630  0.97220  0.40020  Biso   1.000  C
  C10      1.0000 0.41370  0.47220  0.09980  Biso   1.000  C
  C11      1.0000 0.41370  0.02780  0.59980  Biso   1.000  C
  C12      1.0000 0.58630  0.52780  0.90020  Biso   1.000  C
  H25      1.0000 0.64510  0.95170  0.32660  Biso   1.000  H
  H26      1.0000 0.35490  0.45170  0.17340  Biso   1.000  H
  H27      1.0000 0.35490  0.04830  0.67340  Biso   1.000  H
  H28      1.0000 0.64510  0.54830  0.82660  Biso   1.000  H
  C13      1.0000 0.56650  0.04340  0.63010  Biso   1.000  C
  C14      1.0000 0.43350  0.54340  0.86990  Biso   1.000  C
  C15      1.0000 0.43350  0.95660  0.36990  Biso   1.000  C
  C16      1.0000 0.56650  0.45660  0.13010  Biso   1.000  C
  H29      1.0000 0.61050  0.07460  0.72360  Biso   1.000  H
  H30      1.0000 0.38950  0.57460  0.77640  Biso   1.000  H
  H31      1.0000 0.38950  0.92540  0.27640  Biso   1.000  H
  H32      1.0000 0.61050  0.42540  0.22360  Biso   1.000  H
  N9       1.0000 0.94810  0.01110  0.83230  Biso   1.000  N
  N10      1.0000 0.05190  0.51110  0.66770  Biso   1.000  N
  N11      1.0000 0.05190  0.98890  0.16770  Biso   1.000  N
  N12      1.0000 0.94810  0.48890  0.33230  Biso   1.000  N
  C17      1.0000 0.87310  0.96630  0.92140  Biso   1.000  C
  C18      1.0000 0.12690  0.46630  0.57860  Biso   1.000  C
  C19      1.0000 0.12690  0.03370  0.07860  Biso   1.000  C
  C20      1.0000 0.87310  0.53370  0.42140  Biso   1.000  C
  H33      1.0000 0.78180  0.94060  0.86950  Biso   1.000  H
  H34      1.0000 0.21820  0.44060  0.63050  Biso   1.000  H
  H35      1.0000 0.21820  0.05940  0.13050  Biso   1.000  H
  H36      1.0000 0.78180  0.55940  0.36950  Biso   1.000  H
  C21      1.0000 0.07570  0.04430  0.91090  Biso   1.000  C
  C22      1.0000 0.92430  0.54430  0.58910  Biso   1.000  C
  C23      1.0000 0.92430  0.95570  0.08910  Biso   1.000  C
  C24      1.0000 0.07570  0.45570  0.41090  Biso   1.000  C
  H37      1.0000 0.13380  0.07620  0.85120  Biso   1.000  H
  H38      1.0000 0.86620  0.57620  0.64880  Biso   1.000  H
  H39      1.0000 0.86620  0.92380  0.14880  Biso   1.000  H
  H40      1.0000 0.13380  0.42380  0.35120  Biso   1.000  H
  S1       1.0000 0.67038  0.14113  0.07548  Biso   1.000  S
  S2       1.0000 0.32962  0.64113  0.42452  Biso   1.000  S
  S3       1.0000 0.32962  0.85887  0.92452  Biso   1.000  S
  S4       1.0000 0.67038  0.35887  0.57548  Biso   1.000  S
  O5       1.0000 0.74910  0.18260  0.21910  Biso   1.000  O
  O6       1.0000 0.25090  0.68260  0.28090  Biso   1.000  O
  O7       1.0000 0.25090  0.81740  0.78090  Biso   1.000  O
  O8       1.0000 0.74910  0.31740  0.71910  Biso   1.000  O
  O9       1.0000 0.63310  0.05820  0.09260  Biso   1.000  O
  O10      1.0000 0.36690  0.55820  0.40740  Biso   1.000  O
  O11      1.0000 0.36690  0.94180  0.90740  Biso   1.000  O
  O12      1.0000 0.63310  0.44180  0.59260  Biso   1.000  O
  O13      1.0000 0.72690  0.15980  0.93110  Biso   1.000  O
  O14      1.0000 0.27310  0.65980  0.56890  Biso   1.000  O
  O15      1.0000 0.27310  0.84020  0.06890  Biso   1.000  O
  O16      1.0000 0.72690  0.34020  0.43110  Biso   1.000  O
  C25      1.0000 0.48800  0.19050  0.04090  Biso   1.000  C
  C26      1.0000 0.51200  0.69050  0.45910  Biso   1.000  C
  C27      1.0000 0.51200  0.80950  0.95910  Biso   1.000  C
  C28      1.0000 0.48800  0.30950  0.54090  Biso   1.000  C
  F1       1.0000 0.39800  0.16370  0.90180  Biso   1.000  F
  F2       1.0000 0.60200  0.66370  0.59820  Biso   1.000  F
  F3       1.0000 0.60200  0.83630  0.09820  Biso   1.000  F
  F4       1.0000 0.39800  0.33630  0.40180  Biso   1.000  F
  F5       1.0000 0.49950  0.27076  0.02590  Biso   1.000  F
  F6       1.0000 0.50050  0.77076  0.47410  Biso   1.000  F
  F7       1.0000 0.50050  0.72924  0.97410  Biso   1.000  F
  F8       1.0000 0.49950  0.22924  0.52590  Biso   1.000  F
  F9       1.0000 0.41380  0.17630  0.16090  Biso   1.000  F
  F10      1.0000 0.58620  0.67630  0.33910  Biso   1.000  F
  F11      1.0000 0.58620  0.82370  0.83910  Biso   1.000  F
  F12      1.0000 0.41380  0.32370  0.66090  Biso   1.000  F
