data_image0
_cell_length_a       13.344
_cell_length_b       9.499
_cell_length_c       16.647
_cell_angle_alpha    90
_cell_angle_beta     94.95
_cell_angle_gamma    90

_symmetry_space_group_name_H-M    "P 1"
_symmetry_int_tables_number       1

loop_
  _symmetry_equiv_pos_as_xyz
  'x, y, z'

loop_
  _atom_site_label
  _atom_site_occupancy
  _atom_site_fract_x
  _atom_site_fract_y
  _atom_site_fract_z
  _atom_site_thermal_displace_type
  _atom_site_B_iso_or_equiv
  _atom_site_type_symbol
  Cu1      1.0000 0.41012  0.37941  0.45298  Biso   1.000  Cu
  Cu2      1.0000 0.91012  0.87941  0.45298  Biso   1.000  Cu
  Cu3      1.0000 0.58988  0.37941  0.04702  Biso   1.000  Cu
  Cu4      1.0000 0.08988  0.87941  0.04702  Biso   1.000  Cu
  Cu5      1.0000 0.58988  0.62059  0.54702  Biso   1.000  Cu
  Cu6      1.0000 0.08988  0.12059  0.54702  Biso   1.000  Cu
  Cu7      1.0000 0.41012  0.62059  0.95298  Biso   1.000  Cu
  Cu8      1.0000 0.91012  0.12059  0.95298  Biso   1.000  Cu
  O1       1.0000 0.55510  0.39150  0.48670  Biso   1.000  O
  O2       1.0000 0.05510  0.89150  0.48670  Biso   1.000  O
  O3       1.0000 0.44490  0.39150  0.01330  Biso   1.000  O
  O4       1.0000 0.94490  0.89150  0.01330  Biso   1.000  O
  O5       1.0000 0.44490  0.60850  0.51330  Biso   1.000  O
  O6       1.0000 0.94490  0.10850  0.51330  Biso   1.000  O
  O7       1.0000 0.55510  0.60850  0.98670  Biso   1.000  O
  O8       1.0000 0.05510  0.10850  0.98670  Biso   1.000  O
  O9       1.0000 0.57780  0.17420  0.44200  Biso   1.000  O
  O10      1.0000 0.07780  0.67420  0.44200  Biso   1.000  O
  O11      1.0000 0.42220  0.17420  0.05800  Biso   1.000  O
  O12      1.0000 0.92220  0.67420  0.05800  Biso   1.000  O
  O13      1.0000 0.42220  0.82580  0.55800  Biso   1.000  O
  O14      1.0000 0.92220  0.32580  0.55800  Biso   1.000  O
  O15      1.0000 0.57780  0.82580  0.94200  Biso   1.000  O
  O16      1.0000 0.07780  0.32580  0.94200  Biso   1.000  O
  O17      1.0000 0.37040  0.27690  0.55220  Biso   1.000  O
  O18      1.0000 0.87040  0.77690  0.55220  Biso   1.000  O
  O19      1.0000 0.62960  0.27690  0.94780  Biso   1.000  O
  O20      1.0000 0.12960  0.77690  0.94780  Biso   1.000  O
  O21      1.0000 0.62960  0.72310  0.44780  Biso   1.000  O
  O22      1.0000 0.12960  0.22310  0.44780  Biso   1.000  O
  O23      1.0000 0.37040  0.72310  0.05220  Biso   1.000  O
  O24      1.0000 0.87040  0.22310  0.05220  Biso   1.000  O
  N1       1.0000 0.41720  0.45050  0.34140  Biso   1.000  N
  N2       1.0000 0.91720  0.95050  0.34140  Biso   1.000  N
  N3       1.0000 0.58280  0.45050  0.15860  Biso   1.000  N
  N4       1.0000 0.08280  0.95050  0.15860  Biso   1.000  N
  N5       1.0000 0.58280  0.54950  0.65860  Biso   1.000  N
  N6       1.0000 0.08280  0.04950  0.65860  Biso   1.000  N
  N7       1.0000 0.41720  0.54950  0.84140  Biso   1.000  N
  N8       1.0000 0.91720  0.04950  0.84140  Biso   1.000  N
  N9       1.0000 0.27090  0.34880  0.41600  Biso   1.000  N
  N10      1.0000 0.77090  0.84880  0.41600  Biso   1.000  N
  N11      1.0000 0.72910  0.34880  0.08400  Biso   1.000  N
  N12      1.0000 0.22910  0.84880  0.08400  Biso   1.000  N
  N13      1.0000 0.72910  0.65120  0.58400  Biso   1.000  N
  N14      1.0000 0.22910  0.15120  0.58400  Biso   1.000  N
  N15      1.0000 0.27090  0.65120  0.91600  Biso   1.000  N
  N16      1.0000 0.77090  0.15120  0.91600  Biso   1.000  N
  C1       1.0000 0.60960  0.28600  0.47250  Biso   1.000  C
  C2       1.0000 0.10960  0.78600  0.47250  Biso   1.000  C
  C3       1.0000 0.39040  0.28600  0.02750  Biso   1.000  C
  C4       1.0000 0.89040  0.78600  0.02750  Biso   1.000  C
  C5       1.0000 0.39040  0.71400  0.52750  Biso   1.000  C
  C6       1.0000 0.89040  0.21400  0.52750  Biso   1.000  C
  C7       1.0000 0.60960  0.71400  0.97250  Biso   1.000  C
  C8       1.0000 0.10960  0.21400  0.97250  Biso   1.000  C
  C9       1.0000 0.71900  0.30270  0.49810  Biso   1.000  C
  C10      1.0000 0.21900  0.80270  0.49810  Biso   1.000  C
  C11      1.0000 0.28100  0.30270  0.00190  Biso   1.000  C
  C12      1.0000 0.78100  0.80270  0.00190  Biso   1.000  C
  C13      1.0000 0.28100  0.69730  0.50190  Biso   1.000  C
  C14      1.0000 0.78100  0.19730  0.50190  Biso   1.000  C
  C15      1.0000 0.71900  0.69730  0.99810  Biso   1.000  C
  C16      1.0000 0.21900  0.19730  0.99810  Biso   1.000  C
  C17      1.0000 0.30750  0.49300  0.21110  Biso   1.000  C
  C18      1.0000 0.80750  0.99300  0.21110  Biso   1.000  C
  C19      1.0000 0.69250  0.49300  0.28890  Biso   1.000  C
  C20      1.0000 0.19250  0.99300  0.28890  Biso   1.000  C
  C21      1.0000 0.69250  0.50700  0.78890  Biso   1.000  C
  C22      1.0000 0.19250  0.00700  0.78890  Biso   1.000  C
  C23      1.0000 0.30750  0.50700  0.71110  Biso   1.000  C
  C24      1.0000 0.80750  0.00700  0.71110  Biso   1.000  C
  C25      1.0000 0.31320  0.49830  0.30640  Biso   1.000  C
  C26      1.0000 0.81320  0.99830  0.30640  Biso   1.000  C
  C27      1.0000 0.68680  0.49830  0.19360  Biso   1.000  C
  C28      1.0000 0.18680  0.99830  0.19360  Biso   1.000  C
  C29      1.0000 0.68680  0.50170  0.69360  Biso   1.000  C
  C30      1.0000 0.18680  0.00170  0.69360  Biso   1.000  C
  C31      1.0000 0.31320  0.50170  0.80640  Biso   1.000  C
  C32      1.0000 0.81320  0.00170  0.80640  Biso   1.000  C
  C33      1.0000 0.23650  0.39540  0.33400  Biso   1.000  C
  C34      1.0000 0.73650  0.89540  0.33400  Biso   1.000  C
  C35      1.0000 0.76350  0.39540  0.16600  Biso   1.000  C
  C36      1.0000 0.26350  0.89540  0.16600  Biso   1.000  C
  C37      1.0000 0.76350  0.60460  0.66600  Biso   1.000  C
  C38      1.0000 0.26350  0.10460  0.66600  Biso   1.000  C
  C39      1.0000 0.23650  0.60460  0.83400  Biso   1.000  C
  C40      1.0000 0.73650  0.10460  0.83400  Biso   1.000  C
  C41      1.0000 0.28100  0.23040  0.53970  Biso   1.000  C
  C42      1.0000 0.78100  0.73040  0.53970  Biso   1.000  C
  C43      1.0000 0.71900  0.23040  0.96030  Biso   1.000  C
  C44      1.0000 0.21900  0.73040  0.96030  Biso   1.000  C
  C45      1.0000 0.71900  0.76960  0.46030  Biso   1.000  C
  C46      1.0000 0.21900  0.26960  0.46030  Biso   1.000  C
  C47      1.0000 0.28100  0.76960  0.03970  Biso   1.000  C
  C48      1.0000 0.78100  0.26960  0.03970  Biso   1.000  C
  H1       1.0000 0.75000  0.39000  0.52200  Biso   1.000  H
  H2       1.0000 0.25000  0.89000  0.52200  Biso   1.000  H
  H3       1.0000 0.25000  0.39000  0.97800  Biso   1.000  H
  H4       1.0000 0.75000  0.89000  0.97800  Biso   1.000  H
  H5       1.0000 0.25000  0.61000  0.47800  Biso   1.000  H
  H6       1.0000 0.75000  0.11000  0.47800  Biso   1.000  H
  H7       1.0000 0.75000  0.61000  0.02200  Biso   1.000  H
  H8       1.0000 0.25000  0.11000  0.02200  Biso   1.000  H
  H9       1.0000 0.31000  0.60000  0.33800  Biso   1.000  H
  H10      1.0000 0.81000  0.10000  0.33800  Biso   1.000  H
  H11      1.0000 0.69000  0.60000  0.16200  Biso   1.000  H
  H12      1.0000 0.19000  0.10000  0.16200  Biso   1.000  H
  H13      1.0000 0.69000  0.40000  0.66200  Biso   1.000  H
  H14      1.0000 0.19000  0.90000  0.66200  Biso   1.000  H
  H15      1.0000 0.31000  0.40000  0.83800  Biso   1.000  H
  H16      1.0000 0.81000  0.90000  0.83800  Biso   1.000  H
  H17      1.0000 0.24000  0.31000  0.29800  Biso   1.000  H
  H18      1.0000 0.74000  0.81000  0.29800  Biso   1.000  H
  H19      1.0000 0.76000  0.31000  0.20200  Biso   1.000  H
  H20      1.0000 0.26000  0.81000  0.20200  Biso   1.000  H
  H21      1.0000 0.76000  0.69000  0.70200  Biso   1.000  H
  H22      1.0000 0.26000  0.19000  0.70200  Biso   1.000  H
  H23      1.0000 0.24000  0.69000  0.79800  Biso   1.000  H
  H24      1.0000 0.74000  0.19000  0.79800  Biso   1.000  H
  H25      1.0000 0.17000  0.42000  0.32400  Biso   1.000  H
  H26      1.0000 0.67000  0.92000  0.32400  Biso   1.000  H
  H27      1.0000 0.83000  0.42000  0.17600  Biso   1.000  H
  H28      1.0000 0.33000  0.92000  0.17600  Biso   1.000  H
  H29      1.0000 0.83000  0.58000  0.67600  Biso   1.000  H
  H30      1.0000 0.33000  0.08000  0.67600  Biso   1.000  H
  H31      1.0000 0.17000  0.58000  0.82400  Biso   1.000  H
  H32      1.0000 0.67000  0.08000  0.82400  Biso   1.000  H
  H33      1.0000 0.25000  0.50000  0.18900  Biso   1.000  H
  H34      1.0000 0.75000  0.00000  0.18900  Biso   1.000  H
  H35      1.0000 0.75000  0.50000  0.31100  Biso   1.000  H
  H36      1.0000 0.25000  0.00000  0.31100  Biso   1.000  H
  H37      1.0000 0.75000  0.50000  0.81100  Biso   1.000  H
  H38      1.0000 0.25000  0.00000  0.81100  Biso   1.000  H
  H39      1.0000 0.25000  0.50000  0.68900  Biso   1.000  H
  H40      1.0000 0.75000  0.00000  0.68900  Biso   1.000  H
  H41      1.0000 0.35000  0.58000  0.17900  Biso   1.000  H
  H42      1.0000 0.85000  0.08000  0.17900  Biso   1.000  H
  H43      1.0000 0.65000  0.58000  0.32100  Biso   1.000  H
  H44      1.0000 0.15000  0.08000  0.32100  Biso   1.000  H
  H45      1.0000 0.65000  0.42000  0.82100  Biso   1.000  H
  H46      1.0000 0.15000  0.92000  0.82100  Biso   1.000  H
  H47      1.0000 0.35000  0.42000  0.67900  Biso   1.000  H
  H48      1.0000 0.85000  0.92000  0.67900  Biso   1.000  H
  H49      1.0000 0.33000  0.39000  0.17700  Biso   1.000  H
  H50      1.0000 0.83000  0.89000  0.17700  Biso   1.000  H
  H51      1.0000 0.67000  0.39000  0.32300  Biso   1.000  H
  H52      1.0000 0.17000  0.89000  0.32300  Biso   1.000  H
  H53      1.0000 0.67000  0.61000  0.82300  Biso   1.000  H
  H54      1.0000 0.17000  0.11000  0.82300  Biso   1.000  H
  H55      1.0000 0.33000  0.61000  0.67700  Biso   1.000  H
  H56      1.0000 0.83000  0.11000  0.67700  Biso   1.000  H
  H57      1.0000 0.47000  0.46000  0.30600  Biso   1.000  H
  H58      1.0000 0.97000  0.96000  0.30600  Biso   1.000  H
  H59      1.0000 0.53000  0.46000  0.19400  Biso   1.000  H
  H60      1.0000 0.03000  0.96000  0.19400  Biso   1.000  H
  H61      1.0000 0.53000  0.54000  0.69400  Biso   1.000  H
  H62      1.0000 0.03000  0.04000  0.69400  Biso   1.000  H
  H63      1.0000 0.47000  0.54000  0.80600  Biso   1.000  H
  H64      1.0000 0.97000  0.04000  0.80600  Biso   1.000  H
  O25      1.0000 0.02770  0.26900  0.17010  Biso   1.000  O
  O26      1.0000 0.52770  0.76900  0.17010  Biso   1.000  O
  O27      1.0000 0.97230  0.26900  0.32990  Biso   1.000  O
  O28      1.0000 0.47230  0.76900  0.32990  Biso   1.000  O
  O29      1.0000 0.97230  0.73100  0.82990  Biso   1.000  O
  O30      1.0000 0.47230  0.23100  0.82990  Biso   1.000  O
  O31      1.0000 0.02770  0.73100  0.67010  Biso   1.000  O
  O32      1.0000 0.52770  0.23100  0.67010  Biso   1.000  O
  O33      1.0000 0.40860  0.02800  0.40000  Biso   1.000  O
  O34      1.0000 0.90860  0.52800  0.40000  Biso   1.000  O
  O35      1.0000 0.59140  0.02800  0.10000  Biso   1.000  O
  O36      1.0000 0.09140  0.52800  0.10000  Biso   1.000  O
  O37      1.0000 0.59140  0.97200  0.60000  Biso   1.000  O
  O38      1.0000 0.09140  0.47200  0.60000  Biso   1.000  O
  O39      1.0000 0.40860  0.97200  0.90000  Biso   1.000  O
  O40      1.0000 0.90860  0.47200  0.90000  Biso   1.000  O
  O41      1.0000 0.50000  0.20800  0.25000  Biso   1.000  O
  O42      1.0000 0.00000  0.70800  0.25000  Biso   1.000  O
  O43      1.0000 0.50000  0.79200  0.75000  Biso   1.000  O
  O44      1.0000 0.00000  0.29200  0.75000  Biso   1.000  O
  H65      1.0000 0.08000  0.97000  0.61100  Biso   1.000  H
  H66      1.0000 0.58000  0.47000  0.61100  Biso   1.000  H
  H67      1.0000 0.92000  0.97000  0.88900  Biso   1.000  H
  H68      1.0000 0.42000  0.47000  0.88900  Biso   1.000  H
  H69      1.0000 0.92000  0.03000  0.38900  Biso   1.000  H
  H70      1.0000 0.42000  0.53000  0.38900  Biso   1.000  H
  H71      1.0000 0.08000  0.03000  0.11100  Biso   1.000  H
  H72      1.0000 0.58000  0.53000  0.11100  Biso   1.000  H
