data_image0
_cell_length_a       8.952
_cell_length_b       9.096
_cell_length_c       10.114
_cell_angle_alpha    81.39
_cell_angle_beta     86.47
_cell_angle_gamma    88.22

_symmetry_space_group_name_H-M    "P 1"
_symmetry_int_tables_number       1

loop_
  _symmetry_equiv_pos_as_xyz
  'x, y, z'

loop_
  _atom_site_label
  _atom_site_occupancy
  _atom_site_fract_x
  _atom_site_fract_y
  _atom_site_fract_z
  _atom_site_thermal_displace_type
  _atom_site_B_iso_or_equiv
  _atom_site_type_symbol
  Br1      1.0000 0.67197  0.40258  0.36261  Biso   1.000  Br
  Br2      1.0000 0.32803  0.59742  0.63739  Biso   1.000  Br
  Cu1      1.0000 0.50000  0.00000  0.00000  Biso   1.000  Cu
  Cl1      1.0000 0.54210  0.30310  0.86730  Biso   1.000  Cl
  Cl2      1.0000 0.45790  0.69690  0.13270  Biso   1.000  Cl
  Cl3      1.0000 0.05840  0.49100  0.01660  Biso   1.000  Cl
  Cl4      1.0000 0.94160  0.50900  0.98340  Biso   1.000  Cl
  O1       1.0000 0.30330  0.51730  0.98050  Biso   1.000  O
  O2       1.0000 0.69670  0.48270  0.01950  Biso   1.000  O
  N1       1.0000 0.32190  0.20590  0.31930  Biso   1.000  N
  N2       1.0000 0.67810  0.79410  0.68070  Biso   1.000  N
  N3       1.0000 0.42070  0.07320  0.17220  Biso   1.000  N
  N4       1.0000 0.57930  0.92680  0.82780  Biso   1.000  N
  N5       1.0000 0.08390  0.08950  0.84810  Biso   1.000  N
  N6       1.0000 0.91610  0.91050  0.15190  Biso   1.000  N
  N7       1.0000 0.29680  0.00330  0.92740  Biso   1.000  N
  N8       1.0000 0.70320  0.99670  0.07260  Biso   1.000  N
  C1       1.0000 0.12010  0.31890  0.45160  Biso   1.000  C
  C2       1.0000 0.87990  0.68110  0.54840  Biso   1.000  C
  C3       1.0000 0.10890  0.26610  0.58740  Biso   1.000  C
  C4       1.0000 0.89110  0.73390  0.41260  Biso   1.000  C
  H1       1.0000 0.19610  0.24200  0.63590  Biso   1.000  H
  H2       1.0000 0.80390  0.75800  0.36410  Biso   1.000  H
  C5       1.0000 0.96680  0.24930  0.65120  Biso   1.000  C
  C6       1.0000 0.03320  0.75070  0.34880  Biso   1.000  C
  C7       1.0000 0.83980  0.29360  0.58320  Biso   1.000  C
  C8       1.0000 0.16020  0.70640  0.41680  Biso   1.000  C
  H3       1.0000 0.74580  0.28960  0.63240  Biso   1.000  H
  H4       1.0000 0.25420  0.71040  0.36760  Biso   1.000  H
  C9       1.0000 0.84270  0.34010  0.45610  Biso   1.000  C
  C10      1.0000 0.15730  0.65990  0.54390  Biso   1.000  C
  C11      1.0000 0.98790  0.35440  0.37920  Biso   1.000  C
  C12      1.0000 0.01210  0.64560  0.62080  Biso   1.000  C
  H5       1.0000 0.99370  0.38590  0.28510  Biso   1.000  H
  H6       1.0000 0.00630  0.61410  0.71490  Biso   1.000  H
  C13      1.0000 0.26640  0.34440  0.37740  Biso   1.000  C
  C14      1.0000 0.73360  0.65560  0.62260  Biso   1.000  C
  H7       1.0000 0.34030  0.37100  0.43830  Biso   1.000  H
  H8       1.0000 0.65970  0.62900  0.56170  Biso   1.000  H
  H9       1.0000 0.25690  0.42870  0.30390  Biso   1.000  H
  H10      1.0000 0.74310  0.57130  0.69610  Biso   1.000  H
  C15      1.0000 0.35850  0.20570  0.18950  Biso   1.000  C
  C16      1.0000 0.64150  0.79430  0.81050  Biso   1.000  C
  H11      1.0000 0.34310  0.28650  0.12020  Biso   1.000  H
  H12      1.0000 0.65690  0.71350  0.87980  Biso   1.000  H
  C17      1.0000 0.41790  0.99540  0.29980  Biso   1.000  C
  C18      1.0000 0.58210  0.00460  0.70020  Biso   1.000  C
  H13      1.0000 0.45520  0.89620  0.31990  Biso   1.000  H
  H14      1.0000 0.54480  0.10380  0.68010  Biso   1.000  H
  C19      1.0000 0.35710  0.07340  0.39340  Biso   1.000  C
  C20      1.0000 0.64290  0.92660  0.60660  Biso   1.000  C
  H15      1.0000 0.34250  0.04350  0.48730  Biso   1.000  H
  H16      1.0000 0.65750  0.95650  0.51270  Biso   1.000  H
  C21      1.0000 0.96400  0.18830  0.80050  Biso   1.000  C
  C22      1.0000 0.03600  0.81170  0.19950  Biso   1.000  C
  H17      1.0000 0.96160  0.27410  0.85040  Biso   1.000  H
  H18      1.0000 0.03840  0.72590  0.14960  Biso   1.000  H
  H19      1.0000 0.86890  0.13550  0.82450  Biso   1.000  H
  H20      1.0000 0.13110  0.86450  0.17550  Biso   1.000  H
  C23      1.0000 0.20300  0.10730  0.90960  Biso   1.000  C
  C24      1.0000 0.79700  0.89270  0.09040  Biso   1.000  C
  H21      1.0000 0.21880  0.19870  0.94090  Biso   1.000  H
  H22      1.0000 0.78120  0.80130  0.05910  Biso   1.000  H
  C25      1.0000 0.23380  0.88720  0.87040  Biso   1.000  C
  C26      1.0000 0.76620  0.11280  0.12960  Biso   1.000  C
  H23      1.0000 0.27680  0.79180  0.86280  Biso   1.000  H
  H24      1.0000 0.72320  0.20820  0.13720  Biso   1.000  H
  C27      1.0000 0.10430  0.94000  0.83100  Biso   1.000  C
  C28      1.0000 0.89570  0.06000  0.16900  Biso   1.000  C
  H25      1.0000 0.03270  0.88420  0.79530  Biso   1.000  H
  H26      1.0000 0.96730  0.11580  0.20470  Biso   1.000  H
