data_image0
_cell_length_a       8.421
_cell_length_b       11.493
_cell_length_c       13.234
_cell_angle_alpha    78.107
_cell_angle_beta     72.502
_cell_angle_gamma    78.524

_symmetry_space_group_name_H-M    "P 1"
_symmetry_int_tables_number       1

loop_
  _symmetry_equiv_pos_as_xyz
  'x, y, z'

loop_
  _atom_site_label
  _atom_site_occupancy
  _atom_site_fract_x
  _atom_site_fract_y
  _atom_site_fract_z
  _atom_site_thermal_displace_type
  _atom_site_B_iso_or_equiv
  _atom_site_type_symbol
  Br1      1.0000 0.83996  0.83933  0.54943  Biso   1.000  Br
  Br2      1.0000 0.16004  0.16067  0.45057  Biso   1.000  Br
  Cu1      1.0000 0.00000  0.50000  0.00000  Biso   1.000  Cu
  Cl1      1.0000 0.24030  0.77209  0.31139  Biso   1.000  Cl
  Cl2      1.0000 0.75970  0.22791  0.68861  Biso   1.000  Cl
  Cl3      1.0000 0.18280  0.53493  0.42443  Biso   1.000  Cl
  Cl4      1.0000 0.81720  0.46507  0.57557  Biso   1.000  Cl
  Cl5      1.0000 0.50828  0.60367  0.37038  Biso   1.000  Cl
  Cl6      1.0000 0.49172  0.39633  0.62962  Biso   1.000  Cl
  O1       1.0000 0.43400  0.85370  0.01130  Biso   1.000  O
  O2       1.0000 0.56600  0.14630  0.98870  Biso   1.000  O
  O3       1.0000 0.34350  0.46930  0.21950  Biso   1.000  O
  O4       1.0000 0.65650  0.53070  0.78050  Biso   1.000  O
  O5       1.0000 0.71350  0.54550  0.97405  Biso   1.000  O
  O6       1.0000 0.28650  0.45450  0.02595  Biso   1.000  O
  O7       1.0000 0.46230  0.63410  0.14030  Biso   1.000  O
  O8       1.0000 0.53770  0.36590  0.85970  Biso   1.000  O
  O9       1.0000 0.28490  0.04920  0.10210  Biso   1.000  O
  O10      1.0000 0.71510  0.95080  0.89790  Biso   1.000  O
  N1       1.0000 0.72320  0.33030  0.29190  Biso   1.000  N
  N2       1.0000 0.27680  0.66970  0.70810  Biso   1.000  N
  N3       1.0000 0.89400  0.42260  0.15040  Biso   1.000  N
  N4       1.0000 0.10600  0.57740  0.84960  Biso   1.000  N
  N5       1.0000 0.83150  0.81470  0.13070  Biso   1.000  N
  N6       1.0000 0.16850  0.18530  0.86930  Biso   1.000  N
  N7       1.0000 0.97040  0.65500  0.05790  Biso   1.000  N
  N8       1.0000 0.02960  0.34500  0.94210  Biso   1.000  N
  C1       1.0000 0.64070  0.12880  0.35580  Biso   1.000  C
  C2       1.0000 0.35930  0.87120  0.64420  Biso   1.000  C
  C3       1.0000 0.64240  0.07670  0.26990  Biso   1.000  C
  C4       1.0000 0.35760  0.92330  0.73010  Biso   1.000  C
  H1       1.0000 0.60440  0.12560  0.21200  Biso   1.000  H
  H2       1.0000 0.39560  0.87440  0.78800  Biso   1.000  H
  C5       1.0000 0.69810  0.95540  0.26580  Biso   1.000  C
  C6       1.0000 0.30190  0.04460  0.73420  Biso   1.000  C
  C7       1.0000 0.76010  0.88380  0.34900  Biso   1.000  C
  C8       1.0000 0.23990  0.11620  0.65100  Biso   1.000  C
  H3       1.0000 0.80220  0.80100  0.34660  Biso   1.000  H
  H4       1.0000 0.19780  0.19900  0.65340  Biso   1.000  H
  C9       1.0000 0.75910  0.93500  0.43360  Biso   1.000  C
  C10      1.0000 0.24090  0.06500  0.56640  Biso   1.000  C
  C11      1.0000 0.70310  0.05570  0.43970  Biso   1.000  C
  C12      1.0000 0.29690  0.94430  0.56030  Biso   1.000  C
  H5       1.0000 0.70660  0.08890  0.49900  Biso   1.000  H
  H6       1.0000 0.29340  0.91110  0.50100  Biso   1.000  H
  C13      1.0000 0.58650  0.26280  0.35530  Biso   1.000  C
  C14      1.0000 0.41350  0.73720  0.64470  Biso   1.000  C
  H7       1.0000 0.48870  0.28930  0.32500  Biso   1.000  H
  H8       1.0000 0.51130  0.71070  0.67500  Biso   1.000  H
  H9       1.0000 0.55100  0.27970  0.42980  Biso   1.000  H
  H10      1.0000 0.44900  0.72030  0.57020  Biso   1.000  H
  C15      1.0000 0.75480  0.37190  0.18780  Biso   1.000  C
  C16      1.0000 0.24520  0.62810  0.81220  Biso   1.000  C
  H11      1.0000 0.68550  0.36600  0.14460  Biso   1.000  H
  H12      1.0000 0.31450  0.63400  0.85540  Biso   1.000  H
  C17      1.0000 0.95470  0.41070  0.23890  Biso   1.000  C
  C18      1.0000 0.04530  0.58930  0.76110  Biso   1.000  C
  H13      1.0000 0.05390  0.43810  0.23890  Biso   1.000  H
  H14      1.0000 0.94610  0.56190  0.76110  Biso   1.000  H
  C19      1.0000 0.85020  0.35380  0.32530  Biso   1.000  C
  C20      1.0000 0.14980  0.64620  0.67470  Biso   1.000  C
  H15      1.0000 0.86280  0.33390  0.39610  Biso   1.000  H
  H16      1.0000 0.13720  0.66610  0.60390  Biso   1.000  H
  C21      1.0000 0.68800  0.90310  0.17460  Biso   1.000  C
  C22      1.0000 0.31200  0.09690  0.82540  Biso   1.000  C
  H17      1.0000 0.58520  0.86430  0.19800  Biso   1.000  H
  H18      1.0000 0.41480  0.13570  0.80200  Biso   1.000  H
  H19      1.0000 0.67410  0.96990  0.11580  Biso   1.000  H
  H20      1.0000 0.32590  0.03010  0.88420  Biso   1.000  H
  C23      1.0000 0.82190  0.70930  0.10760  Biso   1.000  C
  C24      1.0000 0.17810  0.29070  0.89240  Biso   1.000  C
  H21      1.0000 0.72000  0.67670  0.12490  Biso   1.000  H
  H22      1.0000 0.28000  0.32330  0.87510  Biso   1.000  H
  C25      1.0000 0.08050  0.73060  0.05180  Biso   1.000  C
  C26      1.0000 0.91950  0.26940  0.94820  Biso   1.000  C
  H23      1.0000 0.19880  0.71520  0.02180  Biso   1.000  H
  H24      1.0000 0.80120  0.28480  0.97820  Biso   1.000  H
  C27      1.0000 0.99820  0.82960  0.09380  Biso   1.000  C
  C28      1.0000 0.00180  0.17040  0.90620  Biso   1.000  C
  H25      1.0000 0.04570  0.89650  0.09740  Biso   1.000  H
  H26      1.0000 0.95430  0.10350  0.90260  Biso   1.000  H
  C29      1.0000 0.37850  0.56830  0.21790  Biso   1.000  C
  C30      1.0000 0.62150  0.43170  0.78210  Biso   1.000  C
  C31      1.0000 0.32360  0.61640  0.32650  Biso   1.000  C
  C32      1.0000 0.67640  0.38360  0.67350  Biso   1.000  C
  C33      1.0000 0.15510  0.10460  0.17340  Biso   1.000  C
  C34      1.0000 0.84490  0.89540  0.82660  Biso   1.000  C
  H27      1.0000 0.13100  0.05110  0.24240  Biso   1.000  H
  H28      1.0000 0.86900  0.94890  0.75760  Biso   1.000  H
  H29      1.0000 0.05510  0.12380  0.14640  Biso   1.000  H
  H30      1.0000 0.94490  0.87620  0.85360  Biso   1.000  H
  H31      1.0000 0.18540  0.17890  0.18290  Biso   1.000  H
  H32      1.0000 0.81460  0.82110  0.81710  Biso   1.000  H
