data_image0
_cell_length_a       9.24
_cell_length_b       9.061
_cell_length_c       11.6
_cell_angle_alpha    90
_cell_angle_beta     91.023
_cell_angle_gamma    90

_symmetry_space_group_name_H-M    "P 1"
_symmetry_int_tables_number       1

loop_
  _symmetry_equiv_pos_as_xyz
  'x, y, z'

loop_
  _atom_site_label
  _atom_site_occupancy
  _atom_site_fract_x
  _atom_site_fract_y
  _atom_site_fract_z
  _atom_site_thermal_displace_type
  _atom_site_B_iso_or_equiv
  _atom_site_type_symbol
  Br1      1.0000 0.05077  0.45010  0.92698  Biso   1.000  Br
  Br2      1.0000 0.94923  0.95010  0.07302  Biso   1.000  Br
  Cu1      1.0000 0.68657  0.59920  0.43719  Biso   1.000  Cu
  Cu2      1.0000 0.31343  0.09920  0.56281  Biso   1.000  Cu
  O1       1.0000 0.54350  0.44460  0.46640  Biso   1.000  O
  O2       1.0000 0.45650  0.94460  0.53360  Biso   1.000  O
  O3       1.0000 0.41550  0.32270  0.59430  Biso   1.000  O
  O4       1.0000 0.58450  0.82270  0.40570  Biso   1.000  O
  O5       1.0000 0.71590  0.63270  0.60440  Biso   1.000  O
  O6       1.0000 0.28410  0.13270  0.39560  Biso   1.000  O
  O7       1.0000 0.63380  0.65150  0.78190  Biso   1.000  O
  O8       1.0000 0.36620  0.15150  0.21810  Biso   1.000  O
  O9       1.0000 0.04360  0.27960  0.30960  Biso   1.000  O
  O10      1.0000 0.95640  0.77960  0.69040  Biso   1.000  O
  N1       1.0000 0.88320  0.68410  0.41260  Biso   1.000  N
  N2       1.0000 0.11680  0.18410  0.58740  Biso   1.000  N
  N3       1.0000 0.11510  0.68860  0.37340  Biso   1.000  N
  N4       1.0000 0.88490  0.18860  0.62660  Biso   1.000  N
  N5       1.0000 0.33290  0.05410  0.73060  Biso   1.000  N
  N6       1.0000 0.66710  0.55410  0.26940  Biso   1.000  N
  N7       1.0000 0.40020  0.95570  0.89640  Biso   1.000  N
  N8       1.0000 0.59980  0.45570  0.10360  Biso   1.000  N
  C1       1.0000 0.99960  0.60150  0.39460  Biso   1.000  C
  C2       1.0000 0.00040  0.10150  0.60540  Biso   1.000  C
  C3       1.0000 0.92590  0.83000  0.40200  Biso   1.000  C
  C4       1.0000 0.07410  0.33000  0.59800  Biso   1.000  C
  C5       1.0000 0.07020  0.83090  0.37670  Biso   1.000  C
  C6       1.0000 0.92980  0.33090  0.62330  Biso   1.000  C
  C7       1.0000 0.25560  0.63270  0.33480  Biso   1.000  C
  C8       1.0000 0.74440  0.13270  0.66520  Biso   1.000  C
  C9       1.0000 0.26570  0.64460  0.20580  Biso   1.000  C
  C10      1.0000 0.73430  0.14460  0.79420  Biso   1.000  C
  C11      1.0000 0.17250  0.55700  0.13710  Biso   1.000  C
  C12      1.0000 0.82750  0.05700  0.86290  Biso   1.000  C
  C13      1.0000 0.17860  0.56910  0.02020  Biso   1.000  C
  C14      1.0000 0.82140  0.06910  0.97980  Biso   1.000  C
  C15      1.0000 0.27240  0.66790  0.96560  Biso   1.000  C
  C16      1.0000 0.72760  0.16790  0.03440  Biso   1.000  C
  C17      1.0000 0.36500  0.75200  0.03450  Biso   1.000  C
  C18      1.0000 0.63500  0.25200  0.96550  Biso   1.000  C
  C19      1.0000 0.35880  0.74370  0.15440  Biso   1.000  C
  C20      1.0000 0.64120  0.24370  0.84560  Biso   1.000  C
  C21      1.0000 0.47210  0.85350  0.97900  Biso   1.000  C
  C22      1.0000 0.52790  0.35350  0.02100  Biso   1.000  C
  C23      1.0000 0.41520  0.95190  0.78130  Biso   1.000  C
  C24      1.0000 0.58480  0.45190  0.21870  Biso   1.000  C
  C25      1.0000 0.26320  0.12720  0.81890  Biso   1.000  C
  C26      1.0000 0.73680  0.62720  0.18110  Biso   1.000  C
  C27      1.0000 0.30470  0.06650  0.92220  Biso   1.000  C
  C28      1.0000 0.69530  0.56650  0.07780  Biso   1.000  C
  C29      1.0000 0.47320  0.43470  0.55950  Biso   1.000  C
  C30      1.0000 0.52680  0.93470  0.44050  Biso   1.000  C
  C31      1.0000 0.46590  0.57560  0.63400  Biso   1.000  C
  C32      1.0000 0.53410  0.07560  0.36600  Biso   1.000  C
  C33      1.0000 0.61490  0.62190  0.67840  Biso   1.000  C
  C34      1.0000 0.38510  0.12190  0.32160  Biso   1.000  C
  C35      1.0000 0.96000  0.22300  0.30200  Biso   1.000  C
  C36      1.0000 0.04000  0.72300  0.69800  Biso   1.000  C
  H1       1.0000 0.00100  0.49450  0.39600  Biso   1.000  H
  H2       1.0000 0.99900  0.99450  0.60400  Biso   1.000  H
  H3       1.0000 0.86420  0.91570  0.41110  Biso   1.000  H
  H4       1.0000 0.13580  0.41570  0.58890  Biso   1.000  H
  H5       1.0000 0.12900  0.91770  0.36350  Biso   1.000  H
  H6       1.0000 0.87100  0.41770  0.63650  Biso   1.000  H
  H7       1.0000 0.26740  0.53070  0.35830  Biso   1.000  H
  H8       1.0000 0.73260  0.03070  0.64170  Biso   1.000  H
  H9       1.0000 0.33170  0.69210  0.36990  Biso   1.000  H
  H10      1.0000 0.66830  0.19210  0.63010  Biso   1.000  H
  H11      1.0000 0.10620  0.48830  0.17250  Biso   1.000  H
  H12      1.0000 0.89380  0.98830  0.82750  Biso   1.000  H
  H13      1.0000 0.27490  0.67450  0.88220  Biso   1.000  H
  H14      1.0000 0.72510  0.17450  0.11780  Biso   1.000  H
  H15      1.0000 0.42130  0.80520  0.20230  Biso   1.000  H
  H16      1.0000 0.57870  0.30520  0.79770  Biso   1.000  H
  H17      1.0000 0.52070  0.91080  0.03880  Biso   1.000  H
  H18      1.0000 0.47930  0.41080  0.96120  Biso   1.000  H
  H19      1.0000 0.54270  0.79490  0.93840  Biso   1.000  H
  H20      1.0000 0.45730  0.29490  0.06160  Biso   1.000  H
  H21      1.0000 0.47710  0.88350  0.74080  Biso   1.000  H
  H22      1.0000 0.52290  0.38350  0.25920  Biso   1.000  H
  H23      1.0000 0.19480  0.20760  0.80900  Biso   1.000  H
  H24      1.0000 0.80520  0.70760  0.19100  Biso   1.000  H
  H25      1.0000 0.27310  0.09590  0.99810  Biso   1.000  H
  H26      1.0000 0.72690  0.59590  0.00190  Biso   1.000  H
  H27      1.0000 0.40510  0.55600  0.69960  Biso   1.000  H
  H28      1.0000 0.59490  0.05600  0.30040  Biso   1.000  H
  H29      1.0000 0.42400  0.65490  0.58820  Biso   1.000  H
  H30      1.0000 0.57600  0.15490  0.41180  Biso   1.000  H
