data_image0
_cell_length_a       8.535
_cell_length_b       9.28
_cell_length_c       21.923
_cell_angle_alpha    90
_cell_angle_beta     94.81
_cell_angle_gamma    90

_symmetry_space_group_name_H-M    "P 1"
_symmetry_int_tables_number       1

loop_
  _symmetry_equiv_pos_as_xyz
  'x, y, z'

loop_
  _atom_site_label
  _atom_site_occupancy
  _atom_site_fract_x
  _atom_site_fract_y
  _atom_site_fract_z
  _atom_site_thermal_displace_type
  _atom_site_B_iso_or_equiv
  _atom_site_type_symbol
  Br1      1.0000 0.86518  0.82999  0.21942  Biso   1.000  Br
  Br2      1.0000 0.13482  0.32999  0.28058  Biso   1.000  Br
  Br3      1.0000 0.13482  0.17001  0.78058  Biso   1.000  Br
  Br4      1.0000 0.86518  0.67001  0.71942  Biso   1.000  Br
  Cu1      1.0000 0.00000  0.50000  0.50000  Biso   1.000  Cu
  Cu2      1.0000 0.00000  0.00000  0.00000  Biso   1.000  Cu
  S1       1.0000 0.10480  0.10240  0.51891  Biso   1.000  S
  S2       1.0000 0.89520  0.60240  0.98109  Biso   1.000  S
  S3       1.0000 0.89520  0.89760  0.48109  Biso   1.000  S
  S4       1.0000 0.10480  0.39760  0.01891  Biso   1.000  S
  O1       1.0000 0.50380  0.10590  0.44770  Biso   1.000  O
  O2       1.0000 0.49620  0.60590  0.05230  Biso   1.000  O
  O3       1.0000 0.49620  0.89410  0.55230  Biso   1.000  O
  O4       1.0000 0.50380  0.39410  0.94770  Biso   1.000  O
  O5       1.0000 0.22150  0.02630  0.38760  Biso   1.000  O
  O6       1.0000 0.77850  0.52630  0.11240  Biso   1.000  O
  O7       1.0000 0.77850  0.97370  0.61240  Biso   1.000  O
  O8       1.0000 0.22150  0.47370  0.88760  Biso   1.000  O
  O9       1.0000 0.05190  0.91570  0.36600  Biso   1.000  O
  O10      1.0000 0.94810  0.41570  0.13400  Biso   1.000  O
  O11      1.0000 0.94810  0.08430  0.63400  Biso   1.000  O
  O12      1.0000 0.05190  0.58430  0.86600  Biso   1.000  O
  O13      1.0000 0.08530  0.24580  0.53421  Biso   1.000  O
  O14      1.0000 0.91470  0.74580  0.96579  Biso   1.000  O
  O15      1.0000 0.91470  0.75420  0.46579  Biso   1.000  O
  O16      1.0000 0.08530  0.25420  0.03421  Biso   1.000  O
  O17      1.0000 0.20880  0.03080  0.56620  Biso   1.000  O
  O18      1.0000 0.79120  0.53080  0.93380  Biso   1.000  O
  O19      1.0000 0.79120  0.96920  0.43380  Biso   1.000  O
  O20      1.0000 0.20880  0.46920  0.06620  Biso   1.000  O
  O21      1.0000 0.16980  0.08210  0.45850  Biso   1.000  O
  O22      1.0000 0.83020  0.58210  0.04150  Biso   1.000  O
  O23      1.0000 0.83020  0.91790  0.54150  Biso   1.000  O
  O24      1.0000 0.16980  0.41790  0.95850  Biso   1.000  O
  O25      1.0000 0.94720  0.03500  0.51570  Biso   1.000  O
  O26      1.0000 0.05280  0.53500  0.98430  Biso   1.000  O
  O27      1.0000 0.05280  0.96500  0.48430  Biso   1.000  O
  O28      1.0000 0.94720  0.46500  0.01570  Biso   1.000  O
  N1       1.0000 0.40440  0.63110  0.42391  Biso   1.000  N
  N2       1.0000 0.59560  0.13110  0.07609  Biso   1.000  N
  N3       1.0000 0.59560  0.36890  0.57609  Biso   1.000  N
  N4       1.0000 0.40440  0.86890  0.92391  Biso   1.000  N
  N5       1.0000 0.20180  0.53030  0.46202  Biso   1.000  N
  N6       1.0000 0.79820  0.03030  0.03798  Biso   1.000  N
  N7       1.0000 0.79820  0.46970  0.53798  Biso   1.000  N
  N8       1.0000 0.20180  0.96970  0.96202  Biso   1.000  N
  N9       1.0000 0.21080  0.78780  0.15325  Biso   1.000  N
  N10      1.0000 0.78920  0.28780  0.34675  Biso   1.000  N
  N11      1.0000 0.78920  0.21220  0.84675  Biso   1.000  N
  N12      1.0000 0.21080  0.71220  0.65325  Biso   1.000  N
  N13      1.0000 0.09560  0.92310  0.08054  Biso   1.000  N
  N14      1.0000 0.90440  0.42310  0.41946  Biso   1.000  N
  N15      1.0000 0.90440  0.07690  0.91946  Biso   1.000  N
  N16      1.0000 0.09560  0.57690  0.58054  Biso   1.000  N
  C1       1.0000 0.51830  0.73730  0.33420  Biso   1.000  C
  C2       1.0000 0.48170  0.23730  0.16580  Biso   1.000  C
  C3       1.0000 0.48170  0.26270  0.66580  Biso   1.000  C
  C4       1.0000 0.51830  0.76270  0.83420  Biso   1.000  C
  C5       1.0000 0.39450  0.69710  0.29360  Biso   1.000  C
  C6       1.0000 0.60550  0.19710  0.20640  Biso   1.000  C
  C7       1.0000 0.60550  0.30290  0.70640  Biso   1.000  C
  C8       1.0000 0.39450  0.80290  0.79360  Biso   1.000  C
  H1       1.0000 0.29750  0.67030  0.30860  Biso   1.000  H
  H2       1.0000 0.70250  0.17030  0.19140  Biso   1.000  H
  H3       1.0000 0.70250  0.32970  0.69140  Biso   1.000  H
  H4       1.0000 0.29750  0.82970  0.80860  Biso   1.000  H
  C9       1.0000 0.40850  0.69510  0.23050  Biso   1.000  C
  C10      1.0000 0.59150  0.19510  0.26950  Biso   1.000  C
  C11      1.0000 0.59150  0.30490  0.76950  Biso   1.000  C
  C12      1.0000 0.40850  0.80490  0.73050  Biso   1.000  C
  C13      1.0000 0.54950  0.73310  0.20890  Biso   1.000  C
  C14      1.0000 0.45050  0.23310  0.29110  Biso   1.000  C
  C15      1.0000 0.45050  0.26690  0.79110  Biso   1.000  C
  C16      1.0000 0.54950  0.76690  0.70890  Biso   1.000  C
  H5       1.0000 0.56190  0.73040  0.16620  Biso   1.000  H
  H6       1.0000 0.43810  0.23040  0.33380  Biso   1.000  H
  H7       1.0000 0.43810  0.26960  0.83380  Biso   1.000  H
  H8       1.0000 0.56190  0.76960  0.66620  Biso   1.000  H
  C17      1.0000 0.67210  0.77510  0.24960  Biso   1.000  C
  C18      1.0000 0.32790  0.27510  0.25040  Biso   1.000  C
  C19      1.0000 0.32790  0.22490  0.75040  Biso   1.000  C
  C20      1.0000 0.67210  0.72490  0.74960  Biso   1.000  C
  C21      1.0000 0.65800  0.78060  0.31140  Biso   1.000  C
  C22      1.0000 0.34200  0.28060  0.18860  Biso   1.000  C
  C23      1.0000 0.34200  0.21940  0.68860  Biso   1.000  C
  C24      1.0000 0.65800  0.71940  0.81140  Biso   1.000  C
  H9       1.0000 0.74310  0.81370  0.33850  Biso   1.000  H
  H10      1.0000 0.25690  0.31370  0.16150  Biso   1.000  H
  H11      1.0000 0.25690  0.18630  0.66150  Biso   1.000  H
  H12      1.0000 0.74310  0.68630  0.83850  Biso   1.000  H
  C25      1.0000 0.50700  0.74280  0.40280  Biso   1.000  C
  C26      1.0000 0.49300  0.24280  0.09720  Biso   1.000  C
  C27      1.0000 0.49300  0.25720  0.59720  Biso   1.000  C
  C28      1.0000 0.50700  0.75720  0.90280  Biso   1.000  C
  H13      1.0000 0.61350  0.73130  0.42390  Biso   1.000  H
  H14      1.0000 0.38650  0.23130  0.07610  Biso   1.000  H
  H15      1.0000 0.38650  0.26870  0.57610  Biso   1.000  H
  H16      1.0000 0.61350  0.76870  0.92390  Biso   1.000  H
  H17      1.0000 0.46660  0.83840  0.41390  Biso   1.000  H
  H18      1.0000 0.53340  0.33840  0.08610  Biso   1.000  H
  H19      1.0000 0.53340  0.16160  0.58610  Biso   1.000  H
  H20      1.0000 0.46660  0.66160  0.91390  Biso   1.000  H
  C29      1.0000 0.26660  0.65290  0.44730  Biso   1.000  C
  C30      1.0000 0.73340  0.15290  0.05270  Biso   1.000  C
  C31      1.0000 0.73340  0.34710  0.55270  Biso   1.000  C
  C32      1.0000 0.26660  0.84710  0.94730  Biso   1.000  C
  H21      1.0000 0.22120  0.74500  0.45270  Biso   1.000  H
  H22      1.0000 0.77880  0.24500  0.04730  Biso   1.000  H
  H23      1.0000 0.77880  0.25500  0.54730  Biso   1.000  H
  H24      1.0000 0.22120  0.75500  0.95270  Biso   1.000  H
  C33      1.0000 0.30510  0.42460  0.44710  Biso   1.000  C
  C34      1.0000 0.69490  0.92460  0.05290  Biso   1.000  C
  C35      1.0000 0.69490  0.57540  0.55290  Biso   1.000  C
  C36      1.0000 0.30510  0.07540  0.94710  Biso   1.000  C
  H25      1.0000 0.29030  0.32410  0.45220  Biso   1.000  H
  H26      1.0000 0.70970  0.82410  0.04780  Biso   1.000  H
  H27      1.0000 0.70970  0.67590  0.54780  Biso   1.000  H
  H28      1.0000 0.29030  0.17590  0.95220  Biso   1.000  H
  C37      1.0000 0.43010  0.48560  0.42400  Biso   1.000  C
  C38      1.0000 0.56990  0.98560  0.07600  Biso   1.000  C
  C39      1.0000 0.56990  0.51440  0.57600  Biso   1.000  C
  C40      1.0000 0.43010  0.01440  0.92400  Biso   1.000  C
  H29      1.0000 0.51890  0.43720  0.41040  Biso   1.000  H
  H30      1.0000 0.48110  0.93720  0.08960  Biso   1.000  H
  H31      1.0000 0.48110  0.56280  0.58960  Biso   1.000  H
  H32      1.0000 0.51890  0.06280  0.91040  Biso   1.000  H
  C41      1.0000 0.26850  0.65850  0.18610  Biso   1.000  C
  C42      1.0000 0.73150  0.15850  0.31390  Biso   1.000  C
  C43      1.0000 0.73150  0.34150  0.81390  Biso   1.000  C
  C44      1.0000 0.26850  0.84150  0.68610  Biso   1.000  C
  H33      1.0000 0.29960  0.58550  0.15650  Biso   1.000  H
  H34      1.0000 0.70040  0.08550  0.34350  Biso   1.000  H
  H35      1.0000 0.70040  0.41450  0.84350  Biso   1.000  H
  H36      1.0000 0.29960  0.91450  0.65650  Biso   1.000  H
  H37      1.0000 0.18370  0.61700  0.20880  Biso   1.000  H
  H38      1.0000 0.81630  0.11700  0.29120  Biso   1.000  H
  H39      1.0000 0.81630  0.38300  0.79120  Biso   1.000  H
  H40      1.0000 0.18370  0.88300  0.70880  Biso   1.000  H
  C45      1.0000 0.14770  0.79350  0.09470  Biso   1.000  C
  C46      1.0000 0.85230  0.29350  0.40530  Biso   1.000  C
  C47      1.0000 0.85230  0.20650  0.90530  Biso   1.000  C
  C48      1.0000 0.14770  0.70650  0.59470  Biso   1.000  C
  H41      1.0000 0.14200  0.71390  0.06730  Biso   1.000  H
  H42      1.0000 0.85800  0.21390  0.43270  Biso   1.000  H
  H43      1.0000 0.85800  0.28610  0.93270  Biso   1.000  H
  H44      1.0000 0.14200  0.78610  0.56730  Biso   1.000  H
  C49      1.0000 0.12620  0.00550  0.13170  Biso   1.000  C
  C50      1.0000 0.87380  0.50550  0.36830  Biso   1.000  C
  C51      1.0000 0.87380  0.99450  0.86830  Biso   1.000  C
  C52      1.0000 0.12620  0.49450  0.63170  Biso   1.000  C
  H45      1.0000 0.10080  0.10470  0.13500  Biso   1.000  H
  H46      1.0000 0.89920  0.60470  0.36500  Biso   1.000  H
  H47      1.0000 0.89920  0.89530  0.86500  Biso   1.000  H
  H48      1.0000 0.10080  0.39530  0.63500  Biso   1.000  H
  C53      1.0000 0.19820  0.92400  0.17690  Biso   1.000  C
  C54      1.0000 0.80180  0.42400  0.32310  Biso   1.000  C
  C55      1.0000 0.80180  0.07600  0.82310  Biso   1.000  C
  C56      1.0000 0.19820  0.57600  0.67690  Biso   1.000  C
  H49      1.0000 0.23320  0.95490  0.21710  Biso   1.000  H
  H50      1.0000 0.76680  0.45490  0.28290  Biso   1.000  H
  H51      1.0000 0.76680  0.04510  0.78290  Biso   1.000  H
  H52      1.0000 0.23320  0.54510  0.71710  Biso   1.000  H
