data_image0
_cell_length_a       7.141
_cell_length_b       10.934
_cell_length_c       11.979
_cell_angle_alpha    102.289
_cell_angle_beta     97.31
_cell_angle_gamma    93.6

_symmetry_space_group_name_H-M    "P 1"
_symmetry_int_tables_number       1

loop_
  _symmetry_equiv_pos_as_xyz
  'x, y, z'

loop_
  _atom_site_label
  _atom_site_occupancy
  _atom_site_fract_x
  _atom_site_fract_y
  _atom_site_fract_z
  _atom_site_thermal_displace_type
  _atom_site_B_iso_or_equiv
  _atom_site_type_symbol
  Br1      1.0000 0.17793  0.07861  0.40806  Biso   1.000  Br
  Br2      1.0000 0.82207  0.92139  0.59194  Biso   1.000  Br
  Cu1      1.0000 0.21951  0.63516  0.83008  Biso   1.000  Cu
  Cu2      1.0000 0.78049  0.36484  0.16992  Biso   1.000  Cu
  S1       1.0000 0.73443  0.61034  0.88493  Biso   1.000  S
  S2       1.0000 0.26557  0.38966  0.11507  Biso   1.000  S
  O1       1.0000 0.27500  0.45820  0.83220  Biso   1.000  O
  O2       1.0000 0.72500  0.54180  0.16780  Biso   1.000  O
  O3       1.0000 0.20100  0.66960  0.99679  Biso   1.000  O
  O4       1.0000 0.79900  0.33040  0.00321  Biso   1.000  O
  O5       1.0000 0.83450  0.65840  0.00610  Biso   1.000  O
  O6       1.0000 0.16550  0.34160  0.99390  Biso   1.000  O
  O7       1.0000 0.87370  0.61040  0.80500  Biso   1.000  O
  O8       1.0000 0.12630  0.38960  0.19500  Biso   1.000  O
  O9       1.0000 0.58170  0.68800  0.86210  Biso   1.000  O
  O10      1.0000 0.41830  0.31200  0.13790  Biso   1.000  O
  O11      1.0000 0.65040  0.47970  0.87550  Biso   1.000  O
  O12      1.0000 0.34960  0.52030  0.12450  Biso   1.000  O
  N1       1.0000 0.21570  0.82060  0.83790  Biso   1.000  N
  N2       1.0000 0.78430  0.17940  0.16210  Biso   1.000  N
  N3       1.0000 0.32710  0.01610  0.85550  Biso   1.000  N
  N4       1.0000 0.67290  0.98390  0.14450  Biso   1.000  N
  N5       1.0000 0.82070  0.38700  0.51800  Biso   1.000  N
  N6       1.0000 0.17930  0.61300  0.48200  Biso   1.000  N
  N7       1.0000 0.78250  0.40590  0.33870  Biso   1.000  N
  N8       1.0000 0.21750  0.59410  0.66130  Biso   1.000  N
  C1       1.0000 0.36580  0.89590  0.83430  Biso   1.000  C
  C2       1.0000 0.63420  0.10410  0.16570  Biso   1.000  C
  C3       1.0000 0.07410  0.89670  0.86200  Biso   1.000  C
  C4       1.0000 0.92590  0.10330  0.13800  Biso   1.000  C
  C5       1.0000 0.14140  0.01840  0.87340  Biso   1.000  C
  C6       1.0000 0.85860  0.98160  0.12660  Biso   1.000  C
  C7       1.0000 0.46080  0.12470  0.85810  Biso   1.000  C
  C8       1.0000 0.53920  0.87530  0.14190  Biso   1.000  C
  C9       1.0000 0.48020  0.14610  0.73810  Biso   1.000  C
  C10      1.0000 0.51980  0.85390  0.26190  Biso   1.000  C
  C11      1.0000 0.64350  0.21510  0.72620  Biso   1.000  C
  C12      1.0000 0.35650  0.78490  0.27380  Biso   1.000  C
  C13      1.0000 0.66520  0.24750  0.62240  Biso   1.000  C
  C14      1.0000 0.33480  0.75250  0.37760  Biso   1.000  C
  C15      1.0000 0.52390  0.20640  0.52790  Biso   1.000  C
  C16      1.0000 0.47610  0.79360  0.47210  Biso   1.000  C
  C17      1.0000 0.36540  0.13540  0.54080  Biso   1.000  C
  C18      1.0000 0.63460  0.86460  0.45920  Biso   1.000  C
  C19      1.0000 0.33880  0.10480  0.64420  Biso   1.000  C
  C20      1.0000 0.66120  0.89520  0.35580  Biso   1.000  C
  C21      1.0000 0.84480  0.32550  0.61530  Biso   1.000  C
  C22      1.0000 0.15520  0.67450  0.38470  Biso   1.000  C
  C23      1.0000 0.84170  0.33520  0.40940  Biso   1.000  C
  C24      1.0000 0.15830  0.66480  0.59060  Biso   1.000  C
  C25      1.0000 0.72080  0.50950  0.40660  Biso   1.000  C
  C26      1.0000 0.27920  0.49050  0.59340  Biso   1.000  C
  C27      1.0000 0.74310  0.49820  0.51730  Biso   1.000  C
  C28      1.0000 0.25690  0.50180  0.48270  Biso   1.000  C
  H1       1.0000 0.48780  0.86770  0.81850  Biso   1.000  H
  H2       1.0000 0.51220  0.13230  0.18150  Biso   1.000  H
  H3       1.0000 0.94600  0.86810  0.86960  Biso   1.000  H
  H4       1.0000 0.05400  0.13190  0.13040  Biso   1.000  H
  H5       1.0000 0.07250  0.09220  0.89060  Biso   1.000  H
  H6       1.0000 0.92750  0.90780  0.10940  Biso   1.000  H
  H7       1.0000 0.41660  0.19910  0.90300  Biso   1.000  H
  H8       1.0000 0.58340  0.80090  0.09700  Biso   1.000  H
  H9       1.0000 0.58440  0.11100  0.89490  Biso   1.000  H
  H10      1.0000 0.41560  0.88900  0.10510  Biso   1.000  H
  H11      1.0000 0.74370  0.24150  0.79140  Biso   1.000  H
  H12      1.0000 0.25630  0.75850  0.20860  Biso   1.000  H
  H13      1.0000 0.53710  0.22730  0.45440  Biso   1.000  H
  H14      1.0000 0.46290  0.77270  0.54560  Biso   1.000  H
  H15      1.0000 0.22430  0.05610  0.65100  Biso   1.000  H
  H16      1.0000 0.77570  0.94390  0.34900  Biso   1.000  H
  H17      1.0000 0.94630  0.27090  0.60560  Biso   1.000  H
  H18      1.0000 0.05370  0.72910  0.39440  Biso   1.000  H
  H19      1.0000 0.87820  0.38900  0.68640  Biso   1.000  H
  H20      1.0000 0.12180  0.61100  0.31360  Biso   1.000  H
  H21      1.0000 0.89380  0.25550  0.38570  Biso   1.000  H
  H22      1.0000 0.10620  0.74450  0.61430  Biso   1.000  H
  H23      1.0000 0.66910  0.57930  0.37880  Biso   1.000  H
  H24      1.0000 0.33090  0.42070  0.62120  Biso   1.000  H
  H25      1.0000 0.71150  0.55730  0.58340  Biso   1.000  H
  H26      1.0000 0.28850  0.44270  0.41660  Biso   1.000  H
  H27      1.0000 0.23970  0.42410  0.88660  Biso   1.000  H
  H28      1.0000 0.76030  0.57590  0.11340  Biso   1.000  H
  H29      1.0000 0.24700  0.61580  0.03579  Biso   1.000  H
  H30      1.0000 0.75300  0.38420  0.96421  Biso   1.000  H
