data_image0
_cell_length_a       9.785
_cell_length_b       8.912
_cell_length_c       23.822
_cell_angle_alpha    90
_cell_angle_beta     91.54
_cell_angle_gamma    90

_symmetry_space_group_name_H-M    "P 1"
_symmetry_int_tables_number       1

loop_
  _symmetry_equiv_pos_as_xyz
  'x, y, z'

loop_
  _atom_site_label
  _atom_site_occupancy
  _atom_site_fract_x
  _atom_site_fract_y
  _atom_site_fract_z
  _atom_site_thermal_displace_type
  _atom_site_B_iso_or_equiv
  _atom_site_type_symbol
  Br1      1.0000 0.05189  0.53983  0.77018  Biso   1.000  Br
  Br2      1.0000 0.94811  0.03983  0.72982  Biso   1.000  Br
  Br3      1.0000 0.94811  0.46017  0.22982  Biso   1.000  Br
  Br4      1.0000 0.05189  0.96017  0.27018  Biso   1.000  Br
  Cu1      1.0000 0.37816  0.25176  0.94929  Biso   1.000  Cu
  Cu2      1.0000 0.62184  0.75176  0.55071  Biso   1.000  Cu
  Cu3      1.0000 0.62184  0.74824  0.05071  Biso   1.000  Cu
  Cu4      1.0000 0.37816  0.24824  0.44929  Biso   1.000  Cu
  O1       1.0000 0.56050  0.15210  0.96120  Biso   1.000  O
  O2       1.0000 0.43950  0.65210  0.53880  Biso   1.000  O
  O3       1.0000 0.43950  0.84790  0.03880  Biso   1.000  O
  O4       1.0000 0.56050  0.34790  0.46120  Biso   1.000  O
  O5       1.0000 0.67660  0.97540  0.00817  Biso   1.000  O
  O6       1.0000 0.32340  0.47540  0.49183  Biso   1.000  O
  O7       1.0000 0.32340  0.02460  0.99183  Biso   1.000  O
  O8       1.0000 0.67660  0.52460  0.50817  Biso   1.000  O
  O9       1.0000 0.40960  0.34460  0.02525  Biso   1.000  O
  O10      1.0000 0.59040  0.84460  0.47475  Biso   1.000  O
  O11      1.0000 0.59040  0.65540  0.97475  Biso   1.000  O
  O12      1.0000 0.40960  0.15540  0.52525  Biso   1.000  O
  O13      1.0000 0.52260  0.52150  0.07260  Biso   1.000  O
  O14      1.0000 0.47740  0.02150  0.42740  Biso   1.000  O
  O15      1.0000 0.47740  0.47850  0.92740  Biso   1.000  O
  O16      1.0000 0.52260  0.97850  0.57260  Biso   1.000  O
  O17      1.0000 0.10380  0.87850  0.94480  Biso   1.000  O
  O18      1.0000 0.89620  0.37850  0.55520  Biso   1.000  O
  O19      1.0000 0.89620  0.12150  0.05520  Biso   1.000  O
  O20      1.0000 0.10380  0.62150  0.44480  Biso   1.000  O
  O21      1.0000 0.37140  0.27080  0.63470  Biso   1.000  O
  O22      1.0000 0.62860  0.77080  0.86530  Biso   1.000  O
  O23      1.0000 0.62860  0.72920  0.36530  Biso   1.000  O
  O24      1.0000 0.37140  0.22920  0.13470  Biso   1.000  O
  O25      1.0000 0.24140  0.32370  0.62790  Biso   1.000  O
  O26      1.0000 0.75860  0.82370  0.87210  Biso   1.000  O
  O27      1.0000 0.75860  0.67630  0.37210  Biso   1.000  O
  O28      1.0000 0.24140  0.17630  0.12790  Biso   1.000  O
  O29      1.0000 0.14850  0.41400  0.57810  Biso   1.000  O
  O30      1.0000 0.85150  0.91400  0.92190  Biso   1.000  O
  O31      1.0000 0.85150  0.58600  0.42190  Biso   1.000  O
  O32      1.0000 0.14850  0.08600  0.07810  Biso   1.000  O
  N1       1.0000 0.36720  0.18120  0.86984  Biso   1.000  N
  N2       1.0000 0.63280  0.68120  0.63016  Biso   1.000  N
  N3       1.0000 0.63280  0.81880  0.13016  Biso   1.000  N
  N4       1.0000 0.36720  0.31880  0.36984  Biso   1.000  N
  N5       1.0000 0.40260  0.05460  0.79240  Biso   1.000  N
  N6       1.0000 0.59740  0.55460  0.70760  Biso   1.000  N
  N7       1.0000 0.59740  0.94540  0.20760  Biso   1.000  N
  N8       1.0000 0.40260  0.44540  0.29240  Biso   1.000  N
  N9       1.0000 0.81130  0.83750  0.55490  Biso   1.000  N
  N10      1.0000 0.18870  0.33750  0.94510  Biso   1.000  N
  N11      1.0000 0.18870  0.16250  0.44510  Biso   1.000  N
  N12      1.0000 0.81130  0.66250  0.05490  Biso   1.000  N
  N13      1.0000 0.03270  0.85900  0.56822  Biso   1.000  N
  N14      1.0000 0.96730  0.35900  0.93178  Biso   1.000  N
  N15      1.0000 0.96730  0.14100  0.43178  Biso   1.000  N
  N16      1.0000 0.03270  0.64100  0.06822  Biso   1.000  N
  C1       1.0000 0.43570  0.06960  0.84710  Biso   1.000  C
  C2       1.0000 0.56430  0.56960  0.65290  Biso   1.000  C
  C3       1.0000 0.56430  0.93040  0.15290  Biso   1.000  C
  C4       1.0000 0.43570  0.43040  0.34710  Biso   1.000  C
  C5       1.0000 0.28850  0.24230  0.82720  Biso   1.000  C
  C6       1.0000 0.71150  0.74230  0.67280  Biso   1.000  C
  C7       1.0000 0.71150  0.75770  0.17280  Biso   1.000  C
  C8       1.0000 0.28850  0.25770  0.32720  Biso   1.000  C
  C9       1.0000 0.30890  0.16410  0.77890  Biso   1.000  C
  C10      1.0000 0.69110  0.66410  0.72110  Biso   1.000  C
  C11      1.0000 0.69110  0.83590  0.22110  Biso   1.000  C
  C12      1.0000 0.30890  0.33590  0.27890  Biso   1.000  C
  C13      1.0000 0.45680  0.94210  0.75410  Biso   1.000  C
  C14      1.0000 0.54320  0.44210  0.74590  Biso   1.000  C
  C15      1.0000 0.54320  0.05790  0.24590  Biso   1.000  C
  C16      1.0000 0.45680  0.55790  0.25410  Biso   1.000  C
  C17      1.0000 0.34360  0.85230  0.72550  Biso   1.000  C
  C18      1.0000 0.65640  0.35230  0.77450  Biso   1.000  C
  C19      1.0000 0.65640  0.14770  0.27450  Biso   1.000  C
  C20      1.0000 0.34360  0.64770  0.22550  Biso   1.000  C
  C21      1.0000 0.26750  0.75210  0.75590  Biso   1.000  C
  C22      1.0000 0.73250  0.25210  0.74410  Biso   1.000  C
  C23      1.0000 0.73250  0.24790  0.24410  Biso   1.000  C
  C24      1.0000 0.26750  0.74790  0.25590  Biso   1.000  C
  C25      1.0000 0.16050  0.67720  0.72950  Biso   1.000  C
  C26      1.0000 0.83950  0.17720  0.77050  Biso   1.000  C
  C27      1.0000 0.83950  0.32280  0.27050  Biso   1.000  C
  C28      1.0000 0.16050  0.82280  0.22950  Biso   1.000  C
  C29      1.0000 0.12850  0.69710  0.67320  Biso   1.000  C
  C30      1.0000 0.87150  0.19710  0.82680  Biso   1.000  C
  C31      1.0000 0.87150  0.30290  0.32680  Biso   1.000  C
  C32      1.0000 0.12850  0.80290  0.17320  Biso   1.000  C
  C33      1.0000 0.20590  0.79660  0.64230  Biso   1.000  C
  C34      1.0000 0.79410  0.29660  0.85770  Biso   1.000  C
  C35      1.0000 0.79410  0.20340  0.35770  Biso   1.000  C
  C36      1.0000 0.20590  0.70340  0.14230  Biso   1.000  C
  C37      1.0000 0.31270  0.87460  0.66860  Biso   1.000  C
  C38      1.0000 0.68730  0.37460  0.83140  Biso   1.000  C
  C39      1.0000 0.68730  0.12540  0.33140  Biso   1.000  C
  C40      1.0000 0.31270  0.62540  0.16860  Biso   1.000  C
  C41      1.0000 0.17560  0.81870  0.57960  Biso   1.000  C
  C42      1.0000 0.82440  0.31870  0.92040  Biso   1.000  C
  C43      1.0000 0.82440  0.18130  0.42040  Biso   1.000  C
  C44      1.0000 0.17560  0.68130  0.07960  Biso   1.000  C
  C45      1.0000 0.92790  0.76400  0.55900  Biso   1.000  C
  C46      1.0000 0.07210  0.26400  0.94100  Biso   1.000  C
  C47      1.0000 0.07210  0.23600  0.44100  Biso   1.000  C
  C48      1.0000 0.92790  0.73600  0.05900  Biso   1.000  C
  C49      1.0000 0.84360  0.98660  0.56140  Biso   1.000  C
  C50      1.0000 0.15640  0.48660  0.93860  Biso   1.000  C
  C51      1.0000 0.15640  0.01340  0.43860  Biso   1.000  C
  C52      1.0000 0.84360  0.51340  0.06140  Biso   1.000  C
  C53      1.0000 0.97980  0.00090  0.56950  Biso   1.000  C
  C54      1.0000 0.02020  0.50090  0.93050  Biso   1.000  C
  C55      1.0000 0.02020  0.99910  0.43050  Biso   1.000  C
  C56      1.0000 0.97980  0.49910  0.06950  Biso   1.000  C
  C57      1.0000 0.56900  0.03640  0.99155  Biso   1.000  C
  C58      1.0000 0.43100  0.53640  0.50845  Biso   1.000  C
  C59      1.0000 0.43100  0.96360  0.00845  Biso   1.000  C
  C60      1.0000 0.56900  0.46360  0.49155  Biso   1.000  C
  C61      1.0000 0.48190  0.46250  0.02821  Biso   1.000  C
  C62      1.0000 0.51810  0.96250  0.47179  Biso   1.000  C
  C63      1.0000 0.51810  0.53750  0.97179  Biso   1.000  C
  C64      1.0000 0.48190  0.03750  0.52821  Biso   1.000  C
  C65      1.0000 0.14820  0.86130  0.88890  Biso   1.000  C
  C66      1.0000 0.85180  0.36130  0.61110  Biso   1.000  C
  C67      1.0000 0.85180  0.13870  0.11110  Biso   1.000  C
  C68      1.0000 0.14820  0.63870  0.38890  Biso   1.000  C
  H1       1.0000 0.50070  0.00630  0.86740  Biso   1.000  H
  H2       1.0000 0.49930  0.50630  0.63260  Biso   1.000  H
  H3       1.0000 0.49930  0.99370  0.13260  Biso   1.000  H
  H4       1.0000 0.50070  0.49370  0.36740  Biso   1.000  H
  H5       1.0000 0.22790  0.32760  0.83090  Biso   1.000  H
  H6       1.0000 0.77210  0.82760  0.66910  Biso   1.000  H
  H7       1.0000 0.77210  0.67240  0.16910  Biso   1.000  H
  H8       1.0000 0.22790  0.17240  0.33090  Biso   1.000  H
  H9       1.0000 0.26570  0.18250  0.74240  Biso   1.000  H
  H10      1.0000 0.73430  0.68250  0.75760  Biso   1.000  H
  H11      1.0000 0.73430  0.81750  0.25760  Biso   1.000  H
  H12      1.0000 0.26570  0.31750  0.24240  Biso   1.000  H
  H13      1.0000 0.50920  0.99270  0.72570  Biso   1.000  H
  H14      1.0000 0.49080  0.49270  0.77430  Biso   1.000  H
  H15      1.0000 0.49080  0.00730  0.27430  Biso   1.000  H
  H16      1.0000 0.50920  0.50730  0.22570  Biso   1.000  H
  H17      1.0000 0.51600  0.87410  0.77520  Biso   1.000  H
  H18      1.0000 0.48400  0.37410  0.72480  Biso   1.000  H
  H19      1.0000 0.48400  0.12590  0.22480  Biso   1.000  H
  H20      1.0000 0.51600  0.62590  0.27520  Biso   1.000  H
  H21      1.0000 0.28960  0.73360  0.79520  Biso   1.000  H
  H22      1.0000 0.71040  0.23360  0.70480  Biso   1.000  H
  H23      1.0000 0.71040  0.26640  0.20480  Biso   1.000  H
  H24      1.0000 0.28960  0.76640  0.29520  Biso   1.000  H
  H25      1.0000 0.05230  0.64400  0.65550  Biso   1.000  H
  H26      1.0000 0.94770  0.14400  0.84450  Biso   1.000  H
  H27      1.0000 0.94770  0.35600  0.34450  Biso   1.000  H
  H28      1.0000 0.05230  0.85600  0.15550  Biso   1.000  H
  H29      1.0000 0.36640  0.94480  0.64720  Biso   1.000  H
  H30      1.0000 0.63360  0.44480  0.85280  Biso   1.000  H
  H31      1.0000 0.63360  0.05520  0.35280  Biso   1.000  H
  H32      1.0000 0.36640  0.55520  0.14720  Biso   1.000  H
  H33      1.0000 0.19480  0.72550  0.56030  Biso   1.000  H
  H34      1.0000 0.80520  0.22550  0.93970  Biso   1.000  H
  H35      1.0000 0.80520  0.27450  0.43970  Biso   1.000  H
  H36      1.0000 0.19480  0.77450  0.06030  Biso   1.000  H
  H37      1.0000 0.23410  0.89740  0.56560  Biso   1.000  H
  H38      1.0000 0.76590  0.39740  0.93440  Biso   1.000  H
  H39      1.0000 0.76590  0.10260  0.43440  Biso   1.000  H
  H40      1.0000 0.23410  0.60260  0.06560  Biso   1.000  H
  H41      1.0000 0.93680  0.65600  0.55540  Biso   1.000  H
  H42      1.0000 0.06320  0.15600  0.94460  Biso   1.000  H
  H43      1.0000 0.06320  0.34400  0.44460  Biso   1.000  H
  H44      1.0000 0.93680  0.84400  0.05540  Biso   1.000  H
  H45      1.0000 0.77850  0.06870  0.56010  Biso   1.000  H
  H46      1.0000 0.22150  0.56870  0.93990  Biso   1.000  H
  H47      1.0000 0.22150  0.93130  0.43990  Biso   1.000  H
  H48      1.0000 0.77850  0.43130  0.06010  Biso   1.000  H
  H49      1.0000 0.03070  0.09310  0.57560  Biso   1.000  H
  H50      1.0000 0.96930  0.59310  0.92440  Biso   1.000  H
  H51      1.0000 0.96930  0.90690  0.42440  Biso   1.000  H
  H52      1.0000 0.03070  0.40690  0.07560  Biso   1.000  H
  H53      1.0000 0.23950  0.81880  0.88990  Biso   1.000  H
  H54      1.0000 0.76050  0.31880  0.61010  Biso   1.000  H
  H55      1.0000 0.76050  0.18120  0.11010  Biso   1.000  H
  H56      1.0000 0.23950  0.68120  0.38990  Biso   1.000  H
  H57      1.0000 0.08660  0.79480  0.86820  Biso   1.000  H
  H58      1.0000 0.91340  0.29480  0.63180  Biso   1.000  H
  H59      1.0000 0.91340  0.20520  0.13180  Biso   1.000  H
  H60      1.0000 0.08660  0.70520  0.36820  Biso   1.000  H
  H61      1.0000 0.14990  0.95840  0.87050  Biso   1.000  H
  H62      1.0000 0.85010  0.45840  0.62950  Biso   1.000  H
  H63      1.0000 0.85010  0.04160  0.12950  Biso   1.000  H
  H64      1.0000 0.14990  0.54160  0.37050  Biso   1.000  H
