data_image0
_cell_length_a       15.056
_cell_length_b       6.917
_cell_length_c       18.235
_cell_angle_alpha    90
_cell_angle_beta     104.06
_cell_angle_gamma    90

_symmetry_space_group_name_H-M    "P 1"
_symmetry_int_tables_number       1

loop_
  _symmetry_equiv_pos_as_xyz
  'x, y, z'

loop_
  _atom_site_label
  _atom_site_occupancy
  _atom_site_fract_x
  _atom_site_fract_y
  _atom_site_fract_z
  _atom_site_thermal_displace_type
  _atom_site_B_iso_or_equiv
  _atom_site_type_symbol
  Cu1      1.0000 0.25000  0.25000  0.00000  Biso   1.000  Cu
  Cu2      1.0000 0.75000  0.25000  0.50000  Biso   1.000  Cu
  Cu3      1.0000 0.75000  0.75000  0.00000  Biso   1.000  Cu
  Cu4      1.0000 0.25000  0.75000  0.50000  Biso   1.000  Cu
  O1       1.0000 0.26860  0.99170  0.04420  Biso   1.000  O
  O2       1.0000 0.73140  0.99170  0.45580  Biso   1.000  O
  O3       1.0000 0.76860  0.49170  0.04420  Biso   1.000  O
  O4       1.0000 0.23140  0.49170  0.45580  Biso   1.000  O
  O5       1.0000 0.73140  0.00830  0.95580  Biso   1.000  O
  O6       1.0000 0.26860  0.00830  0.54420  Biso   1.000  O
  O7       1.0000 0.23140  0.50830  0.95580  Biso   1.000  O
  O8       1.0000 0.76860  0.50830  0.54420  Biso   1.000  O
  O9       1.0000 0.16910  0.12040  0.91540  Biso   1.000  O
  O10      1.0000 0.83090  0.12040  0.58460  Biso   1.000  O
  O11      1.0000 0.66910  0.62040  0.91540  Biso   1.000  O
  O12      1.0000 0.33090  0.62040  0.58460  Biso   1.000  O
  O13      1.0000 0.83090  0.87960  0.08460  Biso   1.000  O
  O14      1.0000 0.16910  0.87960  0.41540  Biso   1.000  O
  O15      1.0000 0.33090  0.37960  0.08460  Biso   1.000  O
  O16      1.0000 0.66910  0.37960  0.41540  Biso   1.000  O
  O17      1.0000 0.09280  0.62500  0.86280  Biso   1.000  O
  O18      1.0000 0.90720  0.62500  0.63720  Biso   1.000  O
  O19      1.0000 0.59280  0.12500  0.86280  Biso   1.000  O
  O20      1.0000 0.40720  0.12500  0.63720  Biso   1.000  O
  O21      1.0000 0.90720  0.37500  0.13720  Biso   1.000  O
  O22      1.0000 0.09280  0.37500  0.36280  Biso   1.000  O
  O23      1.0000 0.40720  0.87500  0.13720  Biso   1.000  O
  O24      1.0000 0.59280  0.87500  0.36280  Biso   1.000  O
  O25      1.0000 0.00830  0.26890  0.91520  Biso   1.000  O
  O26      1.0000 0.99170  0.26890  0.58480  Biso   1.000  O
  O27      1.0000 0.50830  0.76890  0.91520  Biso   1.000  O
  O28      1.0000 0.49170  0.76890  0.58480  Biso   1.000  O
  O29      1.0000 0.99170  0.73110  0.08480  Biso   1.000  O
  O30      1.0000 0.00830  0.73110  0.41520  Biso   1.000  O
  O31      1.0000 0.49170  0.23110  0.08480  Biso   1.000  O
  O32      1.0000 0.50830  0.23110  0.41520  Biso   1.000  O
  O33      1.0000 0.91650  0.67350  0.93130  Biso   1.000  O
  O34      1.0000 0.08350  0.67350  0.56870  Biso   1.000  O
  O35      1.0000 0.41650  0.17350  0.93130  Biso   1.000  O
  O36      1.0000 0.58350  0.17350  0.56870  Biso   1.000  O
  O37      1.0000 0.08350  0.32650  0.06870  Biso   1.000  O
  O38      1.0000 0.91650  0.32650  0.43130  Biso   1.000  O
  O39      1.0000 0.58350  0.82650  0.06870  Biso   1.000  O
  O40      1.0000 0.41650  0.82650  0.43130  Biso   1.000  O
  O41      1.0000 0.88660  0.49910  0.77410  Biso   1.000  O
  O42      1.0000 0.11340  0.49910  0.72590  Biso   1.000  O
  O43      1.0000 0.38660  0.99910  0.77410  Biso   1.000  O
  O44      1.0000 0.61340  0.99910  0.72590  Biso   1.000  O
  O45      1.0000 0.11340  0.50090  0.22590  Biso   1.000  O
  O46      1.0000 0.88660  0.50090  0.27410  Biso   1.000  O
  O47      1.0000 0.61340  0.00090  0.22590  Biso   1.000  O
  O48      1.0000 0.38660  0.00090  0.27410  Biso   1.000  O
  O49      1.0000 0.14300  0.97120  0.13210  Biso   1.000  O
  O50      1.0000 0.85700  0.97120  0.36790  Biso   1.000  O
  O51      1.0000 0.64300  0.47120  0.13210  Biso   1.000  O
  O52      1.0000 0.35700  0.47120  0.36790  Biso   1.000  O
  O53      1.0000 0.85700  0.02880  0.86790  Biso   1.000  O
  O54      1.0000 0.14300  0.02880  0.63210  Biso   1.000  O
  O55      1.0000 0.35700  0.52880  0.86790  Biso   1.000  O
  O56      1.0000 0.64300  0.52880  0.63210  Biso   1.000  O
  O57      1.0000 0.28640  0.32490  0.21900  Biso   1.000  O
  O58      1.0000 0.71360  0.32490  0.28100  Biso   1.000  O
  O59      1.0000 0.78640  0.82490  0.21900  Biso   1.000  O
  O60      1.0000 0.21360  0.82490  0.28100  Biso   1.000  O
  O61      1.0000 0.71360  0.67510  0.78100  Biso   1.000  O
  O62      1.0000 0.28640  0.67510  0.71900  Biso   1.000  O
  O63      1.0000 0.21360  0.17510  0.78100  Biso   1.000  O
  O64      1.0000 0.78640  0.17510  0.71900  Biso   1.000  O
  C1       1.0000 0.24630  0.85160  0.98470  Biso   1.000  C
  C2       1.0000 0.75370  0.85160  0.51530  Biso   1.000  C
  C3       1.0000 0.74630  0.35160  0.98470  Biso   1.000  C
  C4       1.0000 0.25370  0.35160  0.51530  Biso   1.000  C
  C5       1.0000 0.75370  0.14840  0.01530  Biso   1.000  C
  C6       1.0000 0.24630  0.14840  0.48470  Biso   1.000  C
  C7       1.0000 0.25370  0.64840  0.01530  Biso   1.000  C
  C8       1.0000 0.74630  0.64840  0.48470  Biso   1.000  C
  H1       1.0000 0.29310  0.86300  0.95740  Biso   1.000  H
  H2       1.0000 0.70690  0.86300  0.54260  Biso   1.000  H
  H3       1.0000 0.79310  0.36300  0.95740  Biso   1.000  H
  H4       1.0000 0.20690  0.36300  0.54260  Biso   1.000  H
  H5       1.0000 0.70690  0.13700  0.04260  Biso   1.000  H
  H6       1.0000 0.29310  0.13700  0.45740  Biso   1.000  H
  H7       1.0000 0.20690  0.63700  0.04260  Biso   1.000  H
  H8       1.0000 0.79310  0.63700  0.45740  Biso   1.000  H
  C9       1.0000 0.15920  0.91920  0.93120  Biso   1.000  C
  C10      1.0000 0.84080  0.91920  0.56880  Biso   1.000  C
  C11      1.0000 0.65920  0.41920  0.93120  Biso   1.000  C
  C12      1.0000 0.34080  0.41920  0.56880  Biso   1.000  C
  C13      1.0000 0.84080  0.08080  0.06880  Biso   1.000  C
  C14      1.0000 0.15920  0.08080  0.43120  Biso   1.000  C
  C15      1.0000 0.34080  0.58080  0.06880  Biso   1.000  C
  C16      1.0000 0.65920  0.58080  0.43120  Biso   1.000  C
  H9       1.0000 0.11270  0.91280  0.95900  Biso   1.000  H
  H10      1.0000 0.88730  0.91280  0.54100  Biso   1.000  H
  H11      1.0000 0.61270  0.41280  0.95900  Biso   1.000  H
  H12      1.0000 0.38730  0.41280  0.54100  Biso   1.000  H
  H13      1.0000 0.88730  0.08720  0.04100  Biso   1.000  H
  H14      1.0000 0.11270  0.08720  0.45900  Biso   1.000  H
  H15      1.0000 0.38730  0.58720  0.04100  Biso   1.000  H
  H16      1.0000 0.61270  0.58720  0.45900  Biso   1.000  H
  C17      1.0000 0.12040  0.82050  0.85810  Biso   1.000  C
  C18      1.0000 0.87960  0.82050  0.64190  Biso   1.000  C
  C19      1.0000 0.62040  0.32050  0.85810  Biso   1.000  C
  C20      1.0000 0.37960  0.32050  0.64190  Biso   1.000  C
  C21      1.0000 0.87960  0.17950  0.14190  Biso   1.000  C
  C22      1.0000 0.12040  0.17950  0.35810  Biso   1.000  C
  C23      1.0000 0.37960  0.67950  0.14190  Biso   1.000  C
  C24      1.0000 0.62040  0.67950  0.35810  Biso   1.000  C
  H17      1.0000 0.06840  0.89300  0.83110  Biso   1.000  H
  H18      1.0000 0.93160  0.89300  0.66890  Biso   1.000  H
  H19      1.0000 0.56840  0.39300  0.83110  Biso   1.000  H
  H20      1.0000 0.43160  0.39300  0.66890  Biso   1.000  H
  H21      1.0000 0.93160  0.10700  0.16890  Biso   1.000  H
  H22      1.0000 0.06840  0.10700  0.33110  Biso   1.000  H
  H23      1.0000 0.43160  0.60700  0.16890  Biso   1.000  H
  H24      1.0000 0.56840  0.60700  0.33110  Biso   1.000  H
  H25      1.0000 0.16530  0.82390  0.82870  Biso   1.000  H
  H26      1.0000 0.83470  0.82390  0.67130  Biso   1.000  H
  H27      1.0000 0.66530  0.32390  0.82870  Biso   1.000  H
  H28      1.0000 0.33470  0.32390  0.67130  Biso   1.000  H
  H29      1.0000 0.83470  0.17610  0.17130  Biso   1.000  H
  H30      1.0000 0.16530  0.17610  0.32870  Biso   1.000  H
  H31      1.0000 0.33470  0.67610  0.17130  Biso   1.000  H
  H32      1.0000 0.66530  0.67610  0.32870  Biso   1.000  H
  Li1      1.0000 0.97540  0.51650  0.87010  Biso   1.000  Li
  Li2      1.0000 0.02460  0.51650  0.62990  Biso   1.000  Li
  Li3      1.0000 0.47540  0.01650  0.87010  Biso   1.000  Li
  Li4      1.0000 0.52460  0.01650  0.62990  Biso   1.000  Li
  Li5      1.0000 0.02460  0.48350  0.12990  Biso   1.000  Li
  Li6      1.0000 0.97540  0.48350  0.37010  Biso   1.000  Li
  Li7      1.0000 0.52460  0.98350  0.12990  Biso   1.000  Li
  Li8      1.0000 0.47540  0.98350  0.37010  Biso   1.000  Li
  H33      1.0000 0.12370  0.58180  0.88770  Biso   1.000  H
  H34      1.0000 0.87630  0.58180  0.61230  Biso   1.000  H
  H35      1.0000 0.62370  0.08180  0.88770  Biso   1.000  H
  H36      1.0000 0.37630  0.08180  0.61230  Biso   1.000  H
  H37      1.0000 0.87630  0.41820  0.11230  Biso   1.000  H
  H38      1.0000 0.12370  0.41820  0.38770  Biso   1.000  H
  H39      1.0000 0.37630  0.91820  0.11230  Biso   1.000  H
  H40      1.0000 0.62370  0.91820  0.38770  Biso   1.000  H
  H41      1.0000 0.04690  0.23120  0.90910  Biso   1.000  H
  H42      1.0000 0.95310  0.23120  0.59090  Biso   1.000  H
  H43      1.0000 0.54690  0.73120  0.90910  Biso   1.000  H
  H44      1.0000 0.45310  0.73120  0.59090  Biso   1.000  H
  H45      1.0000 0.95310  0.76880  0.09090  Biso   1.000  H
  H46      1.0000 0.04690  0.76880  0.40910  Biso   1.000  H
  H47      1.0000 0.45310  0.26880  0.09090  Biso   1.000  H
  H48      1.0000 0.54690  0.26880  0.40910  Biso   1.000  H
  H49      1.0000 0.97350  0.21400  0.90420  Biso   1.000  H
  H50      1.0000 0.02650  0.21400  0.59580  Biso   1.000  H
  H51      1.0000 0.47350  0.71400  0.90420  Biso   1.000  H
  H52      1.0000 0.52650  0.71400  0.59580  Biso   1.000  H
  H53      1.0000 0.02650  0.78600  0.09580  Biso   1.000  H
  H54      1.0000 0.97350  0.78600  0.40420  Biso   1.000  H
  H55      1.0000 0.52650  0.28600  0.09580  Biso   1.000  H
  H56      1.0000 0.47350  0.28600  0.40420  Biso   1.000  H
  H57      1.0000 0.94650  0.67930  0.97150  Biso   1.000  H
  H58      1.0000 0.05350  0.67930  0.52850  Biso   1.000  H
  H59      1.0000 0.44650  0.17930  0.97150  Biso   1.000  H
  H60      1.0000 0.55350  0.17930  0.52850  Biso   1.000  H
  H61      1.0000 0.05350  0.32070  0.02850  Biso   1.000  H
  H62      1.0000 0.94650  0.32070  0.47150  Biso   1.000  H
  H63      1.0000 0.55350  0.82070  0.02850  Biso   1.000  H
  H64      1.0000 0.44650  0.82070  0.47150  Biso   1.000  H
  H65      1.0000 0.89840  0.76210  0.90980  Biso   1.000  H
  H66      1.0000 0.10160  0.76210  0.59020  Biso   1.000  H
  H67      1.0000 0.39840  0.26210  0.90980  Biso   1.000  H
  H68      1.0000 0.60160  0.26210  0.59020  Biso   1.000  H
  H69      1.0000 0.10160  0.23790  0.09020  Biso   1.000  H
  H70      1.0000 0.89840  0.23790  0.40980  Biso   1.000  H
  H71      1.0000 0.60160  0.73790  0.09020  Biso   1.000  H
  H72      1.0000 0.39840  0.73790  0.40980  Biso   1.000  H
  H73      1.0000 0.86090  0.42440  0.76690  Biso   1.000  H
  H74      1.0000 0.13910  0.42440  0.73310  Biso   1.000  H
  H75      1.0000 0.36090  0.92440  0.76690  Biso   1.000  H
  H76      1.0000 0.63910  0.92440  0.73310  Biso   1.000  H
  H77      1.0000 0.13910  0.57560  0.23310  Biso   1.000  H
  H78      1.0000 0.86090  0.57560  0.26690  Biso   1.000  H
  H79      1.0000 0.63910  0.07560  0.23310  Biso   1.000  H
  H80      1.0000 0.36090  0.07560  0.26690  Biso   1.000  H
  H81      1.0000 0.89900  0.53210  0.74160  Biso   1.000  H
  H82      1.0000 0.10100  0.53210  0.75840  Biso   1.000  H
  H83      1.0000 0.39900  0.03210  0.74160  Biso   1.000  H
  H84      1.0000 0.60100  0.03210  0.75840  Biso   1.000  H
  H85      1.0000 0.10100  0.46790  0.25840  Biso   1.000  H
  H86      1.0000 0.89900  0.46790  0.24160  Biso   1.000  H
  H87      1.0000 0.60100  0.96790  0.25840  Biso   1.000  H
  H88      1.0000 0.39900  0.96790  0.24160  Biso   1.000  H
  H89      1.0000 0.16340  0.94640  0.17910  Biso   1.000  H
  H90      1.0000 0.83660  0.94640  0.32090  Biso   1.000  H
  H91      1.0000 0.66340  0.44640  0.17910  Biso   1.000  H
  H92      1.0000 0.33660  0.44640  0.32090  Biso   1.000  H
  H93      1.0000 0.83660  0.05360  0.82090  Biso   1.000  H
  H94      1.0000 0.16340  0.05360  0.67910  Biso   1.000  H
  H95      1.0000 0.33660  0.55360  0.82090  Biso   1.000  H
  H96      1.0000 0.66340  0.55360  0.67910  Biso   1.000  H
  H97      1.0000 0.16580  0.96440  0.10700  Biso   1.000  H
  H98      1.0000 0.83420  0.96440  0.39300  Biso   1.000  H
  H99      1.0000 0.66580  0.46440  0.10700  Biso   1.000  H
  H100     1.0000 0.33420  0.46440  0.39300  Biso   1.000  H
  H101     1.0000 0.83420  0.03560  0.89300  Biso   1.000  H
  H102     1.0000 0.16580  0.03560  0.60700  Biso   1.000  H
  H103     1.0000 0.33420  0.53560  0.89300  Biso   1.000  H
  H104     1.0000 0.66580  0.53560  0.60700  Biso   1.000  H
  H105     1.0000 0.29600  0.33840  0.18700  Biso   1.000  H
  H106     1.0000 0.70400  0.33840  0.31300  Biso   1.000  H
  H107     1.0000 0.79600  0.83840  0.18700  Biso   1.000  H
  H108     1.0000 0.20400  0.83840  0.31300  Biso   1.000  H
  H109     1.0000 0.70400  0.66160  0.81300  Biso   1.000  H
  H110     1.0000 0.29600  0.66160  0.68700  Biso   1.000  H
  H111     1.0000 0.20400  0.16160  0.81300  Biso   1.000  H
  H112     1.0000 0.79600  0.16160  0.68700  Biso   1.000  H
  H113     1.0000 0.24340  0.32060  0.21660  Biso   1.000  H
  H114     1.0000 0.75660  0.32060  0.28340  Biso   1.000  H
  H115     1.0000 0.74340  0.82060  0.21660  Biso   1.000  H
  H116     1.0000 0.25660  0.82060  0.28340  Biso   1.000  H
  H117     1.0000 0.75660  0.67940  0.78340  Biso   1.000  H
  H118     1.0000 0.24340  0.67940  0.71660  Biso   1.000  H
  H119     1.0000 0.25660  0.17940  0.78340  Biso   1.000  H
  H120     1.0000 0.74340  0.17940  0.71660  Biso   1.000  H
