data_image0
_cell_length_a       6.809
_cell_length_b       9.469
_cell_length_c       9.5
_cell_angle_alpha    95.04
_cell_angle_beta     90.57
_cell_angle_gamma    106.76

_symmetry_space_group_name_H-M    "P 1"
_symmetry_int_tables_number       1

loop_
  _symmetry_equiv_pos_as_xyz
  'x, y, z'

loop_
  _atom_site_label
  _atom_site_occupancy
  _atom_site_fract_x
  _atom_site_fract_y
  _atom_site_fract_z
  _atom_site_thermal_displace_type
  _atom_site_B_iso_or_equiv
  _atom_site_type_symbol
  Cu1      1.0000 0.00000  0.50000  0.00000  Biso   1.000  Cu
  Na1      1.0000 0.74270  0.98980  0.98860  Biso   1.000  Na
  Na2      1.0000 0.25730  0.01020  0.01140  Biso   1.000  Na
  O1       1.0000 0.91320  0.59910  0.16100  Biso   1.000  O
  O2       1.0000 0.08680  0.40090  0.83900  Biso   1.000  O
  O3       1.0000 0.72450  0.45630  0.92310  Biso   1.000  O
  O4       1.0000 0.27550  0.54370  0.07690  Biso   1.000  O
  O5       1.0000 0.17730  0.39090  0.29080  Biso   1.000  O
  O6       1.0000 0.82270  0.60910  0.70920  Biso   1.000  O
  O7       1.0000 0.08390  0.66850  0.40490  Biso   1.000  O
  O8       1.0000 0.91610  0.33150  0.59510  Biso   1.000  O
  O9       1.0000 0.53590  0.11750  0.60240  Biso   1.000  O
  O10      1.0000 0.46410  0.88250  0.39760  Biso   1.000  O
  O11      1.0000 0.13780  0.12380  0.55400  Biso   1.000  O
  O12      1.0000 0.86220  0.87620  0.44600  Biso   1.000  O
  O13      1.0000 0.44210  0.85310  0.09810  Biso   1.000  O
  O14      1.0000 0.55790  0.14690  0.90190  Biso   1.000  O
  O15      1.0000 0.62530  0.83300  0.76000  Biso   1.000  O
  O16      1.0000 0.37470  0.16700  0.24000  Biso   1.000  O
  O17      1.0000 0.80450  0.16300  0.19650  Biso   1.000  O
  O18      1.0000 0.19550  0.83700  0.80350  Biso   1.000  O
  O19      1.0000 0.04010  0.10910  0.87400  Biso   1.000  O
  O20      1.0000 0.95990  0.89090  0.12600  Biso   1.000  O
  C1       1.0000 0.69370  0.55190  0.15950  Biso   1.000  C
  C2       1.0000 0.30630  0.44810  0.84050  Biso   1.000  C
  H1       1.0000 0.64420  0.62310  0.21530  Biso   1.000  H
  H2       1.0000 0.35580  0.37690  0.78470  Biso   1.000  H
  H3       1.0000 0.64600  0.45840  0.19860  Biso   1.000  H
  H4       1.0000 0.35400  0.54160  0.80140  Biso   1.000  H
  C3       1.0000 0.61550  0.53710  0.00810  Biso   1.000  C
  C4       1.0000 0.38450  0.46290  0.99190  Biso   1.000  C
  H5       1.0000 0.64400  0.63460  0.97700  Biso   1.000  H
  H6       1.0000 0.35600  0.36540  0.02300  Biso   1.000  H
  C5       1.0000 0.25290  0.47590  0.41820  Biso   1.000  C
  C6       1.0000 0.74710  0.52410  0.58180  Biso   1.000  C
  H7       1.0000 0.37830  0.54960  0.40110  Biso   1.000  H
  H8       1.0000 0.62170  0.45040  0.59890  Biso   1.000  H
  H9       1.0000 0.28480  0.41290  0.48320  Biso   1.000  H
  H10      1.0000 0.71520  0.58710  0.51680  Biso   1.000  H
  C7       1.0000 0.10420  0.55310  0.48700  Biso   1.000  C
  C8       1.0000 0.89580  0.44690  0.51300  Biso   1.000  C
  H11      1.0000 0.16430  0.59940  0.57750  Biso   1.000  H
  H12      1.0000 0.83570  0.40060  0.42250  Biso   1.000  H
  H13      1.0000 0.21700  0.46050  0.21480  Biso   1.000  H
  H14      1.0000 0.78300  0.53950  0.78520  Biso   1.000  H
  H15      1.0000 0.01900  0.62160  0.31430  Biso   1.000  H
  H16      1.0000 0.98100  0.37840  0.68570  Biso   1.000  H
  H17      1.0000 0.61520  0.17330  0.60110  Biso   1.000  H
  H18      1.0000 0.38480  0.82670  0.39890  Biso   1.000  H
  H19      1.0000 0.11000  0.17890  0.58040  Biso   1.000  H
  H20      1.0000 0.89000  0.82110  0.41960  Biso   1.000  H
  H21      1.0000 0.38400  0.74460  0.07240  Biso   1.000  H
  H22      1.0000 0.61600  0.25540  0.92760  Biso   1.000  H
  H23      1.0000 0.44900  0.87480  0.19900  Biso   1.000  H
  H24      1.0000 0.55100  0.12520  0.80100  Biso   1.000  H
  H25      1.0000 0.69500  0.78940  0.76060  Biso   1.000  H
  H26      1.0000 0.30500  0.21060  0.23940  Biso   1.000  H
  H27      1.0000 0.60400  0.86080  0.70470  Biso   1.000  H
  H28      1.0000 0.39600  0.13920  0.29530  Biso   1.000  H
  H29      1.0000 0.90900  0.23370  0.24740  Biso   1.000  H
  H30      1.0000 0.09100  0.76630  0.75260  Biso   1.000  H
  H31      1.0000 0.71210  0.15700  0.21330  Biso   1.000  H
  H32      1.0000 0.28790  0.84300  0.78670  Biso   1.000  H
  H33      1.0000 0.05700  0.20780  0.87480  Biso   1.000  H
  H34      1.0000 0.94300  0.79220  0.12520  Biso   1.000  H
  H35      1.0000 0.06300  0.08290  0.79720  Biso   1.000  H
  H36      1.0000 0.93700  0.91710  0.20280  Biso   1.000  H
