data_image0
_cell_length_a       7.672
_cell_length_b       7.78
_cell_length_c       5.1082
_cell_angle_alpha    99.89
_cell_angle_beta     98.41
_cell_angle_gamma    100.25

_symmetry_space_group_name_H-M    "P 1"
_symmetry_int_tables_number       1

loop_
  _symmetry_equiv_pos_as_xyz
  'x, y, z'

loop_
  _atom_site_label
  _atom_site_occupancy
  _atom_site_fract_x
  _atom_site_fract_y
  _atom_site_fract_z
  _atom_site_thermal_displace_type
  _atom_site_B_iso_or_equiv
  _atom_site_type_symbol
  C1       1.0000 0.45340  0.86690  0.75090  Biso   1.000  C
  C2       1.0000 0.54660  0.13310  0.24910  Biso   1.000  C
  Cu1      1.0000 0.00000  0.00000  0.00000  Biso   1.000  Cu
  Cl1      1.0000 0.40014  0.71130  0.45110  Biso   1.000  Cl
  Cl2      1.0000 0.59986  0.28870  0.54890  Biso   1.000  Cl
  O1       1.0000 0.15130  0.87770  0.77160  Biso   1.000  O
  O2       1.0000 0.84870  0.12230  0.22840  Biso   1.000  O
  O3       1.0000 0.23540  0.10880  0.23020  Biso   1.000  O
  O4       1.0000 0.76460  0.89120  0.76980  Biso   1.000  O
  O5       1.0000 0.02910  0.22990  0.77610  Biso   1.000  O
  O6       1.0000 0.97090  0.77010  0.22390  Biso   1.000  O
  C3       1.0000 0.31770  0.92760  0.86590  Biso   1.000  C
  C4       1.0000 0.68230  0.07240  0.13410  Biso   1.000  C
  C5       1.0000 0.36610  0.06490  0.13210  Biso   1.000  C
  C6       1.0000 0.63390  0.93510  0.86790  Biso   1.000  C
  C7       1.0000 0.16010  0.38470  0.81000  Biso   1.000  C
  C8       1.0000 0.83990  0.61530  0.19000  Biso   1.000  C
  H1       1.0000 0.27380  0.35580  0.79340  Biso   1.000  H
  H2       1.0000 0.72620  0.64420  0.20660  Biso   1.000  H
  H3       1.0000 0.12770  0.45130  0.67840  Biso   1.000  H
  H4       1.0000 0.87230  0.54870  0.32160  Biso   1.000  H
  H5       1.0000 0.17030  0.45680  0.98650  Biso   1.000  H
  H6       1.0000 0.82970  0.54320  0.01350  Biso   1.000  H
  H7       1.0000 0.95030  0.21240  0.58200  Biso   1.000  H
  H8       1.0000 0.04970  0.78760  0.41800  Biso   1.000  H
