data_image0
_cell_length_a       9.785
_cell_length_b       6.977
_cell_length_c       7.993
_cell_angle_alpha    90
_cell_angle_beta     97.26
_cell_angle_gamma    90

_symmetry_space_group_name_H-M    "P 1"
_symmetry_int_tables_number       1

loop_
  _symmetry_equiv_pos_as_xyz
  'x, y, z'

loop_
  _atom_site_label
  _atom_site_occupancy
  _atom_site_fract_x
  _atom_site_fract_y
  _atom_site_fract_z
  _atom_site_thermal_displace_type
  _atom_site_B_iso_or_equiv
  _atom_site_type_symbol
  Cu1      1.0000 0.00000  0.00000  0.00000  Biso   1.000  Cu
  Cu2      1.0000 0.50000  0.50000  0.00000  Biso   1.000  Cu
  Cl1      1.0000 0.32670  0.00000  0.57588  Biso   1.000  Cl
  Cl2      1.0000 0.82670  0.50000  0.57588  Biso   1.000  Cl
  Cl3      1.0000 0.67330  0.00000  0.42412  Biso   1.000  Cl
  Cl4      1.0000 0.17330  0.50000  0.42412  Biso   1.000  Cl
  O1       1.0000 0.15050  0.00000  0.24390  Biso   1.000  O
  O2       1.0000 0.65050  0.50000  0.24390  Biso   1.000  O
  O3       1.0000 0.84950  0.00000  0.75610  Biso   1.000  O
  O4       1.0000 0.34950  0.50000  0.75610  Biso   1.000  O
  O5       1.0000 0.87720  0.00000  0.17480  Biso   1.000  O
  O6       1.0000 0.37720  0.50000  0.17480  Biso   1.000  O
  O7       1.0000 0.12280  0.00000  0.82520  Biso   1.000  O
  O8       1.0000 0.62280  0.50000  0.82520  Biso   1.000  O
  N1       1.0000 0.00000  0.70040  0.00000  Biso   1.000  N
  N2       1.0000 0.50000  0.20040  0.00000  Biso   1.000  N
  N3       1.0000 0.00000  0.29960  0.00000  Biso   1.000  N
  N4       1.0000 0.50000  0.79960  0.00000  Biso   1.000  N
  C1       1.0000 0.08610  0.00000  0.36690  Biso   1.000  C
  C2       1.0000 0.58610  0.50000  0.36690  Biso   1.000  C
  C3       1.0000 0.91390  0.00000  0.63310  Biso   1.000  C
  C4       1.0000 0.41390  0.50000  0.63310  Biso   1.000  C
  C5       1.0000 0.92810  0.00000  0.33060  Biso   1.000  C
  C6       1.0000 0.42810  0.50000  0.33060  Biso   1.000  C
  C7       1.0000 0.07190  0.00000  0.66940  Biso   1.000  C
  C8       1.0000 0.57190  0.50000  0.66940  Biso   1.000  C
  C9       1.0000 0.14880  0.00000  0.53780  Biso   1.000  C
  C10      1.0000 0.64880  0.50000  0.53780  Biso   1.000  C
  C11      1.0000 0.85120  0.00000  0.46220  Biso   1.000  C
  C12      1.0000 0.35120  0.50000  0.46220  Biso   1.000  C
  C13      1.0000 0.90730  0.59960  0.07290  Biso   1.000  C
  C14      1.0000 0.40730  0.09960  0.07290  Biso   1.000  C
  C15      1.0000 0.09270  0.59960  0.92710  Biso   1.000  C
  C16      1.0000 0.59270  0.09960  0.92710  Biso   1.000  C
  C17      1.0000 0.09270  0.40040  0.92710  Biso   1.000  C
  C18      1.0000 0.59270  0.90040  0.92710  Biso   1.000  C
  C19      1.0000 0.90730  0.40040  0.07290  Biso   1.000  C
  C20      1.0000 0.40730  0.90040  0.07290  Biso   1.000  C
  H1       1.0000 0.84050  0.66870  0.12510  Biso   1.000  H
  H2       1.0000 0.34050  0.16870  0.12510  Biso   1.000  H
  H3       1.0000 0.15950  0.66870  0.87490  Biso   1.000  H
  H4       1.0000 0.65950  0.16870  0.87490  Biso   1.000  H
  H5       1.0000 0.15950  0.33130  0.87490  Biso   1.000  H
  H6       1.0000 0.65950  0.83130  0.87490  Biso   1.000  H
  H7       1.0000 0.84050  0.33130  0.12510  Biso   1.000  H
  H8       1.0000 0.34050  0.83130  0.12510  Biso   1.000  H
