data_image0
_cell_length_a       21.47
_cell_length_b       7.49
_cell_length_c       9.75
_cell_angle_alpha    90
_cell_angle_beta     111.93
_cell_angle_gamma    90

_symmetry_space_group_name_H-M    "P 1"
_symmetry_int_tables_number       1

loop_
  _symmetry_equiv_pos_as_xyz
  'x, y, z'

loop_
  _atom_site_label
  _atom_site_occupancy
  _atom_site_fract_x
  _atom_site_fract_y
  _atom_site_fract_z
  _atom_site_thermal_displace_type
  _atom_site_B_iso_or_equiv
  _atom_site_type_symbol
  Cu1      1.0000 0.34530  0.61752  0.26404  Biso   1.000  Cu
  Cu2      1.0000 0.84530  0.11752  0.26404  Biso   1.000  Cu
  Cu3      1.0000 0.65470  0.61752  0.23596  Biso   1.000  Cu
  Cu4      1.0000 0.15470  0.11752  0.23596  Biso   1.000  Cu
  Cu5      1.0000 0.65470  0.38248  0.73596  Biso   1.000  Cu
  Cu6      1.0000 0.15470  0.88248  0.73596  Biso   1.000  Cu
  Cu7      1.0000 0.34530  0.38248  0.76404  Biso   1.000  Cu
  Cu8      1.0000 0.84530  0.88248  0.76404  Biso   1.000  Cu
  S1       1.0000 0.26414  0.47400  0.07770  Biso   1.000  S
  S2       1.0000 0.76414  0.97400  0.07770  Biso   1.000  S
  S3       1.0000 0.73586  0.47400  0.42230  Biso   1.000  S
  S4       1.0000 0.23586  0.97400  0.42230  Biso   1.000  S
  S5       1.0000 0.73586  0.52600  0.92230  Biso   1.000  S
  S6       1.0000 0.23586  0.02600  0.92230  Biso   1.000  S
  S7       1.0000 0.26414  0.52600  0.57770  Biso   1.000  S
  S8       1.0000 0.76414  0.02600  0.57770  Biso   1.000  S
  S9       1.0000 0.50000  0.44330  0.25000  Biso   1.000  S
  S10      1.0000 0.00000  0.94330  0.25000  Biso   1.000  S
  S11      1.0000 0.50000  0.55670  0.75000  Biso   1.000  S
  S12      1.0000 0.00000  0.05670  0.75000  Biso   1.000  S
  N1       1.0000 0.31770  0.83500  0.15010  Biso   1.000  N
  N2       1.0000 0.81770  0.33500  0.15010  Biso   1.000  N
  N3       1.0000 0.68230  0.83500  0.34990  Biso   1.000  N
  N4       1.0000 0.18230  0.33500  0.34990  Biso   1.000  N
  N5       1.0000 0.68230  0.16500  0.84990  Biso   1.000  N
  N6       1.0000 0.18230  0.66500  0.84990  Biso   1.000  N
  N7       1.0000 0.31770  0.16500  0.65010  Biso   1.000  N
  N8       1.0000 0.81770  0.66500  0.65010  Biso   1.000  N
  C1       1.0000 0.23350  0.66140  0.97420  Biso   1.000  C
  C2       1.0000 0.73350  0.16140  0.97420  Biso   1.000  C
  C3       1.0000 0.76650  0.66140  0.52580  Biso   1.000  C
  C4       1.0000 0.26650  0.16140  0.52580  Biso   1.000  C
  C5       1.0000 0.76650  0.33860  0.02580  Biso   1.000  C
  C6       1.0000 0.26650  0.83860  0.02580  Biso   1.000  C
  C7       1.0000 0.23350  0.33860  0.47420  Biso   1.000  C
  C8       1.0000 0.73350  0.83860  0.47420  Biso   1.000  C
  C9       1.0000 0.35420  0.99750  0.21860  Biso   1.000  C
  C10      1.0000 0.85420  0.49750  0.21860  Biso   1.000  C
  C11      1.0000 0.64580  0.99750  0.28140  Biso   1.000  C
  C12      1.0000 0.14580  0.49750  0.28140  Biso   1.000  C
  C13      1.0000 0.64580  0.00250  0.78140  Biso   1.000  C
  C14      1.0000 0.14580  0.50250  0.78140  Biso   1.000  C
  C15      1.0000 0.35420  0.00250  0.71860  Biso   1.000  C
  C16      1.0000 0.85420  0.50250  0.71860  Biso   1.000  C
  H1       1.0000 0.35530  0.07270  0.14420  Biso   1.000  H
  H2       1.0000 0.85530  0.57270  0.14420  Biso   1.000  H
  H3       1.0000 0.64470  0.07270  0.35580  Biso   1.000  H
  H4       1.0000 0.14470  0.57270  0.35580  Biso   1.000  H
  H5       1.0000 0.64470  0.92730  0.85580  Biso   1.000  H
  H6       1.0000 0.14470  0.42730  0.85580  Biso   1.000  H
  H7       1.0000 0.35530  0.92730  0.64420  Biso   1.000  H
  H8       1.0000 0.85530  0.42730  0.64420  Biso   1.000  H
  H9       1.0000 0.33010  0.06980  0.26090  Biso   1.000  H
  H10      1.0000 0.83010  0.56980  0.26090  Biso   1.000  H
  H11      1.0000 0.66990  0.06980  0.23910  Biso   1.000  H
  H12      1.0000 0.16990  0.56980  0.23910  Biso   1.000  H
  H13      1.0000 0.66990  0.93020  0.73910  Biso   1.000  H
  H14      1.0000 0.16990  0.43020  0.73910  Biso   1.000  H
  H15      1.0000 0.33010  0.93020  0.76090  Biso   1.000  H
  H16      1.0000 0.83010  0.43020  0.76090  Biso   1.000  H
  C17      1.0000 0.41820  0.93980  0.34410  Biso   1.000  C
  C18      1.0000 0.91820  0.43980  0.34410  Biso   1.000  C
  C19      1.0000 0.58180  0.93980  0.15590  Biso   1.000  C
  C20      1.0000 0.08180  0.43980  0.15590  Biso   1.000  C
  C21      1.0000 0.58180  0.06020  0.65590  Biso   1.000  C
  C22      1.0000 0.08180  0.56020  0.65590  Biso   1.000  C
  C23      1.0000 0.41820  0.06020  0.84410  Biso   1.000  C
  C24      1.0000 0.91820  0.56020  0.84410  Biso   1.000  C
  H17      1.0000 0.43120  0.02740  0.41130  Biso   1.000  H
  H18      1.0000 0.93120  0.52740  0.41130  Biso   1.000  H
  H19      1.0000 0.56880  0.02740  0.08870  Biso   1.000  H
  H20      1.0000 0.06880  0.52740  0.08870  Biso   1.000  H
  H21      1.0000 0.56880  0.97260  0.58870  Biso   1.000  H
  H22      1.0000 0.06880  0.47260  0.58870  Biso   1.000  H
  H23      1.0000 0.43120  0.97260  0.91130  Biso   1.000  H
  H24      1.0000 0.93120  0.47260  0.91130  Biso   1.000  H
  H25      1.0000 0.45850  0.88860  0.30910  Biso   1.000  H
  H26      1.0000 0.95850  0.38860  0.30910  Biso   1.000  H
  H27      1.0000 0.54150  0.88860  0.19090  Biso   1.000  H
  H28      1.0000 0.04150  0.38860  0.19090  Biso   1.000  H
  H29      1.0000 0.54150  0.11140  0.69090  Biso   1.000  H
  H30      1.0000 0.04150  0.61140  0.69090  Biso   1.000  H
  H31      1.0000 0.45850  0.11140  0.80910  Biso   1.000  H
  H32      1.0000 0.95850  0.61140  0.80910  Biso   1.000  H
  O1       1.0000 0.43910  0.55410  0.18760  Biso   1.000  O
  O2       1.0000 0.93910  0.05410  0.18760  Biso   1.000  O
  O3       1.0000 0.56090  0.55410  0.31240  Biso   1.000  O
  O4       1.0000 0.06090  0.05410  0.31240  Biso   1.000  O
  O5       1.0000 0.56090  0.44590  0.81240  Biso   1.000  O
  O6       1.0000 0.06090  0.94590  0.81240  Biso   1.000  O
  O7       1.0000 0.43910  0.44590  0.68760  Biso   1.000  O
  O8       1.0000 0.93910  0.94590  0.68760  Biso   1.000  O
  O9       1.0000 0.50720  0.32990  0.13240  Biso   1.000  O
  O10      1.0000 0.00720  0.82990  0.13240  Biso   1.000  O
  O11      1.0000 0.49280  0.32990  0.36760  Biso   1.000  O
  O12      1.0000 0.99280  0.82990  0.36760  Biso   1.000  O
  O13      1.0000 0.49280  0.67010  0.86760  Biso   1.000  O
  O14      1.0000 0.99280  0.17010  0.86760  Biso   1.000  O
  O15      1.0000 0.50720  0.67010  0.63240  Biso   1.000  O
  O16      1.0000 0.00720  0.17010  0.63240  Biso   1.000  O
  O17      1.0000 0.37540  0.40710  0.39230  Biso   1.000  O
  O18      1.0000 0.87540  0.90710  0.39230  Biso   1.000  O
  O19      1.0000 0.62460  0.40710  0.10770  Biso   1.000  O
  O20      1.0000 0.12460  0.90710  0.10770  Biso   1.000  O
  O21      1.0000 0.62460  0.59290  0.60770  Biso   1.000  O
  O22      1.0000 0.12460  0.09290  0.60770  Biso   1.000  O
  O23      1.0000 0.37540  0.59290  0.89230  Biso   1.000  O
  O24      1.0000 0.87540  0.09290  0.89230  Biso   1.000  O
  H33      1.0000 0.39220  0.42600  0.47990  Biso   1.000  H
  H34      1.0000 0.89220  0.92600  0.47990  Biso   1.000  H
  H35      1.0000 0.60780  0.42600  0.02010  Biso   1.000  H
  H36      1.0000 0.10780  0.92600  0.02010  Biso   1.000  H
  H37      1.0000 0.60780  0.57400  0.52010  Biso   1.000  H
  H38      1.0000 0.10780  0.07400  0.52010  Biso   1.000  H
  H39      1.0000 0.39220  0.57400  0.97990  Biso   1.000  H
  H40      1.0000 0.89220  0.07400  0.97990  Biso   1.000  H
  O25      1.0000 0.40110  0.79070  0.41700  Biso   1.000  O
  O26      1.0000 0.90110  0.29070  0.41700  Biso   1.000  O
  O27      1.0000 0.59890  0.79070  0.08300  Biso   1.000  O
  O28      1.0000 0.09890  0.29070  0.08300  Biso   1.000  O
  O29      1.0000 0.59890  0.20930  0.58300  Biso   1.000  O
  O30      1.0000 0.09890  0.70930  0.58300  Biso   1.000  O
  O31      1.0000 0.40110  0.20930  0.91700  Biso   1.000  O
  O32      1.0000 0.90110  0.70930  0.91700  Biso   1.000  O
  H41      1.0000 0.43270  0.75950  0.47170  Biso   1.000  H
  H42      1.0000 0.93270  0.25950  0.47170  Biso   1.000  H
  H43      1.0000 0.56730  0.75950  0.02830  Biso   1.000  H
  H44      1.0000 0.06730  0.25950  0.02830  Biso   1.000  H
  H45      1.0000 0.56730  0.24050  0.52830  Biso   1.000  H
  H46      1.0000 0.06730  0.74050  0.52830  Biso   1.000  H
  H47      1.0000 0.43270  0.24050  0.97170  Biso   1.000  H
  H48      1.0000 0.93270  0.74050  0.97170  Biso   1.000  H
