data_image0
_cell_length_a       8.084
_cell_length_b       15.557
_cell_length_c       10.518
_cell_angle_alpha    90
_cell_angle_beta     95.1
_cell_angle_gamma    90

_symmetry_space_group_name_H-M    "P 1"
_symmetry_int_tables_number       1

loop_
  _symmetry_equiv_pos_as_xyz
  'x, y, z'

loop_
  _atom_site_label
  _atom_site_occupancy
  _atom_site_fract_x
  _atom_site_fract_y
  _atom_site_fract_z
  _atom_site_thermal_displace_type
  _atom_site_B_iso_or_equiv
  _atom_site_type_symbol
  Cu1      1.0000 0.00000  0.09919  0.75000  Biso   1.000  Cu
  Cu2      1.0000 0.50000  0.59919  0.75000  Biso   1.000  Cu
  Cu3      1.0000 0.00000  0.90081  0.25000  Biso   1.000  Cu
  Cu4      1.0000 0.50000  0.40081  0.25000  Biso   1.000  Cu
  S1       1.0000 0.27180  0.09246  0.54420  Biso   1.000  S
  S2       1.0000 0.77180  0.59246  0.54420  Biso   1.000  S
  S3       1.0000 0.72820  0.09246  0.95580  Biso   1.000  S
  S4       1.0000 0.22820  0.59246  0.95580  Biso   1.000  S
  S5       1.0000 0.72820  0.90754  0.45580  Biso   1.000  S
  S6       1.0000 0.22820  0.40754  0.45580  Biso   1.000  S
  S7       1.0000 0.27180  0.90754  0.04420  Biso   1.000  S
  S8       1.0000 0.77180  0.40754  0.04420  Biso   1.000  S
  N1       1.0000 0.87210  0.01610  0.64360  Biso   1.000  N
  N2       1.0000 0.37210  0.51610  0.64360  Biso   1.000  N
  N3       1.0000 0.12790  0.01610  0.85640  Biso   1.000  N
  N4       1.0000 0.62790  0.51610  0.85640  Biso   1.000  N
  N5       1.0000 0.12790  0.98390  0.35640  Biso   1.000  N
  N6       1.0000 0.62790  0.48390  0.35640  Biso   1.000  N
  N7       1.0000 0.87210  0.98390  0.14360  Biso   1.000  N
  N8       1.0000 0.37210  0.48390  0.14360  Biso   1.000  N
  N9       1.0000 0.84900  0.19700  0.69710  Biso   1.000  N
  N10      1.0000 0.34900  0.69700  0.69710  Biso   1.000  N
  N11      1.0000 0.15100  0.19700  0.80290  Biso   1.000  N
  N12      1.0000 0.65100  0.69700  0.80290  Biso   1.000  N
  N13      1.0000 0.15100  0.80300  0.30290  Biso   1.000  N
  N14      1.0000 0.65100  0.30300  0.30290  Biso   1.000  N
  N15      1.0000 0.84900  0.80300  0.19710  Biso   1.000  N
  N16      1.0000 0.34900  0.30300  0.19710  Biso   1.000  N
  C1       1.0000 0.18900  0.02840  0.43460  Biso   1.000  C
  C2       1.0000 0.68900  0.52840  0.43460  Biso   1.000  C
  C3       1.0000 0.81100  0.02840  0.06540  Biso   1.000  C
  C4       1.0000 0.31100  0.52840  0.06540  Biso   1.000  C
  C5       1.0000 0.81100  0.97160  0.56540  Biso   1.000  C
  C6       1.0000 0.31100  0.47160  0.56540  Biso   1.000  C
  C7       1.0000 0.18900  0.97160  0.93460  Biso   1.000  C
  C8       1.0000 0.68900  0.47160  0.93460  Biso   1.000  C
  C9       1.0000 0.69150  0.19010  0.64490  Biso   1.000  C
  C10      1.0000 0.19150  0.69010  0.64490  Biso   1.000  C
  C11      1.0000 0.30850  0.19010  0.85510  Biso   1.000  C
  C12      1.0000 0.80850  0.69010  0.85510  Biso   1.000  C
  C13      1.0000 0.30850  0.80990  0.35510  Biso   1.000  C
  C14      1.0000 0.80850  0.30990  0.35510  Biso   1.000  C
  C15      1.0000 0.69150  0.80990  0.14490  Biso   1.000  C
  C16      1.0000 0.19150  0.30990  0.14490  Biso   1.000  C
  C17      1.0000 0.59450  0.26140  0.61450  Biso   1.000  C
  C18      1.0000 0.09450  0.76140  0.61450  Biso   1.000  C
  C19      1.0000 0.40550  0.26140  0.88550  Biso   1.000  C
  C20      1.0000 0.90550  0.76140  0.88550  Biso   1.000  C
  C21      1.0000 0.40550  0.73860  0.38550  Biso   1.000  C
  C22      1.0000 0.90550  0.23860  0.38550  Biso   1.000  C
  C23      1.0000 0.59450  0.73860  0.11450  Biso   1.000  C
  C24      1.0000 0.09450  0.23860  0.11450  Biso   1.000  C
  C25      1.0000 0.66100  0.34200  0.63730  Biso   1.000  C
  C26      1.0000 0.16100  0.84200  0.63730  Biso   1.000  C
  C27      1.0000 0.33900  0.34200  0.86270  Biso   1.000  C
  C28      1.0000 0.83900  0.84200  0.86270  Biso   1.000  C
  C29      1.0000 0.33900  0.65800  0.36270  Biso   1.000  C
  C30      1.0000 0.83900  0.15800  0.36270  Biso   1.000  C
  C31      1.0000 0.66100  0.65800  0.13730  Biso   1.000  C
  C32      1.0000 0.16100  0.15800  0.13730  Biso   1.000  C
  C33      1.0000 0.82270  0.34950  0.69110  Biso   1.000  C
  C34      1.0000 0.32270  0.84950  0.69110  Biso   1.000  C
  C35      1.0000 0.17730  0.34950  0.80890  Biso   1.000  C
  C36      1.0000 0.67730  0.84950  0.80890  Biso   1.000  C
  C37      1.0000 0.17730  0.65050  0.30890  Biso   1.000  C
  C38      1.0000 0.67730  0.15050  0.30890  Biso   1.000  C
  C39      1.0000 0.82270  0.65050  0.19110  Biso   1.000  C
  C40      1.0000 0.32270  0.15050  0.19110  Biso   1.000  C
  C41      1.0000 0.91250  0.27590  0.72010  Biso   1.000  C
  C42      1.0000 0.41250  0.77590  0.72010  Biso   1.000  C
  C43      1.0000 0.08750  0.27590  0.77990  Biso   1.000  C
  C44      1.0000 0.58750  0.77590  0.77990  Biso   1.000  C
  C45      1.0000 0.08750  0.72410  0.27990  Biso   1.000  C
  C46      1.0000 0.58750  0.22410  0.27990  Biso   1.000  C
  C47      1.0000 0.91250  0.72410  0.22010  Biso   1.000  C
  C48      1.0000 0.41250  0.22410  0.22010  Biso   1.000  C
  H1       1.0000 0.65300  0.13000  0.63200  Biso   1.000  H
  H2       1.0000 0.15300  0.63000  0.63200  Biso   1.000  H
  H3       1.0000 0.34700  0.13000  0.86800  Biso   1.000  H
  H4       1.0000 0.84700  0.63000  0.86800  Biso   1.000  H
  H5       1.0000 0.34700  0.87000  0.36800  Biso   1.000  H
  H6       1.0000 0.84700  0.37000  0.36800  Biso   1.000  H
  H7       1.0000 0.65300  0.87000  0.13200  Biso   1.000  H
  H8       1.0000 0.15300  0.37000  0.13200  Biso   1.000  H
  H9       1.0000 0.48900  0.25100  0.57700  Biso   1.000  H
  H10      1.0000 0.98900  0.75100  0.57700  Biso   1.000  H
  H11      1.0000 0.51100  0.25100  0.92300  Biso   1.000  H
  H12      1.0000 0.01100  0.75100  0.92300  Biso   1.000  H
  H13      1.0000 0.51100  0.74900  0.42300  Biso   1.000  H
  H14      1.0000 0.01100  0.24900  0.42300  Biso   1.000  H
  H15      1.0000 0.48900  0.74900  0.07700  Biso   1.000  H
  H16      1.0000 0.98900  0.24900  0.07700  Biso   1.000  H
  H17      1.0000 0.60900  0.39200  0.62100  Biso   1.000  H
  H18      1.0000 0.10900  0.89200  0.62100  Biso   1.000  H
  H19      1.0000 0.39100  0.39200  0.87900  Biso   1.000  H
  H20      1.0000 0.89100  0.89200  0.87900  Biso   1.000  H
  H21      1.0000 0.39100  0.60800  0.37900  Biso   1.000  H
  H22      1.0000 0.89100  0.10800  0.37900  Biso   1.000  H
  H23      1.0000 0.60900  0.60800  0.12100  Biso   1.000  H
  H24      1.0000 0.10900  0.10800  0.12100  Biso   1.000  H
  H25      1.0000 0.86000  0.40500  0.70500  Biso   1.000  H
  H26      1.0000 0.36000  0.90500  0.70500  Biso   1.000  H
  H27      1.0000 0.14000  0.40500  0.79500  Biso   1.000  H
  H28      1.0000 0.64000  0.90500  0.79500  Biso   1.000  H
  H29      1.0000 0.14000  0.59500  0.29500  Biso   1.000  H
  H30      1.0000 0.64000  0.09500  0.29500  Biso   1.000  H
  H31      1.0000 0.86000  0.59500  0.20500  Biso   1.000  H
  H32      1.0000 0.36000  0.09500  0.20500  Biso   1.000  H
