data_image0
_cell_length_a       8.125
_cell_length_b       15.557
_cell_length_c       10.536
_cell_angle_alpha    90
_cell_angle_beta     95.32
_cell_angle_gamma    90

_symmetry_space_group_name_H-M    "P 1"
_symmetry_int_tables_number       1

loop_
  _symmetry_equiv_pos_as_xyz
  'x, y, z'

loop_
  _atom_site_label
  _atom_site_occupancy
  _atom_site_fract_x
  _atom_site_fract_y
  _atom_site_fract_z
  _atom_site_thermal_displace_type
  _atom_site_B_iso_or_equiv
  _atom_site_type_symbol
  Cu1      1.0000 0.00000  0.09972  0.25000  Biso   1.000  Cu
  Cu2      1.0000 0.50000  0.59972  0.25000  Biso   1.000  Cu
  Cu3      1.0000 0.00000  0.90028  0.75000  Biso   1.000  Cu
  Cu4      1.0000 0.50000  0.40028  0.75000  Biso   1.000  Cu
  S1       1.0000 0.27230  0.09178  0.04465  Biso   1.000  S
  S2       1.0000 0.77230  0.59178  0.04465  Biso   1.000  S
  S3       1.0000 0.72770  0.09178  0.45535  Biso   1.000  S
  S4       1.0000 0.22770  0.59178  0.45535  Biso   1.000  S
  S5       1.0000 0.72770  0.90822  0.95535  Biso   1.000  S
  S6       1.0000 0.22770  0.40822  0.95535  Biso   1.000  S
  S7       1.0000 0.27230  0.90822  0.54465  Biso   1.000  S
  S8       1.0000 0.77230  0.40822  0.54465  Biso   1.000  S
  N1       1.0000 0.15580  0.19620  0.30010  Biso   1.000  N
  N2       1.0000 0.65580  0.69620  0.30010  Biso   1.000  N
  N3       1.0000 0.84420  0.19620  0.19990  Biso   1.000  N
  N4       1.0000 0.34420  0.69620  0.19990  Biso   1.000  N
  N5       1.0000 0.84420  0.80380  0.69990  Biso   1.000  N
  N6       1.0000 0.34420  0.30380  0.69990  Biso   1.000  N
  N7       1.0000 0.15580  0.80380  0.80010  Biso   1.000  N
  N8       1.0000 0.65580  0.30380  0.80010  Biso   1.000  N
  N9       1.0000 0.12710  0.98480  0.85570  Biso   1.000  N
  N10      1.0000 0.62710  0.48480  0.85570  Biso   1.000  N
  N11      1.0000 0.87290  0.98480  0.64430  Biso   1.000  N
  N12      1.0000 0.37290  0.48480  0.64430  Biso   1.000  N
  N13      1.0000 0.87290  0.01520  0.14430  Biso   1.000  N
  N14      1.0000 0.37290  0.51520  0.14430  Biso   1.000  N
  N15      1.0000 0.12710  0.01520  0.35570  Biso   1.000  N
  N16      1.0000 0.62710  0.51520  0.35570  Biso   1.000  N
  C1       1.0000 0.08670  0.27620  0.28290  Biso   1.000  C
  C2       1.0000 0.58670  0.77620  0.28290  Biso   1.000  C
  C3       1.0000 0.91330  0.27620  0.21710  Biso   1.000  C
  C4       1.0000 0.41330  0.77620  0.21710  Biso   1.000  C
  C5       1.0000 0.91330  0.72380  0.71710  Biso   1.000  C
  C6       1.0000 0.41330  0.22380  0.71710  Biso   1.000  C
  C7       1.0000 0.08670  0.72380  0.78290  Biso   1.000  C
  C8       1.0000 0.58670  0.22380  0.78290  Biso   1.000  C
  C9       1.0000 0.17630  0.34830  0.31080  Biso   1.000  C
  C10      1.0000 0.67630  0.84830  0.31080  Biso   1.000  C
  C11      1.0000 0.82370  0.34830  0.18920  Biso   1.000  C
  C12      1.0000 0.32370  0.84830  0.18920  Biso   1.000  C
  C13      1.0000 0.82370  0.65170  0.68920  Biso   1.000  C
  C14      1.0000 0.32370  0.15170  0.68920  Biso   1.000  C
  C15      1.0000 0.17630  0.65170  0.81080  Biso   1.000  C
  C16      1.0000 0.67630  0.15170  0.81080  Biso   1.000  C
  H1       1.0000 0.12960  0.40200  0.29240  Biso   1.000  H
  H2       1.0000 0.62960  0.90200  0.29240  Biso   1.000  H
  H3       1.0000 0.87040  0.40200  0.20760  Biso   1.000  H
  H4       1.0000 0.37040  0.90200  0.20760  Biso   1.000  H
  H5       1.0000 0.87040  0.59800  0.70760  Biso   1.000  H
  H6       1.0000 0.37040  0.09800  0.70760  Biso   1.000  H
  H7       1.0000 0.12960  0.59800  0.79240  Biso   1.000  H
  H8       1.0000 0.62960  0.09800  0.79240  Biso   1.000  H
  C17      1.0000 0.33030  0.34280  0.36440  Biso   1.000  C
  C18      1.0000 0.83030  0.84280  0.36440  Biso   1.000  C
  C19      1.0000 0.66970  0.34280  0.13560  Biso   1.000  C
  C20      1.0000 0.16970  0.84280  0.13560  Biso   1.000  C
  C21      1.0000 0.66970  0.65720  0.63560  Biso   1.000  C
  C22      1.0000 0.16970  0.15720  0.63560  Biso   1.000  C
  C23      1.0000 0.33030  0.65720  0.86440  Biso   1.000  C
  C24      1.0000 0.83030  0.15720  0.86440  Biso   1.000  C
  H9       1.0000 0.38970  0.39210  0.38890  Biso   1.000  H
  H10      1.0000 0.88970  0.89210  0.38890  Biso   1.000  H
  H11      1.0000 0.61030  0.39210  0.11110  Biso   1.000  H
  H12      1.0000 0.11030  0.89210  0.11110  Biso   1.000  H
  H13      1.0000 0.61030  0.60790  0.61110  Biso   1.000  H
  H14      1.0000 0.11030  0.10790  0.61110  Biso   1.000  H
  H15      1.0000 0.38970  0.60790  0.88890  Biso   1.000  H
  H16      1.0000 0.88970  0.10790  0.88890  Biso   1.000  H
  C25      1.0000 0.39970  0.26370  0.38290  Biso   1.000  C
  C26      1.0000 0.89970  0.76370  0.38290  Biso   1.000  C
  C27      1.0000 0.60030  0.26370  0.11710  Biso   1.000  C
  C28      1.0000 0.10030  0.76370  0.11710  Biso   1.000  C
  C29      1.0000 0.60030  0.73630  0.61710  Biso   1.000  C
  C30      1.0000 0.10030  0.23630  0.61710  Biso   1.000  C
  C31      1.0000 0.39970  0.73630  0.88290  Biso   1.000  C
  C32      1.0000 0.89970  0.23630  0.88290  Biso   1.000  C
  H17      1.0000 0.51070  0.25880  0.41280  Biso   1.000  H
  H18      1.0000 0.01070  0.75880  0.41280  Biso   1.000  H
  H19      1.0000 0.48930  0.25880  0.08720  Biso   1.000  H
  H20      1.0000 0.98930  0.75880  0.08720  Biso   1.000  H
  H21      1.0000 0.48930  0.74120  0.58720  Biso   1.000  H
  H22      1.0000 0.98930  0.24120  0.58720  Biso   1.000  H
  H23      1.0000 0.51070  0.74120  0.91280  Biso   1.000  H
  H24      1.0000 0.01070  0.24120  0.91280  Biso   1.000  H
  C33      1.0000 0.30830  0.19240  0.35800  Biso   1.000  C
  C34      1.0000 0.80830  0.69240  0.35800  Biso   1.000  C
  C35      1.0000 0.69170  0.19240  0.14200  Biso   1.000  C
  C36      1.0000 0.19170  0.69240  0.14200  Biso   1.000  C
  C37      1.0000 0.69170  0.80760  0.64200  Biso   1.000  C
  C38      1.0000 0.19170  0.30760  0.64200  Biso   1.000  C
  C39      1.0000 0.30830  0.80760  0.85800  Biso   1.000  C
  C40      1.0000 0.80830  0.30760  0.85800  Biso   1.000  C
  H25      1.0000 0.35290  0.13910  0.38200  Biso   1.000  H
  H26      1.0000 0.85290  0.63910  0.38200  Biso   1.000  H
  H27      1.0000 0.64710  0.13910  0.11800  Biso   1.000  H
  H28      1.0000 0.14710  0.63910  0.11800  Biso   1.000  H
  H29      1.0000 0.64710  0.86090  0.61800  Biso   1.000  H
  H30      1.0000 0.14710  0.36090  0.61800  Biso   1.000  H
  H31      1.0000 0.35290  0.86090  0.88200  Biso   1.000  H
  H32      1.0000 0.85290  0.36090  0.88200  Biso   1.000  H
  C41      1.0000 0.19600  0.02470  0.93650  Biso   1.000  C
  C42      1.0000 0.69600  0.52470  0.93650  Biso   1.000  C
  C43      1.0000 0.80400  0.02470  0.56350  Biso   1.000  C
  C44      1.0000 0.30400  0.52470  0.56350  Biso   1.000  C
  C45      1.0000 0.80400  0.97530  0.06350  Biso   1.000  C
  C46      1.0000 0.30400  0.47530  0.06350  Biso   1.000  C
  C47      1.0000 0.19600  0.97530  0.43650  Biso   1.000  C
  C48      1.0000 0.69600  0.47530  0.43650  Biso   1.000  C
