data_image0
_cell_length_a       10.8
_cell_length_b       10.524
_cell_length_c       21.412
_cell_angle_alpha    90
_cell_angle_beta     90
_cell_angle_gamma    90

_symmetry_space_group_name_H-M    "P 1"
_symmetry_int_tables_number       1

loop_
  _symmetry_equiv_pos_as_xyz
  'x, y, z'

loop_
  _atom_site_label
  _atom_site_occupancy
  _atom_site_fract_x
  _atom_site_fract_y
  _atom_site_fract_z
  _atom_site_thermal_displace_type
  _atom_site_B_iso_or_equiv
  _atom_site_type_symbol
  Cu1      1.0000 0.41319  0.30280  0.91019  Biso   1.000  Cu
  Cu2      1.0000 0.08681  0.69720  0.41019  Biso   1.000  Cu
  Cu3      1.0000 0.91319  0.19720  0.08981  Biso   1.000  Cu
  Cu4      1.0000 0.58681  0.80280  0.58981  Biso   1.000  Cu
  Cu5      1.0000 0.08228  0.72939  0.89588  Biso   1.000  Cu
  Cu6      1.0000 0.41772  0.27061  0.39588  Biso   1.000  Cu
  Cu7      1.0000 0.58228  0.77061  0.10412  Biso   1.000  Cu
  Cu8      1.0000 0.91772  0.22939  0.60412  Biso   1.000  Cu
  O1       1.0000 0.24959  0.38287  0.90573  Biso   1.000  O
  O2       1.0000 0.25041  0.61713  0.40573  Biso   1.000  O
  O3       1.0000 0.74959  0.11713  0.09427  Biso   1.000  O
  O4       1.0000 0.75041  0.88287  0.59427  Biso   1.000  O
  O5       1.0000 0.12392  0.48601  0.84054  Biso   1.000  O
  O6       1.0000 0.37608  0.51399  0.34054  Biso   1.000  O
  O7       1.0000 0.62392  0.01399  0.15946  Biso   1.000  O
  O8       1.0000 0.87608  0.98601  0.65946  Biso   1.000  O
  O9       1.0000 0.55642  0.19752  0.89054  Biso   1.000  O
  O10      1.0000 0.94358  0.80248  0.39054  Biso   1.000  O
  O11      1.0000 0.05642  0.30248  0.10946  Biso   1.000  O
  O12      1.0000 0.44358  0.69752  0.60946  Biso   1.000  O
  O13      1.0000 0.66402  0.12532  0.80904  Biso   1.000  O
  O14      1.0000 0.83598  0.87468  0.30904  Biso   1.000  O
  O15      1.0000 0.16402  0.37468  0.19096  Biso   1.000  O
  O16      1.0000 0.33598  0.62532  0.69096  Biso   1.000  O
  O17      1.0000 0.50611  0.51370  0.93200  Biso   1.000  O
  O18      1.0000 0.99389  0.48630  0.43200  Biso   1.000  O
  O19      1.0000 0.00611  0.98630  0.06800  Biso   1.000  O
  O20      1.0000 0.49389  0.01370  0.56800  Biso   1.000  O
  O21      1.0000 0.55179  0.53659  0.06621  Biso   1.000  O
  O22      1.0000 0.94821  0.46341  0.56621  Biso   1.000  O
  O23      1.0000 0.05179  0.96341  0.93379  Biso   1.000  O
  O24      1.0000 0.44821  0.03659  0.43379  Biso   1.000  O
  O25      1.0000 0.41342  0.83157  0.11968  Biso   1.000  O
  O26      1.0000 0.08658  0.16843  0.61968  Biso   1.000  O
  O27      1.0000 0.91342  0.66843  0.88032  Biso   1.000  O
  O28      1.0000 0.58658  0.33157  0.38032  Biso   1.000  O
  O29      1.0000 0.28962  0.87525  0.20092  Biso   1.000  O
  O30      1.0000 0.21038  0.12475  0.70092  Biso   1.000  O
  O31      1.0000 0.78962  0.62475  0.79908  Biso   1.000  O
  O32      1.0000 0.71038  0.37525  0.29908  Biso   1.000  O
  O33      1.0000 0.75513  0.71188  0.11043  Biso   1.000  O
  O34      1.0000 0.74487  0.28812  0.61043  Biso   1.000  O
  O35      1.0000 0.25513  0.78812  0.88957  Biso   1.000  O
  O36      1.0000 0.24487  0.21188  0.38957  Biso   1.000  O
  O37      1.0000 0.87694  0.59561  0.17120  Biso   1.000  O
  O38      1.0000 0.62306  0.40439  0.67120  Biso   1.000  O
  O39      1.0000 0.37694  0.90439  0.82880  Biso   1.000  O
  O40      1.0000 0.12306  0.09561  0.32880  Biso   1.000  O
  N1       1.0000 0.43344  0.36279  0.82213  Biso   1.000  N
  N2       1.0000 0.06656  0.63721  0.32213  Biso   1.000  N
  N3       1.0000 0.93344  0.13721  0.17787  Biso   1.000  N
  N4       1.0000 0.56656  0.86279  0.67787  Biso   1.000  N
  N5       1.0000 0.55781  0.67987  0.18500  Biso   1.000  N
  N6       1.0000 0.94219  0.32013  0.68500  Biso   1.000  N
  N7       1.0000 0.05781  0.82013  0.81500  Biso   1.000  N
  N8       1.0000 0.44219  0.17987  0.31500  Biso   1.000  N
  N9       1.0000 0.40030  0.23557  0.99453  Biso   1.000  N
  N10      1.0000 0.09970  0.76443  0.49453  Biso   1.000  N
  N11      1.0000 0.90030  0.26443  0.00547  Biso   1.000  N
  N12      1.0000 0.59970  0.73557  0.50547  Biso   1.000  N
  N13      1.0000 0.44983  0.12859  0.07800  Biso   1.000  N
  N14      1.0000 0.05017  0.87141  0.57800  Biso   1.000  N
  N15      1.0000 0.94983  0.37141  0.92200  Biso   1.000  N
  N16      1.0000 0.55017  0.62859  0.42200  Biso   1.000  N
  N17      1.0000 0.09514  0.65696  0.97848  Biso   1.000  N
  N18      1.0000 0.40486  0.34304  0.47848  Biso   1.000  N
  N19      1.0000 0.59514  0.84304  0.02152  Biso   1.000  N
  N20      1.0000 0.90486  0.15696  0.52152  Biso   1.000  N
  N21      1.0000 0.03807  0.61195  0.07353  Biso   1.000  N
  N22      1.0000 0.46193  0.38805  0.57353  Biso   1.000  N
  N23      1.0000 0.53807  0.88805  0.92647  Biso   1.000  N
  N24      1.0000 0.96193  0.11195  0.42647  Biso   1.000  N
  C1       1.0000 0.31029  0.40483  0.79919  Biso   1.000  C
  C2       1.0000 0.18971  0.59517  0.29919  Biso   1.000  C
  C3       1.0000 0.81029  0.09517  0.20081  Biso   1.000  C
  C4       1.0000 0.68971  0.90483  0.70081  Biso   1.000  C
  C5       1.0000 0.22105  0.42811  0.85229  Biso   1.000  C
  C6       1.0000 0.27895  0.57189  0.35229  Biso   1.000  C
  C7       1.0000 0.72105  0.07189  0.14771  Biso   1.000  C
  C8       1.0000 0.77895  0.92811  0.64771  Biso   1.000  C
  C9       1.0000 0.48389  0.25055  0.78931  Biso   1.000  C
  C10      1.0000 0.01611  0.74945  0.28931  Biso   1.000  C
  C11      1.0000 0.98389  0.24945  0.21069  Biso   1.000  C
  C12      1.0000 0.51611  0.75055  0.71069  Biso   1.000  C
  C13      1.0000 0.57751  0.18472  0.83174  Biso   1.000  C
  C14      1.0000 0.92249  0.81528  0.33174  Biso   1.000  C
  C15      1.0000 0.07751  0.31528  0.16826  Biso   1.000  C
  C16      1.0000 0.42249  0.68472  0.66826  Biso   1.000  C
  C17      1.0000 0.52576  0.46768  0.82136  Biso   1.000  C
  C18      1.0000 0.97424  0.53232  0.32136  Biso   1.000  C
  C19      1.0000 0.02576  0.03232  0.17864  Biso   1.000  C
  C20      1.0000 0.47424  0.96768  0.67864  Biso   1.000  C
  C21      1.0000 0.49817  0.56740  0.87070  Biso   1.000  C
  C22      1.0000 0.00183  0.43260  0.37070  Biso   1.000  C
  C23      1.0000 0.99817  0.93260  0.12930  Biso   1.000  C
  C24      1.0000 0.50183  0.06740  0.62930  Biso   1.000  C
  C25      1.0000 0.62503  0.53402  0.96002  Biso   1.000  C
  C26      1.0000 0.87497  0.46598  0.46002  Biso   1.000  C
  C27      1.0000 0.12503  0.96598  0.03998  Biso   1.000  C
  C28      1.0000 0.37497  0.03402  0.53998  Biso   1.000  C
  C29      1.0000 0.62955  0.47311  0.02282  Biso   1.000  C
  C30      1.0000 0.87045  0.52689  0.52282  Biso   1.000  C
  C31      1.0000 0.12955  0.02689  0.97718  Biso   1.000  C
  C32      1.0000 0.37045  0.97311  0.47718  Biso   1.000  C
  C33      1.0000 0.55269  0.47550  0.12585  Biso   1.000  C
  C34      1.0000 0.94731  0.52450  0.62585  Biso   1.000  C
  C35      1.0000 0.05269  0.02450  0.87415  Biso   1.000  C
  C36      1.0000 0.44731  0.97550  0.37415  Biso   1.000  C
  C37      1.0000 0.49061  0.55955  0.17255  Biso   1.000  C
  C38      1.0000 0.00939  0.44045  0.67255  Biso   1.000  C
  C39      1.0000 0.99061  0.94045  0.82745  Biso   1.000  C
  C40      1.0000 0.50939  0.05955  0.32745  Biso   1.000  C
  C41      1.0000 0.47867  0.76731  0.22107  Biso   1.000  C
  C42      1.0000 0.02133  0.23269  0.72107  Biso   1.000  C
  C43      1.0000 0.97867  0.73269  0.77893  Biso   1.000  C
  C44      1.0000 0.52133  0.26731  0.27893  Biso   1.000  C
  C45      1.0000 0.38362  0.82916  0.17751  Biso   1.000  C
  C46      1.0000 0.11638  0.17084  0.67751  Biso   1.000  C
  C47      1.0000 0.88362  0.67084  0.82249  Biso   1.000  C
  C48      1.0000 0.61638  0.32916  0.32249  Biso   1.000  C
  C49      1.0000 0.68234  0.65736  0.21197  Biso   1.000  C
  C50      1.0000 0.81766  0.34264  0.71197  Biso   1.000  C
  C51      1.0000 0.18234  0.84264  0.78803  Biso   1.000  C
  C52      1.0000 0.31766  0.15736  0.28803  Biso   1.000  C
  C53      1.0000 0.77969  0.65209  0.16078  Biso   1.000  C
  C54      1.0000 0.72031  0.34791  0.66078  Biso   1.000  C
  C55      1.0000 0.27969  0.84791  0.83922  Biso   1.000  C
  C56      1.0000 0.22031  0.15209  0.33922  Biso   1.000  C
  C57      1.0000 0.47727  0.15059  0.01881  Biso   1.000  C
  C58      1.0000 0.02273  0.84941  0.51881  Biso   1.000  C
  C59      1.0000 0.97727  0.34941  0.98119  Biso   1.000  C
  C60      1.0000 0.52273  0.65059  0.48119  Biso   1.000  C
  C61      1.0000 0.35035  0.20229  0.09352  Biso   1.000  C
  C62      1.0000 0.14965  0.79771  0.59352  Biso   1.000  C
  C63      1.0000 0.85035  0.29771  0.90648  Biso   1.000  C
  C64      1.0000 0.64965  0.70229  0.40648  Biso   1.000  C
  C65      1.0000 0.32032  0.26888  0.04177  Biso   1.000  C
  C66      1.0000 0.17968  0.73112  0.54177  Biso   1.000  C
  C67      1.0000 0.82032  0.23112  0.95823  Biso   1.000  C
  C68      1.0000 0.67968  0.76888  0.45823  Biso   1.000  C
  C69      1.0000 0.00159  0.65529  0.01825  Biso   1.000  C
  C70      1.0000 0.49841  0.34471  0.51825  Biso   1.000  C
  C71      1.0000 0.50159  0.84471  0.98175  Biso   1.000  C
  C72      1.0000 0.99841  0.15529  0.48175  Biso   1.000  C
  C73      1.0000 0.16129  0.58352  0.06953  Biso   1.000  C
  C74      1.0000 0.33871  0.41648  0.56953  Biso   1.000  C
  C75      1.0000 0.66129  0.91648  0.93047  Biso   1.000  C
  C76      1.0000 0.83871  0.08352  0.43047  Biso   1.000  C
  C77      1.0000 0.19636  0.61212  0.01039  Biso   1.000  C
  C78      1.0000 0.30364  0.38788  0.51039  Biso   1.000  C
  C79      1.0000 0.69636  0.88788  0.98961  Biso   1.000  C
  C80      1.0000 0.80364  0.11212  0.48961  Biso   1.000  C
  H1       1.0000 0.27642  0.34032  0.77171  Biso   1.000  H
  H2       1.0000 0.22358  0.65968  0.27171  Biso   1.000  H
  H3       1.0000 0.77642  0.15968  0.22829  Biso   1.000  H
  H4       1.0000 0.72358  0.84032  0.72829  Biso   1.000  H
  H5       1.0000 0.31989  0.48237  0.77519  Biso   1.000  H
  H6       1.0000 0.18011  0.51763  0.27519  Biso   1.000  H
  H7       1.0000 0.81989  0.01763  0.22481  Biso   1.000  H
  H8       1.0000 0.68011  0.98237  0.72481  Biso   1.000  H
  H9       1.0000 0.52384  0.27679  0.75084  Biso   1.000  H
  H10      1.0000 0.97616  0.72321  0.25084  Biso   1.000  H
  H11      1.0000 0.02384  0.22321  0.24916  Biso   1.000  H
  H12      1.0000 0.47616  0.77679  0.74916  Biso   1.000  H
  H13      1.0000 0.41737  0.19236  0.77890  Biso   1.000  H
  H14      1.0000 0.08263  0.80764  0.27890  Biso   1.000  H
  H15      1.0000 0.91737  0.30764  0.22110  Biso   1.000  H
  H16      1.0000 0.58263  0.69236  0.72110  Biso   1.000  H
  H17      1.0000 0.52563  0.50745  0.78049  Biso   1.000  H
  H18      1.0000 0.97437  0.49255  0.28049  Biso   1.000  H
  H19      1.0000 0.02563  0.99255  0.21951  Biso   1.000  H
  H20      1.0000 0.47437  0.00745  0.71951  Biso   1.000  H
  H21      1.0000 0.60769  0.43289  0.82856  Biso   1.000  H
  H22      1.0000 0.89231  0.56711  0.32856  Biso   1.000  H
  H23      1.0000 0.10769  0.06711  0.17144  Biso   1.000  H
  H24      1.0000 0.39231  0.93289  0.67144  Biso   1.000  H
  H25      1.0000 0.55689  0.63671  0.86697  Biso   1.000  H
  H26      1.0000 0.94311  0.36329  0.36697  Biso   1.000  H
  H27      1.0000 0.05689  0.86329  0.13303  Biso   1.000  H
  H28      1.0000 0.44311  0.13671  0.63303  Biso   1.000  H
  H29      1.0000 0.41573  0.60143  0.86411  Biso   1.000  H
  H30      1.0000 0.08427  0.39857  0.36411  Biso   1.000  H
  H31      1.0000 0.91573  0.89857  0.13589  Biso   1.000  H
  H32      1.0000 0.58427  0.10143  0.63589  Biso   1.000  H
  H33      1.0000 0.64036  0.62445  0.96404  Biso   1.000  H
  H34      1.0000 0.85964  0.37555  0.46404  Biso   1.000  H
  H35      1.0000 0.14036  0.87555  0.03596  Biso   1.000  H
  H36      1.0000 0.35964  0.12445  0.53596  Biso   1.000  H
  H37      1.0000 0.68905  0.49820  0.93356  Biso   1.000  H
  H38      1.0000 0.81095  0.50180  0.43356  Biso   1.000  H
  H39      1.0000 0.18905  0.00180  0.06644  Biso   1.000  H
  H40      1.0000 0.31095  0.99820  0.56644  Biso   1.000  H
  H41      1.0000 0.60383  0.38511  0.01928  Biso   1.000  H
  H42      1.0000 0.89617  0.61489  0.51928  Biso   1.000  H
  H43      1.0000 0.10383  0.11489  0.98072  Biso   1.000  H
  H44      1.0000 0.39617  0.88511  0.48072  Biso   1.000  H
  H45      1.0000 0.71408  0.47429  0.03812  Biso   1.000  H
  H46      1.0000 0.78592  0.52571  0.53812  Biso   1.000  H
  H47      1.0000 0.21408  0.02571  0.96188  Biso   1.000  H
  H48      1.0000 0.28592  0.97429  0.46188  Biso   1.000  H
  H49      1.0000 0.63731  0.45896  0.13867  Biso   1.000  H
  H50      1.0000 0.86269  0.54104  0.63867  Biso   1.000  H
  H51      1.0000 0.13731  0.04104  0.86133  Biso   1.000  H
  H52      1.0000 0.36269  0.95896  0.36133  Biso   1.000  H
  H53      1.0000 0.50937  0.39494  0.12330  Biso   1.000  H
  H54      1.0000 0.99063  0.60506  0.62330  Biso   1.000  H
  H55      1.0000 0.00937  0.10506  0.87670  Biso   1.000  H
  H56      1.0000 0.49063  0.89494  0.37670  Biso   1.000  H
  H57      1.0000 0.40811  0.57975  0.15764  Biso   1.000  H
  H58      1.0000 0.09189  0.42025  0.65764  Biso   1.000  H
  H59      1.0000 0.90811  0.92025  0.84236  Biso   1.000  H
  H60      1.0000 0.59189  0.07975  0.34236  Biso   1.000  H
  H61      1.0000 0.48185  0.51327  0.21148  Biso   1.000  H
  H62      1.0000 0.01815  0.48673  0.71148  Biso   1.000  H
  H63      1.0000 0.98185  0.98673  0.78852  Biso   1.000  H
  H64      1.0000 0.51815  0.01327  0.28852  Biso   1.000  H
  H65      1.0000 0.52931  0.83245  0.24042  Biso   1.000  H
  H66      1.0000 0.97069  0.16755  0.74042  Biso   1.000  H
  H67      1.0000 0.02931  0.66755  0.75958  Biso   1.000  H
  H68      1.0000 0.47069  0.33245  0.25958  Biso   1.000  H
  H69      1.0000 0.43631  0.72091  0.25387  Biso   1.000  H
  H70      1.0000 0.06369  0.27909  0.75387  Biso   1.000  H
  H71      1.0000 0.93631  0.77909  0.74613  Biso   1.000  H
  H72      1.0000 0.56369  0.22091  0.24613  Biso   1.000  H
  H73      1.0000 0.68224  0.57785  0.23487  Biso   1.000  H
  H74      1.0000 0.81776  0.42215  0.73487  Biso   1.000  H
  H75      1.0000 0.18224  0.92215  0.76513  Biso   1.000  H
  H76      1.0000 0.31776  0.07785  0.26513  Biso   1.000  H
  H77      1.0000 0.70238  0.72506  0.24100  Biso   1.000  H
  H78      1.0000 0.79762  0.27494  0.74100  Biso   1.000  H
  H79      1.0000 0.20238  0.77494  0.75900  Biso   1.000  H
  H80      1.0000 0.29762  0.22506  0.25900  Biso   1.000  H
  H81      1.0000 0.54164  0.11178  0.99716  Biso   1.000  H
  H82      1.0000 0.95836  0.88822  0.49716  Biso   1.000  H
  H83      1.0000 0.04164  0.38822  0.00284  Biso   1.000  H
  H84      1.0000 0.45836  0.61178  0.50284  Biso   1.000  H
  H85      1.0000 0.48794  0.07694  0.10248  Biso   1.000  H
  H86      1.0000 0.01206  0.92306  0.60248  Biso   1.000  H
  H87      1.0000 0.98794  0.42306  0.89752  Biso   1.000  H
  H88      1.0000 0.51206  0.57694  0.39752  Biso   1.000  H
  H89      1.0000 0.31103  0.20586  0.13213  Biso   1.000  H
  H90      1.0000 0.18897  0.79414  0.63213  Biso   1.000  H
  H91      1.0000 0.81103  0.29414  0.86787  Biso   1.000  H
  H92      1.0000 0.68897  0.70586  0.36787  Biso   1.000  H
  H93      1.0000 0.25620  0.32751  0.03860  Biso   1.000  H
  H94      1.0000 0.24380  0.67249  0.53860  Biso   1.000  H
  H95      1.0000 0.75620  0.17249  0.96140  Biso   1.000  H
  H96      1.0000 0.74380  0.82751  0.46140  Biso   1.000  H
  H97      1.0000 0.92132  0.68089  0.00882  Biso   1.000  H
  H98      1.0000 0.57868  0.31911  0.50882  Biso   1.000  H
  H99      1.0000 0.42132  0.81911  0.99118  Biso   1.000  H
  H100     1.0000 0.07868  0.18089  0.49118  Biso   1.000  H
  H101     1.0000 0.99224  0.60327  0.10610  Biso   1.000  H
  H102     1.0000 0.50776  0.39673  0.60610  Biso   1.000  H
  H103     1.0000 0.49224  0.89673  0.89390  Biso   1.000  H
  H104     1.0000 0.00776  0.10327  0.39390  Biso   1.000  H
  H105     1.0000 0.21121  0.55105  0.10113  Biso   1.000  H
  H106     1.0000 0.28879  0.44895  0.60113  Biso   1.000  H
  H107     1.0000 0.71121  0.94895  0.89887  Biso   1.000  H
  H108     1.0000 0.78879  0.05105  0.39887  Biso   1.000  H
  H109     1.0000 0.27572  0.60292  0.99415  Biso   1.000  H
  H110     1.0000 0.22428  0.39708  0.49415  Biso   1.000  H
  H111     1.0000 0.77572  0.89708  0.00585  Biso   1.000  H
  H112     1.0000 0.72428  0.10292  0.50585  Biso   1.000  H
