data_image0
_cell_length_a       10.902
_cell_length_b       17.764
_cell_length_c       15.503
_cell_angle_alpha    90
_cell_angle_beta     110.58
_cell_angle_gamma    90

_symmetry_space_group_name_H-M    "P 1"
_symmetry_int_tables_number       1

loop_
  _symmetry_equiv_pos_as_xyz
  'x, y, z'

loop_
  _atom_site_label
  _atom_site_occupancy
  _atom_site_fract_x
  _atom_site_fract_y
  _atom_site_fract_z
  _atom_site_thermal_displace_type
  _atom_site_B_iso_or_equiv
  _atom_site_type_symbol
  Cu1      1.0000 0.60224  0.23811  0.54966  Biso   1.000  Cu
  Cu2      1.0000 0.39776  0.73811  0.95034  Biso   1.000  Cu
  Cu3      1.0000 0.39776  0.76189  0.45034  Biso   1.000  Cu
  Cu4      1.0000 0.60224  0.26189  0.04966  Biso   1.000  Cu
  Cl1      1.0000 0.37970  0.29561  0.64238  Biso   1.000  Cl
  Cl2      1.0000 0.62030  0.79561  0.85762  Biso   1.000  Cl
  Cl3      1.0000 0.62030  0.70439  0.35762  Biso   1.000  Cl
  Cl4      1.0000 0.37970  0.20439  0.14238  Biso   1.000  Cl
  Cl5      1.0000 0.19320  0.47139  0.16055  Biso   1.000  Cl
  Cl6      1.0000 0.80680  0.97139  0.33945  Biso   1.000  Cl
  Cl7      1.0000 0.80680  0.52861  0.83945  Biso   1.000  Cl
  Cl8      1.0000 0.19320  0.02861  0.66055  Biso   1.000  Cl
  O1       1.0000 0.43480  0.21560  0.45170  Biso   1.000  O
  O2       1.0000 0.56520  0.71560  0.04830  Biso   1.000  O
  O3       1.0000 0.56520  0.78440  0.54830  Biso   1.000  O
  O4       1.0000 0.43480  0.28440  0.95170  Biso   1.000  O
  O5       1.0000 0.77790  0.24590  0.14280  Biso   1.000  O
  O6       1.0000 0.22210  0.74590  0.35720  Biso   1.000  O
  O7       1.0000 0.22210  0.75410  0.85720  Biso   1.000  O
  O8       1.0000 0.77790  0.25410  0.64280  Biso   1.000  O
  O9       1.0000 0.51190  0.26530  0.65940  Biso   1.000  O
  O10      1.0000 0.48810  0.76530  0.84060  Biso   1.000  O
  O11      1.0000 0.48810  0.73470  0.34060  Biso   1.000  O
  O12      1.0000 0.51190  0.23470  0.15940  Biso   1.000  O
  O13      1.0000 0.33570  0.33410  0.55440  Biso   1.000  O
  O14      1.0000 0.66430  0.83410  0.94560  Biso   1.000  O
  O15      1.0000 0.66430  0.66590  0.44560  Biso   1.000  O
  O16      1.0000 0.33570  0.16590  0.05440  Biso   1.000  O
  O17      1.0000 0.29450  0.23470  0.63900  Biso   1.000  O
  O18      1.0000 0.70550  0.73470  0.86100  Biso   1.000  O
  O19      1.0000 0.70550  0.76530  0.36100  Biso   1.000  O
  O20      1.0000 0.29450  0.26530  0.13900  Biso   1.000  O
  O21      1.0000 0.38700  0.34540  0.71690  Biso   1.000  O
  O22      1.0000 0.61300  0.84540  0.78310  Biso   1.000  O
  O23      1.0000 0.61300  0.65460  0.28310  Biso   1.000  O
  O24      1.0000 0.38700  0.15460  0.21690  Biso   1.000  O
  O25      1.0000 0.09540  0.46040  0.20120  Biso   1.000  O
  O26      1.0000 0.90460  0.96040  0.29880  Biso   1.000  O
  O27      1.0000 0.90460  0.53960  0.79880  Biso   1.000  O
  O28      1.0000 0.09540  0.03960  0.70120  Biso   1.000  O
  O29      1.0000 0.30750  0.43220  0.21450  Biso   1.000  O
  O30      1.0000 0.69250  0.93220  0.28550  Biso   1.000  O
  O31      1.0000 0.69250  0.56780  0.78550  Biso   1.000  O
  O32      1.0000 0.30750  0.06780  0.71450  Biso   1.000  O
  O33      1.0000 0.22610  0.54760  0.16410  Biso   1.000  O
  O34      1.0000 0.77390  0.04760  0.33590  Biso   1.000  O
  O35      1.0000 0.77390  0.45240  0.83590  Biso   1.000  O
  O36      1.0000 0.22610  0.95240  0.66410  Biso   1.000  O
  O37      1.0000 0.14920  0.44420  0.06900  Biso   1.000  O
  O38      1.0000 0.85080  0.94420  0.43100  Biso   1.000  O
  O39      1.0000 0.85080  0.55580  0.93100  Biso   1.000  O
  O40      1.0000 0.14920  0.05580  0.56900  Biso   1.000  O
  N1       1.0000 0.61280  0.34700  0.52010  Biso   1.000  N
  N2       1.0000 0.38720  0.84700  0.97990  Biso   1.000  N
  N3       1.0000 0.38720  0.65300  0.47990  Biso   1.000  N
  N4       1.0000 0.61280  0.15300  0.02010  Biso   1.000  N
  N5       1.0000 0.39550  0.30390  0.34240  Biso   1.000  N
  N6       1.0000 0.60450  0.80390  0.15760  Biso   1.000  N
  N7       1.0000 0.60450  0.69610  0.65760  Biso   1.000  N
  N8       1.0000 0.39550  0.19610  0.84240  Biso   1.000  N
  H1       1.0000 0.33700  0.33120  0.30310  Biso   1.000  H
  H2       1.0000 0.66300  0.83120  0.19690  Biso   1.000  H
  H3       1.0000 0.66300  0.66880  0.69690  Biso   1.000  H
  H4       1.0000 0.33700  0.16880  0.80310  Biso   1.000  H
  N9       1.0000 0.91520  0.33610  0.12750  Biso   1.000  N
  N10      1.0000 0.08480  0.83610  0.37250  Biso   1.000  N
  N11      1.0000 0.08480  0.66390  0.87250  Biso   1.000  N
  N12      1.0000 0.91520  0.16390  0.62750  Biso   1.000  N
  H5       1.0000 0.99250  0.35530  0.14910  Biso   1.000  H
  H6       1.0000 0.00750  0.85530  0.35090  Biso   1.000  H
  H7       1.0000 0.00750  0.64470  0.85090  Biso   1.000  H
  H8       1.0000 0.99250  0.14470  0.64910  Biso   1.000  H
  N13      1.0000 0.61700  0.37340  0.07720  Biso   1.000  N
  N14      1.0000 0.38300  0.87340  0.42280  Biso   1.000  N
  N15      1.0000 0.38300  0.62660  0.92280  Biso   1.000  N
  N16      1.0000 0.61700  0.12660  0.57720  Biso   1.000  N
  C1       1.0000 0.65720  0.39460  0.59040  Biso   1.000  C
  C2       1.0000 0.34280  0.89460  0.90960  Biso   1.000  C
  C3       1.0000 0.34280  0.60540  0.40960  Biso   1.000  C
  C4       1.0000 0.65720  0.10540  0.09040  Biso   1.000  C
  H9       1.0000 0.66860  0.37760  0.64950  Biso   1.000  H
  H10      1.0000 0.33140  0.87760  0.85050  Biso   1.000  H
  H11      1.0000 0.33140  0.62240  0.35050  Biso   1.000  H
  H12      1.0000 0.66860  0.12240  0.14950  Biso   1.000  H
  C5       1.0000 0.68760  0.47010  0.57840  Biso   1.000  C
  C6       1.0000 0.31240  0.97010  0.92160  Biso   1.000  C
  C7       1.0000 0.31240  0.52990  0.42160  Biso   1.000  C
  C8       1.0000 0.68760  0.02990  0.07840  Biso   1.000  C
  H13      1.0000 0.72030  0.50230  0.62860  Biso   1.000  H
  H14      1.0000 0.27970  0.00230  0.87140  Biso   1.000  H
  H15      1.0000 0.27970  0.49770  0.37140  Biso   1.000  H
  H16      1.0000 0.72030  0.99770  0.12860  Biso   1.000  H
  C9       1.0000 0.66750  0.49500  0.49010  Biso   1.000  C
  C10      1.0000 0.33250  0.99500  0.00990  Biso   1.000  C
  C11      1.0000 0.33250  0.50500  0.50990  Biso   1.000  C
  C12      1.0000 0.66750  0.00500  0.99010  Biso   1.000  C
  H17      1.0000 0.68710  0.54440  0.47970  Biso   1.000  H
  H18      1.0000 0.31290  0.04440  0.02030  Biso   1.000  H
  H19      1.0000 0.31290  0.45560  0.52030  Biso   1.000  H
  H20      1.0000 0.68710  0.95560  0.97970  Biso   1.000  H
  C13      1.0000 0.61820  0.44560  0.41760  Biso   1.000  C
  C14      1.0000 0.38180  0.94560  0.08240  Biso   1.000  C
  C15      1.0000 0.38180  0.55440  0.58240  Biso   1.000  C
  C16      1.0000 0.61820  0.05440  0.91760  Biso   1.000  C
  H21      1.0000 0.60280  0.46180  0.35770  Biso   1.000  H
  H22      1.0000 0.39720  0.96180  0.14230  Biso   1.000  H
  H23      1.0000 0.39720  0.53820  0.64230  Biso   1.000  H
  H24      1.0000 0.60280  0.03820  0.85770  Biso   1.000  H
  C17      1.0000 0.59170  0.37280  0.43370  Biso   1.000  C
  C18      1.0000 0.40830  0.87280  0.06630  Biso   1.000  C
  C19      1.0000 0.40830  0.62720  0.56630  Biso   1.000  C
  C20      1.0000 0.59170  0.12720  0.93370  Biso   1.000  C
  C21      1.0000 0.53440  0.31790  0.35630  Biso   1.000  C
  C22      1.0000 0.46560  0.81790  0.14370  Biso   1.000  C
  C23      1.0000 0.46560  0.68210  0.64370  Biso   1.000  C
  C24      1.0000 0.53440  0.18210  0.85630  Biso   1.000  C
  H25      1.0000 0.54180  0.33800  0.30010  Biso   1.000  H
  H26      1.0000 0.45820  0.83800  0.19990  Biso   1.000  H
  H27      1.0000 0.45820  0.66200  0.69990  Biso   1.000  H
  H28      1.0000 0.54180  0.16200  0.80010  Biso   1.000  H
  H29      1.0000 0.58280  0.27100  0.37060  Biso   1.000  H
  H30      1.0000 0.41720  0.77100  0.12940  Biso   1.000  H
  H31      1.0000 0.41720  0.72900  0.62940  Biso   1.000  H
  H32      1.0000 0.58280  0.22900  0.87060  Biso   1.000  H
  C25      1.0000 0.35720  0.25250  0.38640  Biso   1.000  C
  C26      1.0000 0.64280  0.75250  0.11360  Biso   1.000  C
  C27      1.0000 0.64280  0.74750  0.61360  Biso   1.000  C
  C28      1.0000 0.35720  0.24750  0.88640  Biso   1.000  C
  C29      1.0000 0.21320  0.23590  0.35860  Biso   1.000  C
  C30      1.0000 0.78680  0.73590  0.14140  Biso   1.000  C
  C31      1.0000 0.78680  0.76410  0.64140  Biso   1.000  C
  C32      1.0000 0.21320  0.26410  0.85860  Biso   1.000  C
  C33      1.0000 0.17010  0.18960  0.41390  Biso   1.000  C
  C34      1.0000 0.82990  0.68960  0.08610  Biso   1.000  C
  C35      1.0000 0.82990  0.81040  0.58610  Biso   1.000  C
  C36      1.0000 0.17010  0.31040  0.91390  Biso   1.000  C
  H33      1.0000 0.23070  0.17170  0.46870  Biso   1.000  H
  H34      1.0000 0.76930  0.67170  0.03130  Biso   1.000  H
  H35      1.0000 0.76930  0.82830  0.53130  Biso   1.000  H
  H36      1.0000 0.23070  0.32830  0.96870  Biso   1.000  H
  C37      1.0000 0.04380  0.16970  0.39100  Biso   1.000  C
  C38      1.0000 0.95620  0.66970  0.10900  Biso   1.000  C
  C39      1.0000 0.95620  0.83030  0.60900  Biso   1.000  C
  C40      1.0000 0.04380  0.33030  0.89100  Biso   1.000  C
  H37      1.0000 0.01840  0.13670  0.42830  Biso   1.000  H
  H38      1.0000 0.98160  0.63670  0.07170  Biso   1.000  H
  H39      1.0000 0.98160  0.86330  0.57170  Biso   1.000  H
  H40      1.0000 0.01840  0.36330  0.92830  Biso   1.000  H
  C41      1.0000 0.95090  0.19890  0.31110  Biso   1.000  C
  C42      1.0000 0.04910  0.69890  0.18890  Biso   1.000  C
  C43      1.0000 0.04910  0.80110  0.68890  Biso   1.000  C
  C44      1.0000 0.95090  0.30110  0.81110  Biso   1.000  C
  H41      1.0000 0.86310  0.18620  0.29610  Biso   1.000  H
  H42      1.0000 0.13690  0.68620  0.20390  Biso   1.000  H
  H43      1.0000 0.13690  0.81380  0.70390  Biso   1.000  H
  H44      1.0000 0.86310  0.31380  0.79610  Biso   1.000  H
  C45      1.0000 0.98840  0.24630  0.25420  Biso   1.000  C
  C46      1.0000 0.01160  0.74630  0.24580  Biso   1.000  C
  C47      1.0000 0.01160  0.75370  0.74580  Biso   1.000  C
  C48      1.0000 0.98840  0.25370  0.75420  Biso   1.000  C
  C49      1.0000 0.12300  0.26370  0.27740  Biso   1.000  C
  C50      1.0000 0.87700  0.76370  0.22260  Biso   1.000  C
  C51      1.0000 0.87700  0.73630  0.72260  Biso   1.000  C
  C52      1.0000 0.12300  0.23630  0.77740  Biso   1.000  C
  H45      1.0000 0.15080  0.29360  0.23850  Biso   1.000  H
  H46      1.0000 0.84920  0.79360  0.26150  Biso   1.000  H
  H47      1.0000 0.84920  0.70640  0.76150  Biso   1.000  H
  H48      1.0000 0.15080  0.20640  0.73850  Biso   1.000  H
  C53      1.0000 0.88960  0.27670  0.17040  Biso   1.000  C
  C54      1.0000 0.11040  0.77670  0.32960  Biso   1.000  C
  C55      1.0000 0.11040  0.72330  0.82960  Biso   1.000  C
  C56      1.0000 0.88960  0.22330  0.67040  Biso   1.000  C
  C57      1.0000 0.82120  0.37030  0.04720  Biso   1.000  C
  C58      1.0000 0.17880  0.87030  0.45280  Biso   1.000  C
  C59      1.0000 0.17880  0.62970  0.95280  Biso   1.000  C
  C60      1.0000 0.82120  0.12970  0.54720  Biso   1.000  C
  H49      1.0000 0.77940  0.33180  0.00210  Biso   1.000  H
  H50      1.0000 0.22060  0.83180  0.49790  Biso   1.000  H
  H51      1.0000 0.22060  0.66820  0.99790  Biso   1.000  H
  H52      1.0000 0.77940  0.16820  0.50210  Biso   1.000  H
  H53      1.0000 0.86540  0.40500  0.01960  Biso   1.000  H
  H54      1.0000 0.13460  0.90500  0.48040  Biso   1.000  H
  H55      1.0000 0.13460  0.59500  0.98040  Biso   1.000  H
  H56      1.0000 0.86540  0.09500  0.51960  Biso   1.000  H
  C61      1.0000 0.71660  0.41290  0.07390  Biso   1.000  C
  C62      1.0000 0.28340  0.91290  0.42610  Biso   1.000  C
  C63      1.0000 0.28340  0.58710  0.92610  Biso   1.000  C
  C64      1.0000 0.71660  0.08710  0.57390  Biso   1.000  C
  C65      1.0000 0.73300  0.48810  0.09580  Biso   1.000  C
  C66      1.0000 0.26700  0.98810  0.40420  Biso   1.000  C
  C67      1.0000 0.26700  0.51190  0.90420  Biso   1.000  C
  C68      1.0000 0.73300  0.01190  0.59580  Biso   1.000  C
  H57      1.0000 0.80460  0.51460  0.09240  Biso   1.000  H
  H58      1.0000 0.19540  0.01460  0.40760  Biso   1.000  H
  H59      1.0000 0.19540  0.48540  0.90760  Biso   1.000  H
  H60      1.0000 0.80460  0.98540  0.59240  Biso   1.000  H
  C69      1.0000 0.63900  0.52300  0.12320  Biso   1.000  C
  C70      1.0000 0.36100  0.02300  0.37680  Biso   1.000  C
  C71      1.0000 0.36100  0.47700  0.87680  Biso   1.000  C
  C72      1.0000 0.63900  0.97700  0.62320  Biso   1.000  C
  H61      1.0000 0.64630  0.57380  0.13850  Biso   1.000  H
  H62      1.0000 0.35370  0.07380  0.36150  Biso   1.000  H
  H63      1.0000 0.35370  0.42620  0.86150  Biso   1.000  H
  H64      1.0000 0.64630  0.92620  0.63850  Biso   1.000  H
  C73      1.0000 0.53520  0.48170  0.12720  Biso   1.000  C
  C74      1.0000 0.46480  0.98170  0.37280  Biso   1.000  C
  C75      1.0000 0.46480  0.51830  0.87280  Biso   1.000  C
  C76      1.0000 0.53520  0.01830  0.62720  Biso   1.000  C
  H65      1.0000 0.47100  0.50430  0.14510  Biso   1.000  H
  H66      1.0000 0.52900  0.00430  0.35490  Biso   1.000  H
  H67      1.0000 0.52900  0.49570  0.85490  Biso   1.000  H
  H68      1.0000 0.47100  0.99570  0.64510  Biso   1.000  H
  C77      1.0000 0.52660  0.40780  0.10510  Biso   1.000  C
  C78      1.0000 0.47340  0.90780  0.39490  Biso   1.000  C
  C79      1.0000 0.47340  0.59220  0.89490  Biso   1.000  C
  C80      1.0000 0.52660  0.09220  0.60510  Biso   1.000  C
  H69      1.0000 0.45670  0.37980  0.10910  Biso   1.000  H
  H70      1.0000 0.54330  0.87980  0.39090  Biso   1.000  H
  H71      1.0000 0.54330  0.62020  0.89090  Biso   1.000  H
  H72      1.0000 0.45670  0.12020  0.60910  Biso   1.000  H
