data_image0
_cell_length_a       6.927
_cell_length_b       20.812
_cell_length_c       17.401
_cell_angle_alpha    90
_cell_angle_beta     90
_cell_angle_gamma    90

_symmetry_space_group_name_H-M    "P 1"
_symmetry_int_tables_number       1

loop_
  _symmetry_equiv_pos_as_xyz
  'x, y, z'

loop_
  _atom_site_label
  _atom_site_occupancy
  _atom_site_fract_x
  _atom_site_fract_y
  _atom_site_fract_z
  _atom_site_thermal_displace_type
  _atom_site_B_iso_or_equiv
  _atom_site_type_symbol
  Cu1      1.0000 0.50000  0.00000  0.50000  Biso   1.000  Cu
  Cu2      1.0000 0.00000  0.50000  0.00000  Biso   1.000  Cu
  Cu3      1.0000 0.50000  0.50000  0.50000  Biso   1.000  Cu
  Cu4      1.0000 0.00000  0.00000  0.00000  Biso   1.000  Cu
  Cl1      1.0000 0.75710  0.95427  0.55712  Biso   1.000  Cl
  Cl2      1.0000 0.25710  0.54573  0.94288  Biso   1.000  Cl
  Cl3      1.0000 0.24290  0.45427  0.44288  Biso   1.000  Cl
  Cl4      1.0000 0.74290  0.04573  0.05712  Biso   1.000  Cl
  Cl5      1.0000 0.24290  0.04573  0.44288  Biso   1.000  Cl
  Cl6      1.0000 0.74290  0.45427  0.05712  Biso   1.000  Cl
  Cl7      1.0000 0.75710  0.54573  0.55712  Biso   1.000  Cl
  Cl8      1.0000 0.25710  0.95427  0.94288  Biso   1.000  Cl
  S1       1.0000 0.39380  0.83613  0.67730  Biso   1.000  S
  S2       1.0000 0.89380  0.66387  0.82270  Biso   1.000  S
  S3       1.0000 0.60620  0.33613  0.32270  Biso   1.000  S
  S4       1.0000 0.10620  0.16387  0.17730  Biso   1.000  S
  S5       1.0000 0.60620  0.16387  0.32270  Biso   1.000  S
  S6       1.0000 0.10620  0.33613  0.17730  Biso   1.000  S
  S7       1.0000 0.39380  0.66387  0.67730  Biso   1.000  S
  S8       1.0000 0.89380  0.83613  0.82270  Biso   1.000  S
  F1       1.0000 0.82300  0.75000  0.38840  Biso   1.000  F
  F2       1.0000 0.32300  0.75000  0.11160  Biso   1.000  F
  F3       1.0000 0.17700  0.25000  0.61160  Biso   1.000  F
  F4       1.0000 0.67700  0.25000  0.88840  Biso   1.000  F
  F5       1.0000 0.00730  0.75000  0.28720  Biso   1.000  F
  F6       1.0000 0.50730  0.75000  0.21280  Biso   1.000  F
  F7       1.0000 0.99270  0.25000  0.71280  Biso   1.000  F
  F8       1.0000 0.49270  0.25000  0.78720  Biso   1.000  F
  F9       1.0000 0.99930  0.86060  0.40240  Biso   1.000  F
  F10      1.0000 0.49930  0.63940  0.09760  Biso   1.000  F
  F11      1.0000 0.00070  0.36060  0.59760  Biso   1.000  F
  F12      1.0000 0.50070  0.13940  0.90240  Biso   1.000  F
  F13      1.0000 0.00070  0.13940  0.59760  Biso   1.000  F
  F14      1.0000 0.50070  0.36060  0.90240  Biso   1.000  F
  F15      1.0000 0.99930  0.63940  0.40240  Biso   1.000  F
  F16      1.0000 0.49930  0.86060  0.09760  Biso   1.000  F
  F17      1.0000 0.26370  0.82420  0.35210  Biso   1.000  F
  F18      1.0000 0.76370  0.67580  0.14790  Biso   1.000  F
  F19      1.0000 0.73630  0.32420  0.64790  Biso   1.000  F
  F20      1.0000 0.23630  0.17580  0.85210  Biso   1.000  F
  F21      1.0000 0.73630  0.17580  0.64790  Biso   1.000  F
  F22      1.0000 0.23630  0.32420  0.85210  Biso   1.000  F
  F23      1.0000 0.26370  0.67580  0.35210  Biso   1.000  F
  F24      1.0000 0.76370  0.82420  0.14790  Biso   1.000  F
  N1       1.0000 0.38190  0.01470  0.60400  Biso   1.000  N
  N2       1.0000 0.88190  0.48530  0.89600  Biso   1.000  N
  N3       1.0000 0.61810  0.51470  0.39600  Biso   1.000  N
  N4       1.0000 0.11810  0.98530  0.10400  Biso   1.000  N
  N5       1.0000 0.61810  0.98530  0.39600  Biso   1.000  N
  N6       1.0000 0.11810  0.51470  0.10400  Biso   1.000  N
  N7       1.0000 0.38190  0.48530  0.60400  Biso   1.000  N
  N8       1.0000 0.88190  0.01470  0.89600  Biso   1.000  N
  C1       1.0000 0.00940  0.75000  0.36460  Biso   1.000  C
  C2       1.0000 0.50940  0.75000  0.13540  Biso   1.000  C
  C3       1.0000 0.99060  0.25000  0.63540  Biso   1.000  C
  C4       1.0000 0.49060  0.25000  0.86460  Biso   1.000  C
  C5       1.0000 0.11390  0.80840  0.39980  Biso   1.000  C
  C6       1.0000 0.61390  0.69160  0.10020  Biso   1.000  C
  C7       1.0000 0.88610  0.30840  0.60020  Biso   1.000  C
  C8       1.0000 0.38610  0.19160  0.89980  Biso   1.000  C
  C9       1.0000 0.88610  0.19160  0.60020  Biso   1.000  C
  C10      1.0000 0.38610  0.30840  0.89980  Biso   1.000  C
  C11      1.0000 0.11390  0.69160  0.39980  Biso   1.000  C
  C12      1.0000 0.61390  0.80840  0.10020  Biso   1.000  C
  C13      1.0000 0.18390  0.78470  0.47530  Biso   1.000  C
  C14      1.0000 0.68390  0.71530  0.02470  Biso   1.000  C
  C15      1.0000 0.81610  0.28470  0.52470  Biso   1.000  C
  C16      1.0000 0.31610  0.21530  0.97530  Biso   1.000  C
  C17      1.0000 0.81610  0.21530  0.52470  Biso   1.000  C
  C18      1.0000 0.31610  0.28470  0.97530  Biso   1.000  C
  C19      1.0000 0.18390  0.71530  0.47530  Biso   1.000  C
  C20      1.0000 0.68390  0.78470  0.02470  Biso   1.000  C
  C21      1.0000 0.37600  0.78030  0.59410  Biso   1.000  C
  C22      1.0000 0.87600  0.71970  0.90590  Biso   1.000  C
  C23      1.0000 0.62400  0.28030  0.40590  Biso   1.000  C
  C24      1.0000 0.12400  0.21970  0.09410  Biso   1.000  C
  C25      1.0000 0.62400  0.21970  0.40590  Biso   1.000  C
  C26      1.0000 0.12400  0.28030  0.09410  Biso   1.000  C
  C27      1.0000 0.37600  0.71970  0.59410  Biso   1.000  C
  C28      1.0000 0.87600  0.78030  0.90590  Biso   1.000  C
  C29      1.0000 0.24460  0.81930  0.53690  Biso   1.000  C
  C30      1.0000 0.74460  0.68070  0.96310  Biso   1.000  C
  C31      1.0000 0.75540  0.31930  0.46310  Biso   1.000  C
  C32      1.0000 0.25540  0.18070  0.03690  Biso   1.000  C
  C33      1.0000 0.75540  0.18070  0.46310  Biso   1.000  C
  C34      1.0000 0.25540  0.31930  0.03690  Biso   1.000  C
  C35      1.0000 0.24460  0.68070  0.53690  Biso   1.000  C
  C36      1.0000 0.74460  0.81930  0.96310  Biso   1.000  C
  C37      1.0000 0.24890  0.88670  0.55090  Biso   1.000  C
  C38      1.0000 0.74890  0.61330  0.94910  Biso   1.000  C
  C39      1.0000 0.75110  0.38670  0.44910  Biso   1.000  C
  C40      1.0000 0.25110  0.11330  0.05090  Biso   1.000  C
  C41      1.0000 0.75110  0.11330  0.44910  Biso   1.000  C
  C42      1.0000 0.25110  0.38670  0.05090  Biso   1.000  C
  C43      1.0000 0.24890  0.61330  0.55090  Biso   1.000  C
  C44      1.0000 0.74890  0.88670  0.94910  Biso   1.000  C
  C45      1.0000 0.32320  0.90140  0.62120  Biso   1.000  C
  C46      1.0000 0.82320  0.59860  0.87880  Biso   1.000  C
  C47      1.0000 0.67680  0.40140  0.37880  Biso   1.000  C
  C48      1.0000 0.17680  0.09860  0.12120  Biso   1.000  C
  C49      1.0000 0.67680  0.09860  0.37880  Biso   1.000  C
  C50      1.0000 0.17680  0.40140  0.12120  Biso   1.000  C
  C51      1.0000 0.32320  0.59860  0.62120  Biso   1.000  C
  C52      1.0000 0.82320  0.90140  0.87880  Biso   1.000  C
  C53      1.0000 0.57800  0.75000  0.56210  Biso   1.000  C
  C54      1.0000 0.07800  0.75000  0.93790  Biso   1.000  C
  C55      1.0000 0.42200  0.25000  0.43790  Biso   1.000  C
  C56      1.0000 0.92200  0.25000  0.06210  Biso   1.000  C
  C57      1.0000 0.34100  0.96670  0.65370  Biso   1.000  C
  C58      1.0000 0.84100  0.53330  0.84630  Biso   1.000  C
  C59      1.0000 0.65900  0.46670  0.34630  Biso   1.000  C
  C60      1.0000 0.15900  0.03330  0.15370  Biso   1.000  C
  C61      1.0000 0.65900  0.03330  0.34630  Biso   1.000  C
  C62      1.0000 0.15900  0.46670  0.15370  Biso   1.000  C
  C63      1.0000 0.34100  0.53330  0.65370  Biso   1.000  C
  C64      1.0000 0.84100  0.96670  0.84630  Biso   1.000  C
  C65      1.0000 0.31310  0.97840  0.73180  Biso   1.000  C
  C66      1.0000 0.81310  0.52160  0.76820  Biso   1.000  C
  C67      1.0000 0.68690  0.47840  0.26820  Biso   1.000  C
  C68      1.0000 0.18690  0.02160  0.23180  Biso   1.000  C
  C69      1.0000 0.68690  0.02160  0.26820  Biso   1.000  C
  C70      1.0000 0.18690  0.47840  0.23180  Biso   1.000  C
  C71      1.0000 0.31310  0.52160  0.73180  Biso   1.000  C
  C72      1.0000 0.81310  0.97840  0.76820  Biso   1.000  C
  C73      1.0000 0.32360  0.04070  0.75870  Biso   1.000  C
  C74      1.0000 0.82360  0.45930  0.74130  Biso   1.000  C
  C75      1.0000 0.67640  0.54070  0.24130  Biso   1.000  C
  C76      1.0000 0.17640  0.95930  0.25870  Biso   1.000  C
  C77      1.0000 0.67640  0.95930  0.24130  Biso   1.000  C
  C78      1.0000 0.17640  0.54070  0.25870  Biso   1.000  C
  C79      1.0000 0.32360  0.45930  0.75870  Biso   1.000  C
  C80      1.0000 0.82360  0.04070  0.74130  Biso   1.000  C
  C81      1.0000 0.35570  0.09040  0.70730  Biso   1.000  C
  C82      1.0000 0.85570  0.40960  0.79270  Biso   1.000  C
  C83      1.0000 0.64430  0.59040  0.29270  Biso   1.000  C
  C84      1.0000 0.14430  0.90960  0.20730  Biso   1.000  C
  C85      1.0000 0.64430  0.90960  0.29270  Biso   1.000  C
  C86      1.0000 0.14430  0.59040  0.20730  Biso   1.000  C
  C87      1.0000 0.35570  0.40960  0.70730  Biso   1.000  C
  C88      1.0000 0.85570  0.09040  0.79270  Biso   1.000  C
  C89      1.0000 0.38440  0.07530  0.63060  Biso   1.000  C
  C90      1.0000 0.88440  0.42470  0.86940  Biso   1.000  C
  C91      1.0000 0.61560  0.57530  0.36940  Biso   1.000  C
  C92      1.0000 0.11560  0.92470  0.13060  Biso   1.000  C
  C93      1.0000 0.61560  0.92470  0.36940  Biso   1.000  C
  C94      1.0000 0.11560  0.57530  0.13060  Biso   1.000  C
  C95      1.0000 0.38440  0.42470  0.63060  Biso   1.000  C
  C96      1.0000 0.88440  0.07530  0.86940  Biso   1.000  C
  C97      1.0000 0.26100  0.78000  0.61330  Biso   1.000  C
  C98      1.0000 0.76100  0.72000  0.88670  Biso   1.000  C
  C99      1.0000 0.73900  0.28000  0.38670  Biso   1.000  C
  C100     1.0000 0.23900  0.22000  0.11330  Biso   1.000  C
  C101     1.0000 0.73900  0.22000  0.38670  Biso   1.000  C
  C102     1.0000 0.23900  0.28000  0.11330  Biso   1.000  C
  C103     1.0000 0.26100  0.72000  0.61330  Biso   1.000  C
  C104     1.0000 0.76100  0.78000  0.88670  Biso   1.000  C
  C105     1.0000 0.06000  0.75000  0.64860  Biso   1.000  C
  C106     1.0000 0.56000  0.75000  0.85140  Biso   1.000  C
  C107     1.0000 0.94000  0.25000  0.35140  Biso   1.000  C
  C108     1.0000 0.44000  0.25000  0.14860  Biso   1.000  C
  H1       1.0000 0.20510  0.91790  0.51510  Biso   1.000  H
  H2       1.0000 0.70510  0.58210  0.98490  Biso   1.000  H
  H3       1.0000 0.79490  0.41790  0.48490  Biso   1.000  H
  H4       1.0000 0.29490  0.08210  0.01510  Biso   1.000  H
  H5       1.0000 0.79490  0.08210  0.48490  Biso   1.000  H
  H6       1.0000 0.29490  0.41790  0.01510  Biso   1.000  H
  H7       1.0000 0.20510  0.58210  0.51510  Biso   1.000  H
  H8       1.0000 0.70510  0.91790  0.98490  Biso   1.000  H
  H9       1.0000 0.63650  0.72500  0.60110  Biso   1.000  H
  H10      1.0000 0.13650  0.77500  0.89890  Biso   1.000  H
  H11      1.0000 0.36350  0.22500  0.39890  Biso   1.000  H
  H12      1.0000 0.86350  0.27500  0.10110  Biso   1.000  H
  H13      1.0000 0.36350  0.27500  0.39890  Biso   1.000  H
  H14      1.0000 0.86350  0.22500  0.10110  Biso   1.000  H
  H15      1.0000 0.63650  0.77500  0.60110  Biso   1.000  H
  H16      1.0000 0.13650  0.72500  0.89890  Biso   1.000  H
  H17      1.0000 0.55120  0.72360  0.51870  Biso   1.000  H
  H18      1.0000 0.05120  0.77640  0.98130  Biso   1.000  H
  H19      1.0000 0.44880  0.22360  0.48130  Biso   1.000  H
  H20      1.0000 0.94880  0.27640  0.01870  Biso   1.000  H
  H21      1.0000 0.44880  0.27640  0.48130  Biso   1.000  H
  H22      1.0000 0.94880  0.22360  0.01870  Biso   1.000  H
  H23      1.0000 0.55120  0.77640  0.51870  Biso   1.000  H
  H24      1.0000 0.05120  0.72360  0.98130  Biso   1.000  H
  H25      1.0000 0.66160  0.78390  0.54740  Biso   1.000  H
  H26      1.0000 0.16160  0.71610  0.95260  Biso   1.000  H
  H27      1.0000 0.33840  0.28390  0.45260  Biso   1.000  H
  H28      1.0000 0.83840  0.21610  0.04740  Biso   1.000  H
  H29      1.0000 0.33840  0.21610  0.45260  Biso   1.000  H
  H30      1.0000 0.83840  0.28390  0.04740  Biso   1.000  H
  H31      1.0000 0.66160  0.71610  0.54740  Biso   1.000  H
  H32      1.0000 0.16160  0.78390  0.95260  Biso   1.000  H
  H33      1.0000 0.28730  0.94400  0.76600  Biso   1.000  H
  H34      1.0000 0.78730  0.55600  0.73400  Biso   1.000  H
  H35      1.0000 0.71270  0.44400  0.23400  Biso   1.000  H
  H36      1.0000 0.21270  0.05600  0.26600  Biso   1.000  H
  H37      1.0000 0.71270  0.05600  0.23400  Biso   1.000  H
  H38      1.0000 0.21270  0.44400  0.26600  Biso   1.000  H
  H39      1.0000 0.28730  0.55600  0.76600  Biso   1.000  H
  H40      1.0000 0.78730  0.94400  0.73400  Biso   1.000  H
  H41      1.0000 0.30890  0.04940  0.81190  Biso   1.000  H
  H42      1.0000 0.80890  0.45060  0.68810  Biso   1.000  H
  H43      1.0000 0.69110  0.54940  0.18810  Biso   1.000  H
  H44      1.0000 0.19110  0.95060  0.31190  Biso   1.000  H
  H45      1.0000 0.69110  0.95060  0.18810  Biso   1.000  H
  H46      1.0000 0.19110  0.54940  0.31190  Biso   1.000  H
  H47      1.0000 0.30890  0.45060  0.81190  Biso   1.000  H
  H48      1.0000 0.80890  0.04940  0.68810  Biso   1.000  H
  H49      1.0000 0.35800  0.13370  0.72430  Biso   1.000  H
  H50      1.0000 0.85800  0.36630  0.77570  Biso   1.000  H
  H51      1.0000 0.64200  0.63370  0.27570  Biso   1.000  H
  H52      1.0000 0.14200  0.86630  0.22430  Biso   1.000  H
  H53      1.0000 0.64200  0.86630  0.27570  Biso   1.000  H
  H54      1.0000 0.14200  0.63370  0.22430  Biso   1.000  H
  H55      1.0000 0.35800  0.36630  0.72430  Biso   1.000  H
  H56      1.0000 0.85800  0.13370  0.77570  Biso   1.000  H
  H57      1.0000 0.40680  0.10930  0.59520  Biso   1.000  H
  H58      1.0000 0.90680  0.39070  0.90480  Biso   1.000  H
  H59      1.0000 0.59320  0.60930  0.40480  Biso   1.000  H
  H60      1.0000 0.09320  0.89070  0.09520  Biso   1.000  H
  H61      1.0000 0.59320  0.89070  0.40480  Biso   1.000  H
  H62      1.0000 0.09320  0.60930  0.09520  Biso   1.000  H
  H63      1.0000 0.40680  0.39070  0.59520  Biso   1.000  H
  H64      1.0000 0.90680  0.10930  0.90480  Biso   1.000  H
  H65      1.0000 0.97240  0.78380  0.66050  Biso   1.000  H
  H66      1.0000 0.47240  0.71620  0.83950  Biso   1.000  H
  H67      1.0000 0.02760  0.28380  0.33950  Biso   1.000  H
  H68      1.0000 0.52760  0.21620  0.16050  Biso   1.000  H
  H69      1.0000 0.02760  0.21620  0.33950  Biso   1.000  H
  H70      1.0000 0.52760  0.28380  0.16050  Biso   1.000  H
  H71      1.0000 0.97240  0.71620  0.66050  Biso   1.000  H
  H72      1.0000 0.47240  0.78380  0.83950  Biso   1.000  H
  H73      1.0000 0.00260  0.72210  0.61190  Biso   1.000  H
  H74      1.0000 0.50260  0.77790  0.88810  Biso   1.000  H
  H75      1.0000 0.99740  0.22210  0.38810  Biso   1.000  H
  H76      1.0000 0.49740  0.27790  0.11190  Biso   1.000  H
  H77      1.0000 0.99740  0.27790  0.38810  Biso   1.000  H
  H78      1.0000 0.49740  0.22210  0.11190  Biso   1.000  H
  H79      1.0000 0.00260  0.77790  0.61190  Biso   1.000  H
  H80      1.0000 0.50260  0.72210  0.88810  Biso   1.000  H
  H81      1.0000 0.08810  0.72650  0.69410  Biso   1.000  H
  H82      1.0000 0.58810  0.77350  0.80590  Biso   1.000  H
  H83      1.0000 0.91190  0.22650  0.30590  Biso   1.000  H
  H84      1.0000 0.41190  0.27350  0.19410  Biso   1.000  H
  H85      1.0000 0.91190  0.27350  0.30590  Biso   1.000  H
  H86      1.0000 0.41190  0.22650  0.19410  Biso   1.000  H
  H87      1.0000 0.08810  0.77350  0.69410  Biso   1.000  H
  H88      1.0000 0.58810  0.72650  0.80590  Biso   1.000  H
