data_image0
_cell_length_a       14.079
_cell_length_b       8.884
_cell_length_c       23.287
_cell_angle_alpha    90
_cell_angle_beta     115.758
_cell_angle_gamma    90

_symmetry_space_group_name_H-M    "P 1"
_symmetry_int_tables_number       1

loop_
  _symmetry_equiv_pos_as_xyz
  'x, y, z'

loop_
  _atom_site_label
  _atom_site_occupancy
  _atom_site_fract_x
  _atom_site_fract_y
  _atom_site_fract_z
  _atom_site_thermal_displace_type
  _atom_site_B_iso_or_equiv
  _atom_site_type_symbol
  Cu1      1.0000 0.00000  0.50000  0.00000  Biso   1.000  Cu
  Cu2      1.0000 0.50000  0.00000  0.00000  Biso   1.000  Cu
  Cu3      1.0000 1.00000  0.50000  0.50000  Biso   1.000  Cu
  Cu4      1.0000 0.50000  0.00000  0.50000  Biso   1.000  Cu
  Cl1      1.0000 0.15907  0.60750  0.04888  Biso   1.000  Cl
  Cl2      1.0000 0.65907  0.10750  0.04888  Biso   1.000  Cl
  Cl3      1.0000 0.84093  0.60750  0.45112  Biso   1.000  Cl
  Cl4      1.0000 0.34093  0.10750  0.45112  Biso   1.000  Cl
  Cl5      1.0000 0.84093  0.39250  0.95112  Biso   1.000  Cl
  Cl6      1.0000 0.34093  0.89250  0.95112  Biso   1.000  Cl
  Cl7      1.0000 0.15907  0.39250  0.54888  Biso   1.000  Cl
  Cl8      1.0000 0.65907  0.89250  0.54888  Biso   1.000  Cl
  S1       1.0000 0.92038  0.18630  0.12525  Biso   1.000  S
  S2       1.0000 0.42038  0.68630  0.12525  Biso   1.000  S
  S3       1.0000 0.07962  0.18630  0.37475  Biso   1.000  S
  S4       1.0000 0.57962  0.68630  0.37475  Biso   1.000  S
  S5       1.0000 0.07962  0.81370  0.87475  Biso   1.000  S
  S6       1.0000 0.57962  0.31370  0.87475  Biso   1.000  S
  S7       1.0000 0.92038  0.81370  0.62525  Biso   1.000  S
  S8       1.0000 0.42038  0.31370  0.62525  Biso   1.000  S
  F1       1.0000 0.08130  0.92650  0.26200  Biso   1.000  F
  F2       1.0000 0.58130  0.42650  0.26200  Biso   1.000  F
  F3       1.0000 0.91870  0.92650  0.23800  Biso   1.000  F
  F4       1.0000 0.41870  0.42650  0.23800  Biso   1.000  F
  F5       1.0000 0.91870  0.07350  0.73800  Biso   1.000  F
  F6       1.0000 0.41870  0.57350  0.73800  Biso   1.000  F
  F7       1.0000 0.08130  0.07350  0.76200  Biso   1.000  F
  F8       1.0000 0.58130  0.57350  0.76200  Biso   1.000  F
  F9       1.0000 0.88380  0.75890  0.14580  Biso   1.000  F
  F10      1.0000 0.38380  0.25890  0.14580  Biso   1.000  F
  F11      1.0000 0.11620  0.75890  0.35420  Biso   1.000  F
  F12      1.0000 0.61620  0.25890  0.35420  Biso   1.000  F
  F13      1.0000 0.11620  0.24110  0.85420  Biso   1.000  F
  F14      1.0000 0.61620  0.74110  0.85420  Biso   1.000  F
  F15      1.0000 0.88380  0.24110  0.64580  Biso   1.000  F
  F16      1.0000 0.38380  0.74110  0.64580  Biso   1.000  F
  F17      1.0000 0.04810  0.76100  0.16870  Biso   1.000  F
  F18      1.0000 0.54810  0.26100  0.16870  Biso   1.000  F
  F19      1.0000 0.95190  0.76100  0.33130  Biso   1.000  F
  F20      1.0000 0.45190  0.26100  0.33130  Biso   1.000  F
  F21      1.0000 0.95190  0.23900  0.83130  Biso   1.000  F
  F22      1.0000 0.45190  0.73900  0.83130  Biso   1.000  F
  F23      1.0000 0.04810  0.23900  0.66870  Biso   1.000  F
  F24      1.0000 0.54810  0.73900  0.66870  Biso   1.000  F
  N1       1.0000 0.06780  0.29900  0.02640  Biso   1.000  N
  N2       1.0000 0.56780  0.79900  0.02640  Biso   1.000  N
  N3       1.0000 0.93220  0.29900  0.47360  Biso   1.000  N
  N4       1.0000 0.43220  0.79900  0.47360  Biso   1.000  N
  N5       1.0000 0.93220  0.70100  0.97360  Biso   1.000  N
  N6       1.0000 0.43220  0.20100  0.97360  Biso   1.000  N
  N7       1.0000 0.06780  0.70100  0.52640  Biso   1.000  N
  N8       1.0000 0.56780  0.20100  0.52640  Biso   1.000  N
  C1       1.0000 0.00000  0.83790  0.25000  Biso   1.000  C
  C2       1.0000 0.50000  0.33790  0.25000  Biso   1.000  C
  C3       1.0000 0.00000  0.16210  0.75000  Biso   1.000  C
  C4       1.0000 0.50000  0.66210  0.75000  Biso   1.000  C
  C5       1.0000 0.98060  0.73280  0.19380  Biso   1.000  C
  C6       1.0000 0.48060  0.23280  0.19380  Biso   1.000  C
  C7       1.0000 0.01940  0.73280  0.30620  Biso   1.000  C
  C8       1.0000 0.51940  0.23280  0.30620  Biso   1.000  C
  C9       1.0000 0.01940  0.26720  0.80620  Biso   1.000  C
  C10      1.0000 0.51940  0.76720  0.80620  Biso   1.000  C
  C11      1.0000 0.98060  0.26720  0.69380  Biso   1.000  C
  C12      1.0000 0.48060  0.76720  0.69380  Biso   1.000  C
  C13      1.0000 0.98970  0.57510  0.21890  Biso   1.000  C
  C14      1.0000 0.48970  0.07510  0.21890  Biso   1.000  C
  C15      1.0000 0.01030  0.57510  0.28110  Biso   1.000  C
  C16      1.0000 0.51030  0.07510  0.28110  Biso   1.000  C
  C17      1.0000 0.01030  0.42490  0.78110  Biso   1.000  C
  C18      1.0000 0.51030  0.92490  0.78110  Biso   1.000  C
  C19      1.0000 0.98970  0.42490  0.71890  Biso   1.000  C
  C20      1.0000 0.48970  0.92490  0.71890  Biso   1.000  C
  C21      1.0000 0.90880  0.32610  0.17270  Biso   1.000  C
  C22      1.0000 0.40880  0.82610  0.17270  Biso   1.000  C
  C23      1.0000 0.09120  0.32610  0.32730  Biso   1.000  C
  C24      1.0000 0.59120  0.82610  0.32730  Biso   1.000  C
  C25      1.0000 0.09120  0.67390  0.82730  Biso   1.000  C
  C26      1.0000 0.59120  0.17390  0.82730  Biso   1.000  C
  C27      1.0000 0.90880  0.67390  0.67270  Biso   1.000  C
  C28      1.0000 0.40880  0.17390  0.67270  Biso   1.000  C
  C29      1.0000 0.97420  0.44470  0.17710  Biso   1.000  C
  C30      1.0000 0.47420  0.94470  0.17710  Biso   1.000  C
  C31      1.0000 0.02580  0.44470  0.32290  Biso   1.000  C
  C32      1.0000 0.52580  0.94470  0.32290  Biso   1.000  C
  C33      1.0000 0.02580  0.55530  0.82290  Biso   1.000  C
  C34      1.0000 0.52580  0.05530  0.82290  Biso   1.000  C
  C35      1.0000 0.97420  0.55530  0.67710  Biso   1.000  C
  C36      1.0000 0.47420  0.05530  0.67710  Biso   1.000  C
  C37      1.0000 0.03280  0.42250  0.14050  Biso   1.000  C
  C38      1.0000 0.53280  0.92250  0.14050  Biso   1.000  C
  C39      1.0000 0.96720  0.42250  0.35950  Biso   1.000  C
  C40      1.0000 0.46720  0.92250  0.35950  Biso   1.000  C
  C41      1.0000 0.96720  0.57750  0.85950  Biso   1.000  C
  C42      1.0000 0.46720  0.07750  0.85950  Biso   1.000  C
  C43      1.0000 0.03280  0.57750  0.64050  Biso   1.000  C
  C44      1.0000 0.53280  0.07750  0.64050  Biso   1.000  C
  C45      1.0000 0.01320  0.28460  0.11120  Biso   1.000  C
  C46      1.0000 0.51320  0.78460  0.11120  Biso   1.000  C
  C47      1.0000 0.98680  0.28460  0.38880  Biso   1.000  C
  C48      1.0000 0.48680  0.78460  0.38880  Biso   1.000  C
  C49      1.0000 0.98680  0.71540  0.88880  Biso   1.000  C
  C50      1.0000 0.48680  0.21540  0.88880  Biso   1.000  C
  C51      1.0000 0.01320  0.71540  0.61120  Biso   1.000  C
  C52      1.0000 0.51320  0.21540  0.61120  Biso   1.000  C
  C53      1.0000 0.83220  0.30720  0.20100  Biso   1.000  C
  C54      1.0000 0.33220  0.80720  0.20100  Biso   1.000  C
  C55      1.0000 0.16780  0.30720  0.29900  Biso   1.000  C
  C56      1.0000 0.66780  0.80720  0.29900  Biso   1.000  C
  C57      1.0000 0.16780  0.69280  0.79900  Biso   1.000  C
  C58      1.0000 0.66780  0.19280  0.79900  Biso   1.000  C
  C59      1.0000 0.83220  0.69280  0.70100  Biso   1.000  C
  C60      1.0000 0.33220  0.19280  0.70100  Biso   1.000  C
  C61      1.0000 0.06170  0.21520  0.07290  Biso   1.000  C
  C62      1.0000 0.56170  0.71520  0.07290  Biso   1.000  C
  C63      1.0000 0.93830  0.21520  0.42710  Biso   1.000  C
  C64      1.0000 0.43830  0.71520  0.42710  Biso   1.000  C
  C65      1.0000 0.93830  0.78480  0.92710  Biso   1.000  C
  C66      1.0000 0.43830  0.28480  0.92710  Biso   1.000  C
  C67      1.0000 0.06170  0.78480  0.57290  Biso   1.000  C
  C68      1.0000 0.56170  0.28480  0.57290  Biso   1.000  C
  C69      1.0000 0.10190  0.07020  0.08480  Biso   1.000  C
  C70      1.0000 0.60190  0.57020  0.08480  Biso   1.000  C
  C71      1.0000 0.89810  0.07020  0.41520  Biso   1.000  C
  C72      1.0000 0.39810  0.57020  0.41520  Biso   1.000  C
  C73      1.0000 0.89810  0.92980  0.91520  Biso   1.000  C
  C74      1.0000 0.39810  0.42980  0.91520  Biso   1.000  C
  C75      1.0000 0.10190  0.92980  0.58480  Biso   1.000  C
  C76      1.0000 0.60190  0.42980  0.58480  Biso   1.000  C
  C77      1.0000 0.14980  0.00990  0.04880  Biso   1.000  C
  C78      1.0000 0.64980  0.50990  0.04880  Biso   1.000  C
  C79      1.0000 0.85020  0.00990  0.45120  Biso   1.000  C
  C80      1.0000 0.35020  0.50990  0.45120  Biso   1.000  C
  C81      1.0000 0.85020  0.99010  0.95120  Biso   1.000  C
  C82      1.0000 0.35020  0.49010  0.95120  Biso   1.000  C
  C83      1.0000 0.14980  0.99010  0.54880  Biso   1.000  C
  C84      1.0000 0.64980  0.49010  0.54880  Biso   1.000  C
  C85      1.0000 0.15750  0.09790  0.00190  Biso   1.000  C
  C86      1.0000 0.65750  0.59790  0.00190  Biso   1.000  C
  C87      1.0000 0.84250  0.09790  0.49810  Biso   1.000  C
  C88      1.0000 0.34250  0.59790  0.49810  Biso   1.000  C
  C89      1.0000 0.84250  0.90210  0.99810  Biso   1.000  C
  C90      1.0000 0.34250  0.40210  0.99810  Biso   1.000  C
  C91      1.0000 0.15750  0.90210  0.50190  Biso   1.000  C
  C92      1.0000 0.65750  0.40210  0.50190  Biso   1.000  C
  C93      1.0000 0.11630  0.24100  0.99260  Biso   1.000  C
  C94      1.0000 0.61630  0.74100  0.99260  Biso   1.000  C
  C95      1.0000 0.88370  0.24100  0.50740  Biso   1.000  C
  C96      1.0000 0.38370  0.74100  0.50740  Biso   1.000  C
  C97      1.0000 0.88370  0.75900  0.00740  Biso   1.000  C
  C98      1.0000 0.38370  0.25900  0.00740  Biso   1.000  C
  C99      1.0000 0.11630  0.75900  0.49260  Biso   1.000  C
  C100     1.0000 0.61630  0.25900  0.49260  Biso   1.000  C
  H1       1.0000 0.07960  0.49490  0.13680  Biso   1.000  H
  H2       1.0000 0.57960  0.99490  0.13680  Biso   1.000  H
  H3       1.0000 0.92040  0.49490  0.36320  Biso   1.000  H
  H4       1.0000 0.42040  0.99490  0.36320  Biso   1.000  H
  H5       1.0000 0.92040  0.50510  0.86320  Biso   1.000  H
  H6       1.0000 0.42040  0.00510  0.86320  Biso   1.000  H
  H7       1.0000 0.07960  0.50510  0.63680  Biso   1.000  H
  H8       1.0000 0.57960  0.00510  0.63680  Biso   1.000  H
  H9       1.0000 0.78080  0.38510  0.18600  Biso   1.000  H
  H10      1.0000 0.28080  0.88510  0.18600  Biso   1.000  H
  H11      1.0000 0.21920  0.38510  0.31400  Biso   1.000  H
  H12      1.0000 0.71920  0.88510  0.31400  Biso   1.000  H
  H13      1.0000 0.21920  0.61490  0.81400  Biso   1.000  H
  H14      1.0000 0.71920  0.11490  0.81400  Biso   1.000  H
  H15      1.0000 0.78080  0.61490  0.68600  Biso   1.000  H
  H16      1.0000 0.28080  0.11490  0.68600  Biso   1.000  H
  H17      1.0000 0.86880  0.31270  0.24620  Biso   1.000  H
  H18      1.0000 0.36880  0.81270  0.24620  Biso   1.000  H
  H19      1.0000 0.13120  0.31270  0.25380  Biso   1.000  H
  H20      1.0000 0.63120  0.81270  0.25380  Biso   1.000  H
  H21      1.0000 0.13120  0.68730  0.75380  Biso   1.000  H
  H22      1.0000 0.63120  0.18730  0.75380  Biso   1.000  H
  H23      1.0000 0.86880  0.68730  0.74620  Biso   1.000  H
  H24      1.0000 0.36880  0.18730  0.74620  Biso   1.000  H
  H25      1.0000 0.79820  0.21230  0.18900  Biso   1.000  H
  H26      1.0000 0.29820  0.71230  0.18900  Biso   1.000  H
  H27      1.0000 0.20180  0.21230  0.31100  Biso   1.000  H
  H28      1.0000 0.70180  0.71230  0.31100  Biso   1.000  H
  H29      1.0000 0.20180  0.78770  0.81100  Biso   1.000  H
  H30      1.0000 0.70180  0.28770  0.81100  Biso   1.000  H
  H31      1.0000 0.79820  0.78770  0.68900  Biso   1.000  H
  H32      1.0000 0.29820  0.28770  0.68900  Biso   1.000  H
  H33      1.0000 0.09690  0.01210  0.11760  Biso   1.000  H
  H34      1.0000 0.59690  0.51210  0.11760  Biso   1.000  H
  H35      1.0000 0.90310  0.01210  0.38240  Biso   1.000  H
  H36      1.0000 0.40310  0.51210  0.38240  Biso   1.000  H
  H37      1.0000 0.90310  0.98790  0.88240  Biso   1.000  H
  H38      1.0000 0.40310  0.48790  0.88240  Biso   1.000  H
  H39      1.0000 0.09690  0.98790  0.61760  Biso   1.000  H
  H40      1.0000 0.59690  0.48790  0.61760  Biso   1.000  H
  H41      1.0000 0.17670  0.91010  0.05630  Biso   1.000  H
  H42      1.0000 0.67670  0.41010  0.05630  Biso   1.000  H
  H43      1.0000 0.82330  0.91010  0.44370  Biso   1.000  H
  H44      1.0000 0.32330  0.41010  0.44370  Biso   1.000  H
  H45      1.0000 0.82330  0.08990  0.94370  Biso   1.000  H
  H46      1.0000 0.32330  0.58990  0.94370  Biso   1.000  H
  H47      1.0000 0.17670  0.08990  0.55630  Biso   1.000  H
  H48      1.0000 0.67670  0.58990  0.55630  Biso   1.000  H
  H49      1.0000 0.19060  0.06000  0.97690  Biso   1.000  H
  H50      1.0000 0.69060  0.56000  0.97690  Biso   1.000  H
  H51      1.0000 0.80940  0.06000  0.52310  Biso   1.000  H
  H52      1.0000 0.30940  0.56000  0.52310  Biso   1.000  H
  H53      1.0000 0.80940  0.94000  0.02310  Biso   1.000  H
  H54      1.0000 0.30940  0.44000  0.02310  Biso   1.000  H
  H55      1.0000 0.19060  0.94000  0.47690  Biso   1.000  H
  H56      1.0000 0.69060  0.44000  0.47690  Biso   1.000  H
  H57      1.0000 0.12200  0.30200  0.96060  Biso   1.000  H
  H58      1.0000 0.62200  0.80200  0.96060  Biso   1.000  H
  H59      1.0000 0.87800  0.30200  0.53940  Biso   1.000  H
  H60      1.0000 0.37800  0.80200  0.53940  Biso   1.000  H
  H61      1.0000 0.87800  0.69800  0.03940  Biso   1.000  H
  H62      1.0000 0.37800  0.19800  0.03940  Biso   1.000  H
  H63      1.0000 0.12200  0.69800  0.46060  Biso   1.000  H
  H64      1.0000 0.62200  0.19800  0.46060  Biso   1.000  H
