data_image0
_cell_length_a       8.6406
_cell_length_b       9.3336
_cell_length_c       13.3911
_cell_angle_alpha    90
_cell_angle_beta     102.719
_cell_angle_gamma    90

_symmetry_space_group_name_H-M    "P 1"
_symmetry_int_tables_number       1

loop_
  _symmetry_equiv_pos_as_xyz
  'x, y, z'

loop_
  _atom_site_label
  _atom_site_occupancy
  _atom_site_fract_x
  _atom_site_fract_y
  _atom_site_fract_z
  _atom_site_thermal_displace_type
  _atom_site_B_iso_or_equiv
  _atom_site_type_symbol
  Cu1      1.0000 0.00000  0.50000  0.50000  Biso   1.000  Cu
  Cu2      1.0000 0.50000  0.00000  0.00000  Biso   1.000  Cu
  S1       1.0000 0.00056  0.22448  0.21971  Biso   1.000  S
  S2       1.0000 0.49944  0.72448  0.28029  Biso   1.000  S
  S3       1.0000 0.99944  0.77552  0.78029  Biso   1.000  S
  S4       1.0000 0.50056  0.27552  0.71971  Biso   1.000  S
  O1       1.0000 0.13135  0.65974  0.47590  Biso   1.000  O
  O2       1.0000 0.36865  0.15974  0.02410  Biso   1.000  O
  O3       1.0000 0.86865  0.34026  0.52410  Biso   1.000  O
  O4       1.0000 0.63135  0.84026  0.97590  Biso   1.000  O
  O5       1.0000 0.89859  0.71204  0.37600  Biso   1.000  O
  O6       1.0000 0.60141  0.21204  0.12400  Biso   1.000  O
  O7       1.0000 0.10141  0.28796  0.62400  Biso   1.000  O
  O8       1.0000 0.39859  0.78796  0.87600  Biso   1.000  O
  N1       1.0000 0.04630  0.39033  0.37945  Biso   1.000  N
  N2       1.0000 0.45370  0.89033  0.12055  Biso   1.000  N
  N3       1.0000 0.95370  0.60967  0.62055  Biso   1.000  N
  N4       1.0000 0.54630  0.10967  0.87945  Biso   1.000  N
  N5       1.0000 0.78560  0.38830  0.28078  Biso   1.000  N
  N6       1.0000 0.71440  0.88830  0.21922  Biso   1.000  N
  N7       1.0000 0.21440  0.61170  0.71922  Biso   1.000  N
  N8       1.0000 0.28560  0.11170  0.78078  Biso   1.000  N
  H1       1.0000 0.72500  0.34400  0.23600  Biso   1.000  H
  H2       1.0000 0.77500  0.84400  0.26400  Biso   1.000  H
  H3       1.0000 0.27500  0.65600  0.76400  Biso   1.000  H
  H4       1.0000 0.22500  0.15600  0.73600  Biso   1.000  H
  H5       1.0000 0.75800  0.45000  0.31500  Biso   1.000  H
  H6       1.0000 0.74200  0.95000  0.18500  Biso   1.000  H
  H7       1.0000 0.24200  0.55000  0.68500  Biso   1.000  H
  H8       1.0000 0.25800  0.05000  0.81500  Biso   1.000  H
  C1       1.0000 0.93650  0.34600  0.30151  Biso   1.000  C
  C2       1.0000 0.56350  0.84600  0.19849  Biso   1.000  C
  C3       1.0000 0.06350  0.65400  0.69849  Biso   1.000  C
  C4       1.0000 0.43650  0.15400  0.80151  Biso   1.000  C
  C5       1.0000 0.19130  0.23280  0.29717  Biso   1.000  C
  C6       1.0000 0.30870  0.73280  0.20283  Biso   1.000  C
  C7       1.0000 0.80870  0.76720  0.70283  Biso   1.000  C
  C8       1.0000 0.69130  0.26720  0.79717  Biso   1.000  C
  C9       1.0000 0.32550  0.15920  0.28626  Biso   1.000  C
  C10      1.0000 0.17450  0.65920  0.21374  Biso   1.000  C
  C11      1.0000 0.67450  0.84080  0.71374  Biso   1.000  C
  C12      1.0000 0.82550  0.34080  0.78626  Biso   1.000  C
  H9       1.0000 0.32190  0.09420  0.23320  Biso   1.000  H
  H10      1.0000 0.17810  0.59420  0.26680  Biso   1.000  H
  H11      1.0000 0.67810  0.90580  0.76680  Biso   1.000  H
  H12      1.0000 0.82190  0.40580  0.73320  Biso   1.000  H
  C13      1.0000 0.46510  0.18550  0.35690  Biso   1.000  C
  C14      1.0000 0.03490  0.68550  0.14310  Biso   1.000  C
  C15      1.0000 0.53490  0.81450  0.64310  Biso   1.000  C
  C16      1.0000 0.96510  0.31450  0.85690  Biso   1.000  C
  H13      1.0000 0.55710  0.13720  0.35150  Biso   1.000  H
  H14      1.0000 0.94290  0.63720  0.14850  Biso   1.000  H
  H15      1.0000 0.44290  0.86280  0.64850  Biso   1.000  H
  H16      1.0000 0.05710  0.36280  0.85150  Biso   1.000  H
  C17      1.0000 0.47000  0.28280  0.43568  Biso   1.000  C
  C18      1.0000 0.03000  0.78280  0.06432  Biso   1.000  C
  C19      1.0000 0.53000  0.71720  0.56432  Biso   1.000  C
  C20      1.0000 0.97000  0.21720  0.93568  Biso   1.000  C
  H17      1.0000 0.56580  0.30000  0.48150  Biso   1.000  H
  H18      1.0000 0.93420  0.80000  0.01850  Biso   1.000  H
  H19      1.0000 0.43420  0.70000  0.51850  Biso   1.000  H
  H20      1.0000 0.06580  0.20000  0.98150  Biso   1.000  H
  C21      1.0000 0.33550  0.35460  0.44750  Biso   1.000  C
  C22      1.0000 0.16450  0.85460  0.05250  Biso   1.000  C
  C23      1.0000 0.66450  0.64540  0.55250  Biso   1.000  C
  C24      1.0000 0.83550  0.14540  0.94750  Biso   1.000  C
  H21      1.0000 0.33980  0.41880  0.50120  Biso   1.000  H
  H22      1.0000 0.16020  0.91880  0.99880  Biso   1.000  H
  H23      1.0000 0.66020  0.58120  0.49880  Biso   1.000  H
  H24      1.0000 0.83980  0.08120  0.00120  Biso   1.000  H
  C25      1.0000 0.19380  0.32912  0.37767  Biso   1.000  C
  C26      1.0000 0.30620  0.82912  0.12233  Biso   1.000  C
  C27      1.0000 0.80620  0.67088  0.62233  Biso   1.000  C
  C28      1.0000 0.69380  0.17088  0.87767  Biso   1.000  C
  C29      1.0000 0.03810  0.74509  0.41719  Biso   1.000  C
  C30      1.0000 0.46190  0.24509  0.08281  Biso   1.000  C
  C31      1.0000 0.96190  0.25491  0.58281  Biso   1.000  C
  C32      1.0000 0.53810  0.75491  0.91719  Biso   1.000  C
  C33      1.0000 0.10130  0.89330  0.40543  Biso   1.000  C
  C34      1.0000 0.39870  0.39330  0.09457  Biso   1.000  C
  C35      1.0000 0.89870  0.10670  0.59457  Biso   1.000  C
  C36      1.0000 0.60130  0.60670  0.90543  Biso   1.000  C
  H25      1.0000 0.04190  0.93650  0.34270  Biso   1.000  H
  H26      1.0000 0.45810  0.43650  0.15730  Biso   1.000  H
  H27      1.0000 0.95810  0.06350  0.65730  Biso   1.000  H
  H28      1.0000 0.54190  0.56350  0.84270  Biso   1.000  H
  H29      1.0000 0.21170  0.88740  0.40120  Biso   1.000  H
  H30      1.0000 0.28830  0.38740  0.09880  Biso   1.000  H
  H31      1.0000 0.78830  0.11260  0.59880  Biso   1.000  H
  H32      1.0000 0.71170  0.61260  0.90120  Biso   1.000  H
  H33      1.0000 0.10340  0.91010  0.33430  Biso   1.000  H
  H34      1.0000 0.39660  0.41010  0.16570  Biso   1.000  H
  H35      1.0000 0.89660  0.08990  0.66570  Biso   1.000  H
  H36      1.0000 0.60340  0.58990  0.83430  Biso   1.000  H
  H37      1.0000 0.20870  0.90130  0.44590  Biso   1.000  H
  H38      1.0000 0.29130  0.40130  0.05410  Biso   1.000  H
  H39      1.0000 0.79130  0.09870  0.55410  Biso   1.000  H
  H40      1.0000 0.70870  0.59870  0.94590  Biso   1.000  H
  C37      1.0000 0.08630  0.98650  0.49760  Biso   1.000  C
  C38      1.0000 0.41370  0.48650  0.00240  Biso   1.000  C
  C39      1.0000 0.91370  0.01350  0.50240  Biso   1.000  C
  C40      1.0000 0.58630  0.51350  0.99760  Biso   1.000  C
  H41      1.0000 0.14030  0.93940  0.56020  Biso   1.000  H
  H42      1.0000 0.35970  0.43940  0.93980  Biso   1.000  H
  H43      1.0000 0.85970  0.06060  0.43980  Biso   1.000  H
  H44      1.0000 0.64030  0.56060  0.06020  Biso   1.000  H
  H45      1.0000 0.13840  0.07770  0.49340  Biso   1.000  H
  H46      1.0000 0.36160  0.57770  0.00660  Biso   1.000  H
  H47      1.0000 0.86160  0.92230  0.50660  Biso   1.000  H
  H48      1.0000 0.63840  0.42230  0.99340  Biso   1.000  H
  C41      1.0000 0.99740  0.00720  0.44280  Biso   1.000  C
  C42      1.0000 0.50260  0.50720  0.05720  Biso   1.000  C
  C43      1.0000 0.00260  0.99280  0.55720  Biso   1.000  C
  C44      1.0000 0.49740  0.49280  0.94280  Biso   1.000  C
  H49      1.0000 0.03420  0.10190  0.42930  Biso   1.000  H
  H50      1.0000 0.46580  0.60190  0.07070  Biso   1.000  H
  H51      1.0000 0.96580  0.89810  0.57070  Biso   1.000  H
  H52      1.0000 0.53420  0.39810  0.92930  Biso   1.000  H
  H53      1.0000 0.88870  0.99730  0.40470  Biso   1.000  H
  H54      1.0000 0.61130  0.49730  0.09530  Biso   1.000  H
  H55      1.0000 0.11130  0.00270  0.59530  Biso   1.000  H
  H56      1.0000 0.38870  0.50270  0.90470  Biso   1.000  H
