data_image0
_cell_length_a       17.5587
_cell_length_b       8.0411
_cell_length_c       15.9135
_cell_angle_alpha    90
_cell_angle_beta     118.9
_cell_angle_gamma    90

_symmetry_space_group_name_H-M    "P 1"
_symmetry_int_tables_number       1

loop_
  _symmetry_equiv_pos_as_xyz
  'x, y, z'

loop_
  _atom_site_label
  _atom_site_occupancy
  _atom_site_fract_x
  _atom_site_fract_y
  _atom_site_fract_z
  _atom_site_thermal_displace_type
  _atom_site_B_iso_or_equiv
  _atom_site_type_symbol
  Cu1      1.0000 0.25000  0.75000  0.50000  Biso   1.000  Cu
  Cu2      1.0000 0.75000  0.25000  0.50000  Biso   1.000  Cu
  Cu3      1.0000 0.75000  0.75000  0.00000  Biso   1.000  Cu
  Cu4      1.0000 0.25000  0.25000  0.00000  Biso   1.000  Cu
  Cl1      1.0000 0.11194  0.68630  0.47426  Biso   1.000  Cl
  Cl2      1.0000 0.61194  0.18630  0.47426  Biso   1.000  Cl
  Cl3      1.0000 0.88806  0.68630  0.02574  Biso   1.000  Cl
  Cl4      1.0000 0.38806  0.18630  0.02574  Biso   1.000  Cl
  Cl5      1.0000 0.88806  0.31370  0.52574  Biso   1.000  Cl
  Cl6      1.0000 0.38806  0.81370  0.52574  Biso   1.000  Cl
  Cl7      1.0000 0.11194  0.31370  0.97426  Biso   1.000  Cl
  Cl8      1.0000 0.61194  0.81370  0.97426  Biso   1.000  Cl
  O1       1.0000 0.22840  0.94610  0.02920  Biso   1.000  O
  O2       1.0000 0.72840  0.44610  0.02920  Biso   1.000  O
  O3       1.0000 0.77160  0.94610  0.47080  Biso   1.000  O
  O4       1.0000 0.27160  0.44610  0.47080  Biso   1.000  O
  O5       1.0000 0.77160  0.05390  0.97080  Biso   1.000  O
  O6       1.0000 0.27160  0.55390  0.97080  Biso   1.000  O
  O7       1.0000 0.22840  0.05390  0.52920  Biso   1.000  O
  O8       1.0000 0.72840  0.55390  0.52920  Biso   1.000  O
  N1       1.0000 0.20670  0.77400  0.35890  Biso   1.000  N
  N2       1.0000 0.70670  0.27400  0.35890  Biso   1.000  N
  N3       1.0000 0.79330  0.77400  0.14110  Biso   1.000  N
  N4       1.0000 0.29330  0.27400  0.14110  Biso   1.000  N
  N5       1.0000 0.79330  0.22600  0.64110  Biso   1.000  N
  N6       1.0000 0.29330  0.72600  0.64110  Biso   1.000  N
  N7       1.0000 0.20670  0.22600  0.85890  Biso   1.000  N
  N8       1.0000 0.70670  0.72600  0.85890  Biso   1.000  N
  N9       1.0000 0.16330  0.70470  0.02380  Biso   1.000  N
  N10      1.0000 0.66330  0.20470  0.02380  Biso   1.000  N
  N11      1.0000 0.83670  0.70470  0.47620  Biso   1.000  N
  N12      1.0000 0.33670  0.20470  0.47620  Biso   1.000  N
  N13      1.0000 0.83670  0.29530  0.97620  Biso   1.000  N
  N14      1.0000 0.33670  0.79530  0.97620  Biso   1.000  N
  N15      1.0000 0.16330  0.29530  0.52380  Biso   1.000  N
  N16      1.0000 0.66330  0.79530  0.52380  Biso   1.000  N
  H1       1.0000 0.16050  0.59800  0.01050  Biso   1.000  H
  H2       1.0000 0.66050  0.09800  0.01050  Biso   1.000  H
  H3       1.0000 0.83950  0.59800  0.48950  Biso   1.000  H
  H4       1.0000 0.33950  0.09800  0.48950  Biso   1.000  H
  H5       1.0000 0.83950  0.40200  0.98950  Biso   1.000  H
  H6       1.0000 0.33950  0.90200  0.98950  Biso   1.000  H
  H7       1.0000 0.16050  0.40200  0.51050  Biso   1.000  H
  H8       1.0000 0.66050  0.90200  0.51050  Biso   1.000  H
  C1       1.0000 0.13550  0.85870  0.30220  Biso   1.000  C
  C2       1.0000 0.63550  0.35870  0.30220  Biso   1.000  C
  C3       1.0000 0.86450  0.85870  0.19780  Biso   1.000  C
  C4       1.0000 0.36450  0.35870  0.19780  Biso   1.000  C
  C5       1.0000 0.86450  0.14130  0.69780  Biso   1.000  C
  C6       1.0000 0.36450  0.64130  0.69780  Biso   1.000  C
  C7       1.0000 0.13550  0.14130  0.80220  Biso   1.000  C
  C8       1.0000 0.63550  0.64130  0.80220  Biso   1.000  C
  H9       1.0000 0.10660  0.91850  0.33010  Biso   1.000  H
  H10      1.0000 0.60660  0.41850  0.33010  Biso   1.000  H
  H11      1.0000 0.89340  0.91850  0.16990  Biso   1.000  H
  H12      1.0000 0.39340  0.41850  0.16990  Biso   1.000  H
  H13      1.0000 0.89340  0.08150  0.66990  Biso   1.000  H
  H14      1.0000 0.39340  0.58150  0.66990  Biso   1.000  H
  H15      1.0000 0.10660  0.08150  0.83010  Biso   1.000  H
  H16      1.0000 0.60660  0.58150  0.83010  Biso   1.000  H
  C9       1.0000 0.10260  0.86300  0.20610  Biso   1.000  C
  C10      1.0000 0.60260  0.36300  0.20610  Biso   1.000  C
  C11      1.0000 0.89740  0.86300  0.29390  Biso   1.000  C
  C12      1.0000 0.39740  0.36300  0.29390  Biso   1.000  C
  C13      1.0000 0.89740  0.13700  0.79390  Biso   1.000  C
  C14      1.0000 0.39740  0.63700  0.79390  Biso   1.000  C
  C15      1.0000 0.10260  0.13700  0.70610  Biso   1.000  C
  C16      1.0000 0.60260  0.63700  0.70610  Biso   1.000  C
  H17      1.0000 0.05170  0.92640  0.16800  Biso   1.000  H
  H18      1.0000 0.55170  0.42640  0.16800  Biso   1.000  H
  H19      1.0000 0.94830  0.92640  0.33200  Biso   1.000  H
  H20      1.0000 0.44830  0.42640  0.33200  Biso   1.000  H
  H21      1.0000 0.94830  0.07360  0.83200  Biso   1.000  H
  H22      1.0000 0.44830  0.57360  0.83200  Biso   1.000  H
  H23      1.0000 0.05170  0.07360  0.66800  Biso   1.000  H
  H24      1.0000 0.55170  0.57360  0.66800  Biso   1.000  H
  C17      1.0000 0.14230  0.77580  0.16180  Biso   1.000  C
  C18      1.0000 0.64230  0.27580  0.16180  Biso   1.000  C
  C19      1.0000 0.85770  0.77580  0.33820  Biso   1.000  C
  C20      1.0000 0.35770  0.27580  0.33820  Biso   1.000  C
  C21      1.0000 0.85770  0.22420  0.83820  Biso   1.000  C
  C22      1.0000 0.35770  0.72420  0.83820  Biso   1.000  C
  C23      1.0000 0.14230  0.22420  0.66180  Biso   1.000  C
  C24      1.0000 0.64230  0.72420  0.66180  Biso   1.000  C
  C25      1.0000 0.21710  0.69060  0.22150  Biso   1.000  C
  C26      1.0000 0.71710  0.19060  0.22150  Biso   1.000  C
  C27      1.0000 0.78290  0.69060  0.27850  Biso   1.000  C
  C28      1.0000 0.28290  0.19060  0.27850  Biso   1.000  C
  C29      1.0000 0.78290  0.30940  0.77850  Biso   1.000  C
  C30      1.0000 0.28290  0.80940  0.77850  Biso   1.000  C
  C31      1.0000 0.21710  0.30940  0.72150  Biso   1.000  C
  C32      1.0000 0.71710  0.80940  0.72150  Biso   1.000  C
  H25      1.0000 0.24840  0.63230  0.19600  Biso   1.000  H
  H26      1.0000 0.74840  0.13230  0.19600  Biso   1.000  H
  H27      1.0000 0.75160  0.63230  0.30400  Biso   1.000  H
  H28      1.0000 0.25160  0.13230  0.30400  Biso   1.000  H
  H29      1.0000 0.75160  0.36770  0.80400  Biso   1.000  H
  H30      1.0000 0.25160  0.86770  0.80400  Biso   1.000  H
  H31      1.0000 0.24840  0.36770  0.69600  Biso   1.000  H
  H32      1.0000 0.74840  0.86770  0.69600  Biso   1.000  H
  C33      1.0000 0.24580  0.69100  0.31830  Biso   1.000  C
  C34      1.0000 0.74580  0.19100  0.31830  Biso   1.000  C
  C35      1.0000 0.75420  0.69100  0.18170  Biso   1.000  C
  C36      1.0000 0.25420  0.19100  0.18170  Biso   1.000  C
  C37      1.0000 0.75420  0.30900  0.68170  Biso   1.000  C
  C38      1.0000 0.25420  0.80900  0.68170  Biso   1.000  C
  C39      1.0000 0.24580  0.30900  0.81830  Biso   1.000  C
  C40      1.0000 0.74580  0.80900  0.81830  Biso   1.000  C
  H33      1.0000 0.29640  0.62860  0.35860  Biso   1.000  H
  H34      1.0000 0.79640  0.12860  0.35860  Biso   1.000  H
  H35      1.0000 0.70360  0.62860  0.14140  Biso   1.000  H
  H36      1.0000 0.20360  0.12860  0.14140  Biso   1.000  H
  H37      1.0000 0.70360  0.37140  0.64140  Biso   1.000  H
  H38      1.0000 0.20360  0.87140  0.64140  Biso   1.000  H
  H39      1.0000 0.29640  0.37140  0.85860  Biso   1.000  H
  H40      1.0000 0.79640  0.87140  0.85860  Biso   1.000  H
  C41      1.0000 0.10430  0.77230  0.05410  Biso   1.000  C
  C42      1.0000 0.60430  0.27230  0.05410  Biso   1.000  C
  C43      1.0000 0.89570  0.77230  0.44590  Biso   1.000  C
  C44      1.0000 0.39570  0.27230  0.44590  Biso   1.000  C
  C45      1.0000 0.89570  0.22770  0.94590  Biso   1.000  C
  C46      1.0000 0.39570  0.72770  0.94590  Biso   1.000  C
  C47      1.0000 0.10430  0.22770  0.55410  Biso   1.000  C
  C48      1.0000 0.60430  0.72770  0.55410  Biso   1.000  C
  H41      1.0000 0.05040  0.70470  0.02600  Biso   1.000  H
  H42      1.0000 0.55040  0.20470  0.02600  Biso   1.000  H
  H43      1.0000 0.94960  0.70470  0.47400  Biso   1.000  H
  H44      1.0000 0.44960  0.20470  0.47400  Biso   1.000  H
  H45      1.0000 0.94960  0.29530  0.97400  Biso   1.000  H
  H46      1.0000 0.44960  0.79530  0.97400  Biso   1.000  H
  H47      1.0000 0.05040  0.29530  0.52600  Biso   1.000  H
  H48      1.0000 0.55040  0.79530  0.52600  Biso   1.000  H
  H49      1.0000 0.08830  0.88690  0.02900  Biso   1.000  H
  H50      1.0000 0.58830  0.38690  0.02900  Biso   1.000  H
  H51      1.0000 0.91170  0.88690  0.47100  Biso   1.000  H
  H52      1.0000 0.41170  0.38690  0.47100  Biso   1.000  H
  H53      1.0000 0.91170  0.11310  0.97100  Biso   1.000  H
  H54      1.0000 0.41170  0.61310  0.97100  Biso   1.000  H
  H55      1.0000 0.08830  0.11310  0.52900  Biso   1.000  H
  H56      1.0000 0.58830  0.61310  0.52900  Biso   1.000  H
  C49      1.0000 0.22080  0.79700  0.01550  Biso   1.000  C
  C50      1.0000 0.72080  0.29700  0.01550  Biso   1.000  C
  C51      1.0000 0.77920  0.79700  0.48450  Biso   1.000  C
  C52      1.0000 0.27920  0.29700  0.48450  Biso   1.000  C
  C53      1.0000 0.77920  0.20300  0.98450  Biso   1.000  C
  C54      1.0000 0.27920  0.70300  0.98450  Biso   1.000  C
  C55      1.0000 0.22080  0.20300  0.51550  Biso   1.000  C
  C56      1.0000 0.72080  0.70300  0.51550  Biso   1.000  C
  O9       1.0000 0.01840  0.27210  0.27150  Biso   1.000  O
  O10      1.0000 0.51840  0.77210  0.27150  Biso   1.000  O
  O11      1.0000 0.98160  0.27210  0.22850  Biso   1.000  O
  O12      1.0000 0.48160  0.77210  0.22850  Biso   1.000  O
  O13      1.0000 0.98160  0.72790  0.72850  Biso   1.000  O
  O14      1.0000 0.48160  0.22790  0.72850  Biso   1.000  O
  O15      1.0000 0.01840  0.72790  0.77150  Biso   1.000  O
  O16      1.0000 0.51840  0.22790  0.77150  Biso   1.000  O
  H57      1.0000 0.02570  0.26740  0.32860  Biso   1.000  H
  H58      1.0000 0.52570  0.76740  0.32860  Biso   1.000  H
  H59      1.0000 0.97430  0.26740  0.17140  Biso   1.000  H
  H60      1.0000 0.47430  0.76740  0.17140  Biso   1.000  H
  H61      1.0000 0.97430  0.73260  0.67140  Biso   1.000  H
  H62      1.0000 0.47430  0.23260  0.67140  Biso   1.000  H
  H63      1.0000 0.02570  0.73260  0.82860  Biso   1.000  H
  H64      1.0000 0.52570  0.23260  0.82860  Biso   1.000  H
  C57      1.0000 0.06010  0.40800  0.22890  Biso   1.000  C
  C58      1.0000 0.56010  0.90800  0.22890  Biso   1.000  C
  C59      1.0000 0.93990  0.40800  0.27110  Biso   1.000  C
  C60      1.0000 0.43990  0.90800  0.27110  Biso   1.000  C
  C61      1.0000 0.93990  0.59200  0.77110  Biso   1.000  C
  C62      1.0000 0.43990  0.09200  0.77110  Biso   1.000  C
  C63      1.0000 0.06010  0.59200  0.72890  Biso   1.000  C
  C64      1.0000 0.56010  0.09200  0.72890  Biso   1.000  C
  H65      1.0000 0.09550  0.48560  0.27850  Biso   1.000  H
  H66      1.0000 0.59550  0.98560  0.27850  Biso   1.000  H
  H67      1.0000 0.90450  0.48560  0.22150  Biso   1.000  H
  H68      1.0000 0.40450  0.98560  0.22150  Biso   1.000  H
  H69      1.0000 0.90450  0.51440  0.72150  Biso   1.000  H
  H70      1.0000 0.40450  0.01440  0.72150  Biso   1.000  H
  H71      1.0000 0.09550  0.51440  0.77850  Biso   1.000  H
  H72      1.0000 0.59550  0.01440  0.77850  Biso   1.000  H
  H73      1.0000 0.09500  0.35180  0.20660  Biso   1.000  H
  H74      1.0000 0.59500  0.85180  0.20660  Biso   1.000  H
  H75      1.0000 0.90500  0.35180  0.29340  Biso   1.000  H
  H76      1.0000 0.40500  0.85180  0.29340  Biso   1.000  H
  H77      1.0000 0.90500  0.64820  0.79340  Biso   1.000  H
  H78      1.0000 0.40500  0.14820  0.79340  Biso   1.000  H
  H79      1.0000 0.09500  0.64820  0.70660  Biso   1.000  H
  H80      1.0000 0.59500  0.14820  0.70660  Biso   1.000  H
  H81      1.0000 0.01390  0.46720  0.17660  Biso   1.000  H
  H82      1.0000 0.51390  0.96720  0.17660  Biso   1.000  H
  H83      1.0000 0.98610  0.46720  0.32340  Biso   1.000  H
  H84      1.0000 0.48610  0.96720  0.32340  Biso   1.000  H
  H85      1.0000 0.98610  0.53280  0.82340  Biso   1.000  H
  H86      1.0000 0.48610  0.03280  0.82340  Biso   1.000  H
  H87      1.0000 0.01390  0.53280  0.67660  Biso   1.000  H
  H88      1.0000 0.51390  0.03280  0.67660  Biso   1.000  H
  C65      1.0000 0.96730  0.15900  0.19310  Biso   1.000  C
  C66      1.0000 0.46730  0.65900  0.19310  Biso   1.000  C
  C67      1.0000 0.03270  0.15900  0.30690  Biso   1.000  C
  C68      1.0000 0.53270  0.65900  0.30690  Biso   1.000  C
  C69      1.0000 0.03270  0.84100  0.80690  Biso   1.000  C
  C70      1.0000 0.53270  0.34100  0.80690  Biso   1.000  C
  C71      1.0000 0.96730  0.84100  0.69310  Biso   1.000  C
  C72      1.0000 0.46730  0.34100  0.69310  Biso   1.000  C
  H89      1.0000 0.93930  0.07780  0.21110  Biso   1.000  H
  H90      1.0000 0.43930  0.57780  0.21110  Biso   1.000  H
  H91      1.0000 0.06070  0.07780  0.28890  Biso   1.000  H
  H92      1.0000 0.56070  0.57780  0.28890  Biso   1.000  H
  H93      1.0000 0.06070  0.92220  0.78890  Biso   1.000  H
  H94      1.0000 0.56070  0.42220  0.78890  Biso   1.000  H
  H95      1.0000 0.93930  0.92220  0.71110  Biso   1.000  H
  H96      1.0000 0.43930  0.42220  0.71110  Biso   1.000  H
  H97      1.0000 0.92160  0.22490  0.13930  Biso   1.000  H
  H98      1.0000 0.42160  0.72490  0.13930  Biso   1.000  H
  H99      1.0000 0.07840  0.22490  0.36070  Biso   1.000  H
  H100     1.0000 0.57840  0.72490  0.36070  Biso   1.000  H
  H101     1.0000 0.07840  0.77510  0.86070  Biso   1.000  H
  H102     1.0000 0.57840  0.27510  0.86070  Biso   1.000  H
  H103     1.0000 0.92160  0.77510  0.63930  Biso   1.000  H
  H104     1.0000 0.42160  0.27510  0.63930  Biso   1.000  H
  H105     1.0000 0.00260  0.10950  0.16930  Biso   1.000  H
  H106     1.0000 0.50260  0.60950  0.16930  Biso   1.000  H
  H107     1.0000 0.99740  0.10950  0.33070  Biso   1.000  H
  H108     1.0000 0.49740  0.60950  0.33070  Biso   1.000  H
  H109     1.0000 0.99740  0.89050  0.83070  Biso   1.000  H
  H110     1.0000 0.49740  0.39050  0.83070  Biso   1.000  H
  H111     1.0000 0.00260  0.89050  0.66930  Biso   1.000  H
  H112     1.0000 0.50260  0.39050  0.66930  Biso   1.000  H
