data_image0
_cell_length_a       7.3093
_cell_length_b       9.9165
_cell_length_c       22.2795
_cell_angle_alpha    90
_cell_angle_beta     96.732
_cell_angle_gamma    90

_symmetry_space_group_name_H-M    "P 1"
_symmetry_int_tables_number       1

loop_
  _symmetry_equiv_pos_as_xyz
  'x, y, z'

loop_
  _atom_site_label
  _atom_site_occupancy
  _atom_site_fract_x
  _atom_site_fract_y
  _atom_site_fract_z
  _atom_site_thermal_displace_type
  _atom_site_B_iso_or_equiv
  _atom_site_type_symbol
  Cu1      1.0000 0.52845  0.45828  0.53846  Biso   1.000  Cu
  Cu2      1.0000 0.47155  0.95828  0.46154  Biso   1.000  Cu
  Cu3      1.0000 0.01598  0.12037  0.96262  Biso   1.000  Cu
  Cu4      1.0000 0.98402  0.62037  0.03738  Biso   1.000  Cu
  O1       1.0000 0.03590  0.30740  0.99352  Biso   1.000  O
  O2       1.0000 0.96410  0.80740  0.00648  Biso   1.000  O
  O3       1.0000 0.96960  0.43700  0.06850  Biso   1.000  O
  O4       1.0000 0.03040  0.93700  0.93150  Biso   1.000  O
  O5       1.0000 0.70410  0.14910  0.92821  Biso   1.000  O
  O6       1.0000 0.29590  0.64910  0.07179  Biso   1.000  O
  C1       1.0000 0.99400  0.21080  0.14671  Biso   1.000  C
  C2       1.0000 0.00600  0.71080  0.85329  Biso   1.000  C
  H1       1.0000 0.94800  0.29630  0.16340  Biso   1.000  H
  H2       1.0000 0.05200  0.79630  0.83660  Biso   1.000  H
  C3       1.0000 0.20060  0.20630  0.15660  Biso   1.000  C
  C4       1.0000 0.79940  0.70630  0.84340  Biso   1.000  C
  H3       1.0000 0.24170  0.11220  0.15960  Biso   1.000  H
  H4       1.0000 0.75830  0.61220  0.84040  Biso   1.000  H
  H5       1.0000 0.24440  0.25380  0.19410  Biso   1.000  H
  H6       1.0000 0.75560  0.75380  0.80590  Biso   1.000  H
  H7       1.0000 0.25060  0.24990  0.12260  Biso   1.000  H
  H8       1.0000 0.74940  0.74990  0.87740  Biso   1.000  H
  O7       1.0000 0.49810  0.27040  0.51025  Biso   1.000  O
  O8       1.0000 0.50190  0.77040  0.48975  Biso   1.000  O
  O9       1.0000 0.45140  0.14220  0.42895  Biso   1.000  O
  O10      1.0000 0.54860  0.64220  0.57105  Biso   1.000  O
  O11      1.0000 0.83290  0.41900  0.57050  Biso   1.000  O
  O12      1.0000 0.16710  0.91900  0.42950  Biso   1.000  O
  O13      1.0000 0.42460  0.45950  0.98490  Biso   1.000  O
  O14      1.0000 0.57540  0.95950  0.01510  Biso   1.000  O
  O15      1.0000 0.61920  0.60510  0.99000  Biso   1.000  O
  O16      1.0000 0.38080  0.10510  0.01000  Biso   1.000  O
  O17      1.0000 0.64930  0.43390  0.93210  Biso   1.000  O
  O18      1.0000 0.35070  0.93390  0.06790  Biso   1.000  O
  O19      1.0000 0.84310  0.12250  0.58040  Biso   1.000  O
  O20      1.0000 0.15690  0.62250  0.41960  Biso   1.000  O
  O21      1.0000 0.06760  0.12460  0.52550  Biso   1.000  O
  O22      1.0000 0.93240  0.62460  0.47450  Biso   1.000  O
  O23      1.0000 0.84250  0.98660  0.50510  Biso   1.000  O
  O24      1.0000 0.15750  0.48660  0.49490  Biso   1.000  O
  N1       1.0000 0.97960  0.07890  0.04750  Biso   1.000  N
  N2       1.0000 0.02040  0.57890  0.95250  Biso   1.000  N
  H9       1.0000 0.88640  0.01670  0.04800  Biso   1.000  H
  H10      1.0000 0.11360  0.51670  0.95200  Biso   1.000  H
  H11      1.0000 0.08560  0.04170  0.06700  Biso   1.000  H
  H12      1.0000 0.91440  0.54170  0.93300  Biso   1.000  H
  N3       1.0000 0.54610  0.49550  0.45160  Biso   1.000  N
  N4       1.0000 0.45390  0.99550  0.54840  Biso   1.000  N
  H13      1.0000 0.47310  0.56830  0.43940  Biso   1.000  H
  H14      1.0000 0.52690  0.06830  0.56060  Biso   1.000  H
  H15      1.0000 0.66580  0.51710  0.44660  Biso   1.000  H
  H16      1.0000 0.33420  0.01710  0.55340  Biso   1.000  H
  N5       1.0000 0.09880  0.18320  0.88470  Biso   1.000  N
  N6       1.0000 0.90120  0.68320  0.11530  Biso   1.000  N
  N7       1.0000 0.44040  0.40090  0.61720  Biso   1.000  N
  N8       1.0000 0.55960  0.90090  0.38280  Biso   1.000  N
  N9       1.0000 0.56230  0.49630  0.96820  Biso   1.000  N
  N10      1.0000 0.43770  0.99630  0.03180  Biso   1.000  N
  N11      1.0000 0.91820  0.07580  0.53620  Biso   1.000  N
  N12      1.0000 0.08180  0.57580  0.46380  Biso   1.000  N
  C5       1.0000 0.98600  0.32360  0.04380  Biso   1.000  C
  C6       1.0000 0.01400  0.82360  0.95620  Biso   1.000  C
  C7       1.0000 0.93290  0.20110  0.07971  Biso   1.000  C
  C8       1.0000 0.06710  0.70110  0.92029  Biso   1.000  C
  H17      1.0000 0.79520  0.20250  0.07600  Biso   1.000  H
  H18      1.0000 0.20480  0.70250  0.92400  Biso   1.000  H
  C9       1.0000 0.93800  0.09120  0.18240  Biso   1.000  C
  C10      1.0000 0.06200  0.59120  0.81760  Biso   1.000  C
  H19      1.0000 0.97690  0.00780  0.16400  Biso   1.000  H
  H20      1.0000 0.02310  0.50780  0.83600  Biso   1.000  H
  H21      1.0000 0.80390  0.09080  0.18210  Biso   1.000  H
  H22      1.0000 0.19610  0.59080  0.81790  Biso   1.000  H
  H23      1.0000 0.99690  0.09750  0.22410  Biso   1.000  H
  H24      1.0000 0.00310  0.59750  0.77590  Biso   1.000  H
  C11      1.0000 0.00390  0.15890  0.83040  Biso   1.000  C
  C12      1.0000 0.99610  0.65890  0.16960  Biso   1.000  C
  H25      1.0000 0.89400  0.10700  0.82790  Biso   1.000  H
  H26      1.0000 0.10600  0.60700  0.17210  Biso   1.000  H
  C13      1.0000 0.06430  0.20860  0.77780  Biso   1.000  C
  C14      1.0000 0.93570  0.70860  0.22220  Biso   1.000  C
  H27      1.0000 0.98720  0.20080  0.74050  Biso   1.000  H
  H28      1.0000 0.01280  0.70080  0.25950  Biso   1.000  H
  C15      1.0000 0.25380  0.24780  0.88580  Biso   1.000  C
  C16      1.0000 0.74620  0.74780  0.11420  Biso   1.000  C
  H29      1.0000 0.32050  0.26750  0.92400  Biso   1.000  H
  H30      1.0000 0.67950  0.76750  0.07600  Biso   1.000  H
  C17      1.0000 0.32710  0.28970  0.83410  Biso   1.000  C
  C18      1.0000 0.67290  0.78970  0.16590  Biso   1.000  C
  H31      1.0000 0.44360  0.33330  0.83750  Biso   1.000  H
  H32      1.0000 0.55640  0.83330  0.16250  Biso   1.000  H
  C19      1.0000 0.23240  0.26820  0.77890  Biso   1.000  C
  C20      1.0000 0.76760  0.76820  0.22110  Biso   1.000  C
  C21      1.0000 0.30250  0.31600  0.72200  Biso   1.000  C
  C22      1.0000 0.69750  0.81600  0.27800  Biso   1.000  C
  C23      1.0000 0.46170  0.39210  0.72340  Biso   1.000  C
  C24      1.0000 0.53830  0.89210  0.27660  Biso   1.000  C
  H33      1.0000 0.52460  0.41890  0.76120  Biso   1.000  H
  H34      1.0000 0.47540  0.91890  0.23880  Biso   1.000  H
  C25      1.0000 0.53050  0.42970  0.67090  Biso   1.000  C
  C26      1.0000 0.46950  0.92970  0.32910  Biso   1.000  C
  H35      1.0000 0.64420  0.47700  0.67320  Biso   1.000  H
  H36      1.0000 0.35580  0.97700  0.32680  Biso   1.000  H
  C27      1.0000 0.21160  0.29160  0.66520  Biso   1.000  C
  C28      1.0000 0.78840  0.79160  0.33480  Biso   1.000  C
  H37      1.0000 0.09720  0.24500  0.66120  Biso   1.000  H
  H38      1.0000 0.90280  0.74500  0.33880  Biso   1.000  H
  C29      1.0000 0.28440  0.33370  0.61490  Biso   1.000  C
  C30      1.0000 0.71560  0.83370  0.38510  Biso   1.000  C
  H39      1.0000 0.21970  0.31380  0.57640  Biso   1.000  H
  H40      1.0000 0.78030  0.81380  0.42360  Biso   1.000  H
  C31      1.0000 0.47760  0.25370  0.45500  Biso   1.000  C
  C32      1.0000 0.52240  0.75370  0.54500  Biso   1.000  C
  C33      1.0000 0.48620  0.37510  0.41270  Biso   1.000  C
  C34      1.0000 0.51380  0.87510  0.58730  Biso   1.000  C
  H41      1.0000 0.35770  0.39310  0.39360  Biso   1.000  H
  H42      1.0000 0.64230  0.89310  0.60640  Biso   1.000  H
  C35      1.0000 0.60320  0.35030  0.36210  Biso   1.000  C
  C36      1.0000 0.39680  0.85030  0.63790  Biso   1.000  C
  H43      1.0000 0.54640  0.27070  0.33950  Biso   1.000  H
  H44      1.0000 0.45360  0.77070  0.66050  Biso   1.000  H
  C37      1.0000 0.79840  0.30830  0.38410  Biso   1.000  C
  C38      1.0000 0.20160  0.80830  0.61590  Biso   1.000  C
  H45      1.0000 0.85820  0.27420  0.35000  Biso   1.000  H
  H46      1.0000 0.14180  0.77420  0.65000  Biso   1.000  H
  H47      1.0000 0.79650  0.23720  0.41460  Biso   1.000  H
  H48      1.0000 0.20350  0.73720  0.58540  Biso   1.000  H
  H49      1.0000 0.86710  0.38620  0.40200  Biso   1.000  H
  H50      1.0000 0.13290  0.88620  0.59800  Biso   1.000  H
  C39      1.0000 0.59000  0.46450  0.31710  Biso   1.000  C
  C40      1.0000 0.41000  0.96450  0.68290  Biso   1.000  C
  H51      1.0000 0.71140  0.50720  0.31740  Biso   1.000  H
  H52      1.0000 0.28860  0.00720  0.68260  Biso   1.000  H
  H53      1.0000 0.50100  0.53120  0.32800  Biso   1.000  H
  H54      1.0000 0.49900  0.03120  0.67200  Biso   1.000  H
  H55      1.0000 0.55040  0.42920  0.27660  Biso   1.000  H
  H56      1.0000 0.44960  0.92920  0.72340  Biso   1.000  H
  H57      1.0000 0.90850  0.47460  0.54220  Biso   1.000  H
  H58      1.0000 0.09150  0.97460  0.45780  Biso   1.000  H
  H59      1.0000 0.60610  0.09710  0.94070  Biso   1.000  H
  H60      1.0000 0.39390  0.59710  0.05930  Biso   1.000  H
  H61      1.0000 0.85640  0.34080  0.56400  Biso   1.000  H
  H62      1.0000 0.14360  0.84080  0.43600  Biso   1.000  H
  H63      1.0000 0.65710  0.22340  0.92210  Biso   1.000  H
  H64      1.0000 0.34290  0.72340  0.07790  Biso   1.000  H
