data_image0
_cell_length_a       12.049
_cell_length_b       4.9607
_cell_length_c       13.8866
_cell_angle_alpha    90
_cell_angle_beta     90.178
_cell_angle_gamma    90

_symmetry_space_group_name_H-M    "P 1"
_symmetry_int_tables_number       1

loop_
  _symmetry_equiv_pos_as_xyz
  'x, y, z'

loop_
  _atom_site_label
  _atom_site_occupancy
  _atom_site_fract_x
  _atom_site_fract_y
  _atom_site_fract_z
  _atom_site_thermal_displace_type
  _atom_site_B_iso_or_equiv
  _atom_site_type_symbol
  C1       1.0000 0.51270  0.27100  0.89810  Biso   1.000  C
  C2       1.0000 0.48730  0.77100  0.10190  Biso   1.000  C
  H1       1.0000 0.51690  0.40910  0.84990  Biso   1.000  H
  H2       1.0000 0.48310  0.90910  0.15010  Biso   1.000  H
  H3       1.0000 0.57880  0.16300  0.89620  Biso   1.000  H
  H4       1.0000 0.42120  0.66300  0.10380  Biso   1.000  H
  H5       1.0000 0.50590  0.35250  0.96050  Biso   1.000  H
  H6       1.0000 0.49410  0.85250  0.03950  Biso   1.000  H
  C3       1.0000 0.42420  0.94900  0.79790  Biso   1.000  C
  C4       1.0000 0.57580  0.44900  0.20210  Biso   1.000  C
  C5       1.0000 0.50400  0.97800  0.72720  Biso   1.000  C
  C6       1.0000 0.49600  0.47800  0.27280  Biso   1.000  C
  H7       1.0000 0.55850  0.10960  0.73440  Biso   1.000  H
  H8       1.0000 0.44150  0.60960  0.26560  Biso   1.000  H
  C7       1.0000 0.50450  0.81400  0.64440  Biso   1.000  C
  C8       1.0000 0.49550  0.31400  0.35560  Biso   1.000  C
  H9       1.0000 0.55870  0.83430  0.59750  Biso   1.000  H
  H10      1.0000 0.44130  0.33430  0.40250  Biso   1.000  H
  C9       1.0000 0.42240  0.62100  0.63500  Biso   1.000  C
  C10      1.0000 0.57760  0.12100  0.36500  Biso   1.000  C
  H11      1.0000 0.42170  0.51220  0.58060  Biso   1.000  H
  H12      1.0000 0.57830  0.01220  0.41940  Biso   1.000  H
  C11      1.0000 0.33950  0.58600  0.70540  Biso   1.000  C
  C12      1.0000 0.66050  0.08600  0.29460  Biso   1.000  C
  C13      1.0000 0.33790  0.75000  0.78860  Biso   1.000  C
  C14      1.0000 0.66210  0.25000  0.21140  Biso   1.000  C
  C15      1.0000 0.25760  0.37200  0.68850  Biso   1.000  C
  C16      1.0000 0.74240  0.87200  0.31150  Biso   1.000  C
  H13      1.0000 0.26280  0.27240  0.63190  Biso   1.000  H
  H14      1.0000 0.73720  0.77240  0.36810  Biso   1.000  H
  C17      1.0000 0.09820  0.10000  0.72210  Biso   1.000  C
  C18      1.0000 0.90180  0.60000  0.27790  Biso   1.000  C
  H15      1.0000 0.13590  0.95080  0.68960  Biso   1.000  H
  H16      1.0000 0.86410  0.45080  0.31040  Biso   1.000  H
  C19      1.0000 0.04780  0.00300  0.81570  Biso   1.000  C
  C20      1.0000 0.95220  0.50300  0.18430  Biso   1.000  C
  C21      1.0000 0.00910  0.21800  0.65670  Biso   1.000  C
  C22      1.0000 0.99090  0.71800  0.34330  Biso   1.000  C
  H17      1.0000 0.04450  0.29740  0.60080  Biso   1.000  H
  H18      1.0000 0.95550  0.79740  0.39920  Biso   1.000  H
  H19      1.0000 0.97100  0.36090  0.69090  Biso   1.000  H
  H20      1.0000 0.02900  0.86090  0.30910  Biso   1.000  H
  C23      1.0000 0.92250  0.00900  0.62210  Biso   1.000  C
  C24      1.0000 0.07750  0.50900  0.37790  Biso   1.000  C
  H21      1.0000 0.88120  0.94440  0.67740  Biso   1.000  H
  H22      1.0000 0.11880  0.44440  0.32260  Biso   1.000  H
  H23      1.0000 0.96120  0.85590  0.59450  Biso   1.000  H
  H24      1.0000 0.03880  0.35590  0.40550  Biso   1.000  H
  C25      1.0000 0.74210  0.36800  0.60480  Biso   1.000  C
  C26      1.0000 0.25790  0.86800  0.39520  Biso   1.000  C
  H25      1.0000 0.78610  0.52100  0.62280  Biso   1.000  H
  H26      1.0000 0.21390  0.02100  0.37720  Biso   1.000  H
  H27      1.0000 0.71680  0.27690  0.66170  Biso   1.000  H
  H28      1.0000 0.28320  0.77690  0.33830  Biso   1.000  H
  H29      1.0000 0.67930  0.42660  0.56760  Biso   1.000  H
  H30      1.0000 0.32070  0.92660  0.43240  Biso   1.000  H
  N1       1.0000 0.17910  0.31310  0.74730  Biso   1.000  N
  N2       1.0000 0.82090  0.81310  0.25270  Biso   1.000  N
  O1       1.0000 0.00280  0.76950  0.82030  Biso   1.000  O
  O2       1.0000 0.99720  0.26950  0.17970  Biso   1.000  O
  O3       1.0000 0.04840  0.16660  0.88820  Biso   1.000  O
  O4       1.0000 0.95160  0.66660  0.11180  Biso   1.000  O
  O5       1.0000 0.14020  0.57060  0.00950  Biso   1.000  O
  O6       1.0000 0.85980  0.07060  0.99050  Biso   1.000  O
  O7       1.0000 0.26410  0.73630  0.85900  Biso   1.000  O
  O8       1.0000 0.73590  0.23630  0.14100  Biso   1.000  O
  O9       1.0000 0.41670  0.10140  0.87960  Biso   1.000  O
  O10      1.0000 0.58330  0.60140  0.12040  Biso   1.000  O
  Cu1      1.0000 0.14980  0.47370  0.87143  Biso   1.000  Cu
  Cu2      1.0000 0.85020  0.97370  0.12857  Biso   1.000  Cu
  S1       1.0000 0.82500  0.13920  0.53360  Biso   1.000  S
  S2       1.0000 0.17500  0.63920  0.46640  Biso   1.000  S
  O11      1.0000 0.25670  0.02910  0.04410  Biso   1.000  O
  O12      1.0000 0.74330  0.52910  0.95590  Biso   1.000  O
