data_image0
_cell_length_a       11.9236
_cell_length_b       4.9684
_cell_length_c       12.535
_cell_angle_alpha    90
_cell_angle_beta     99.062
_cell_angle_gamma    90

_symmetry_space_group_name_H-M    "P 1"
_symmetry_int_tables_number       1

loop_
  _symmetry_equiv_pos_as_xyz
  'x, y, z'

loop_
  _atom_site_label
  _atom_site_occupancy
  _atom_site_fract_x
  _atom_site_fract_y
  _atom_site_fract_z
  _atom_site_thermal_displace_type
  _atom_site_B_iso_or_equiv
  _atom_site_type_symbol
  C1       1.0000 0.57900  0.89900  0.94950  Biso   1.000  C
  C2       1.0000 0.42100  0.39900  0.05050  Biso   1.000  C
  H1       1.0000 0.56820  0.76100  0.89510  Biso   1.000  H
  H2       1.0000 0.43180  0.26100  0.10490  Biso   1.000  H
  H3       1.0000 0.50750  0.98730  0.95190  Biso   1.000  H
  H4       1.0000 0.49250  0.48730  0.04810  Biso   1.000  H
  H5       1.0000 0.60570  0.81920  0.01850  Biso   1.000  H
  H6       1.0000 0.39430  0.31920  0.98150  Biso   1.000  H
  C3       1.0000 0.63680  0.24200  0.82860  Biso   1.000  C
  C4       1.0000 0.36320  0.74200  0.17140  Biso   1.000  C
  C5       1.0000 0.54230  0.20900  0.75440  Biso   1.000  C
  C6       1.0000 0.45770  0.70900  0.24560  Biso   1.000  C
  H7       1.0000 0.49010  0.07400  0.76210  Biso   1.000  H
  H8       1.0000 0.50990  0.57400  0.23790  Biso   1.000  H
  C7       1.0000 0.60400  0.57900  0.65290  Biso   1.000  C
  C8       1.0000 0.39600  0.07900  0.34710  Biso   1.000  C
  H9       1.0000 0.59240  0.69010  0.59240  Biso   1.000  H
  H10      1.0000 0.40760  0.19010  0.40760  Biso   1.000  H
  C9       1.0000 0.52520  0.38400  0.66590  Biso   1.000  C
  C10      1.0000 0.47480  0.88400  0.33410  Biso   1.000  C
  H11      1.0000 0.45980  0.36840  0.61510  Biso   1.000  H
  H12      1.0000 0.54020  0.86840  0.38490  Biso   1.000  H
  C11      1.0000 0.70200  0.61300  0.73060  Biso   1.000  C
  C12      1.0000 0.29800  0.11300  0.26940  Biso   1.000  C
  C13      1.0000 0.71770  0.44200  0.82140  Biso   1.000  C
  C14      1.0000 0.28230  0.94200  0.17860  Biso   1.000  C
  C15      1.0000 0.77820  0.81900  0.71530  Biso   1.000  C
  C16      1.0000 0.22180  0.31900  0.28470  Biso   1.000  C
  H13      1.0000 0.76020  0.92020  0.65260  Biso   1.000  H
  H14      1.0000 0.23980  0.42020  0.34740  Biso   1.000  H
  C17      1.0000 0.01420  0.21000  0.85360  Biso   1.000  C
  C18      1.0000 0.98580  0.71000  0.14640  Biso   1.000  C
  C19      1.0000 0.94380  0.09800  0.75120  Biso   1.000  C
  C20      1.0000 0.05620  0.59800  0.24880  Biso   1.000  C
  H15      1.0000 0.89760  0.24230  0.71300  Biso   1.000  H
  H16      1.0000 0.10240  0.74230  0.28700  Biso   1.000  H
  C21      1.0000 0.02380  0.97600  0.67600  Biso   1.000  C
  C22      1.0000 0.97620  0.47600  0.32400  Biso   1.000  C
  H17      1.0000 0.06840  0.83280  0.71470  Biso   1.000  H
  H18      1.0000 0.93160  0.33280  0.28530  Biso   1.000  H
  H19      1.0000 0.97740  0.89580  0.61340  Biso   1.000  H
  H20      1.0000 0.02260  0.39580  0.38660  Biso   1.000  H
  C23      1.0000 0.10430  0.18000  0.63720  Biso   1.000  C
  C24      1.0000 0.89570  0.68000  0.36280  Biso   1.000  C
  H21      1.0000 0.16020  0.23390  0.69820  Biso   1.000  H
  H22      1.0000 0.83980  0.73390  0.30180  Biso   1.000  H
  H23      1.0000 0.06130  0.33830  0.61090  Biso   1.000  H
  H24      1.0000 0.93870  0.83830  0.38910  Biso   1.000  H
  C25      1.0000 0.27900  0.82100  0.60600  Biso   1.000  C
  C26      1.0000 0.72100  0.32100  0.39400  Biso   1.000  C
  H25      1.0000 0.23930  0.68260  0.63820  Biso   1.000  H
  H26      1.0000 0.76070  0.18260  0.36180  Biso   1.000  H
  H27      1.0000 0.32800  0.91660  0.66180  Biso   1.000  H
  H28      1.0000 0.67200  0.41660  0.33820  Biso   1.000  H
  H29      1.0000 0.32420  0.74100  0.55740  Biso   1.000  H
  H30      1.0000 0.67580  0.24100  0.44260  Biso   1.000  H
  N1       1.0000 0.87080  0.88300  0.77820  Biso   1.000  N
  N2       1.0000 0.12920  0.38300  0.22180  Biso   1.000  N
  O1       1.0000 0.06160  0.42600  0.85440  Biso   1.000  O
  O2       1.0000 0.93840  0.92600  0.14560  Biso   1.000  O
  O3       1.0000 0.01710  0.06100  0.94160  Biso   1.000  O
  O4       1.0000 0.98290  0.56100  0.05840  Biso   1.000  O
  O5       1.0000 0.80420  0.46600  0.90570  Biso   1.000  O
  O6       1.0000 0.19580  0.96600  0.09430  Biso   1.000  O
  O7       1.0000 0.66100  0.09400  0.92350  Biso   1.000  O
  O8       1.0000 0.33900  0.59400  0.07650  Biso   1.000  O
  S1       1.0000 0.17740  0.05440  0.53210  Biso   1.000  S
  S2       1.0000 0.82260  0.55440  0.46790  Biso   1.000  S
  Cu1      1.0000 0.91732  0.73580  0.92073  Biso   1.000  Cu
  Cu2      1.0000 0.08268  0.23580  0.07927  Biso   1.000  Cu
  O9       1.0000 0.25070  0.84400  0.87180  Biso   1.000  O
  O10      1.0000 0.74930  0.34400  0.12820  Biso   1.000  O
