data_image0
_cell_length_a       11.865
_cell_length_b       4.954
_cell_length_c       12.358
_cell_angle_alpha    90
_cell_angle_beta     96.368
_cell_angle_gamma    90

_symmetry_space_group_name_H-M    "P 1"
_symmetry_int_tables_number       1

loop_
  _symmetry_equiv_pos_as_xyz
  'x, y, z'

loop_
  _atom_site_label
  _atom_site_occupancy
  _atom_site_fract_x
  _atom_site_fract_y
  _atom_site_fract_z
  _atom_site_thermal_displace_type
  _atom_site_B_iso_or_equiv
  _atom_site_type_symbol
  C1       1.0000 0.34150  0.83100  0.94980  Biso   1.000  C
  C2       1.0000 0.65850  0.33100  0.05020  Biso   1.000  C
  H1       1.0000 0.34890  0.63810  0.95140  Biso   1.000  H
  H2       1.0000 0.65110  0.13810  0.04860  Biso   1.000  H
  H3       1.0000 0.40080  0.90770  0.91270  Biso   1.000  H
  H4       1.0000 0.59920  0.40770  0.08730  Biso   1.000  H
  H5       1.0000 0.26920  0.87930  0.91210  Biso   1.000  H
  H6       1.0000 0.73080  0.37930  0.08790  Biso   1.000  H
  C3       1.0000 0.36790  0.75500  0.14440  Biso   1.000  C
  C4       1.0000 0.63210  0.25500  0.85560  Biso   1.000  C
  C5       1.0000 0.45930  0.79300  0.22100  Biso   1.000  C
  C6       1.0000 0.54070  0.29300  0.77900  Biso   1.000  C
  H7       1.0000 0.51220  0.92650  0.21030  Biso   1.000  H
  H8       1.0000 0.48780  0.42650  0.78970  Biso   1.000  H
  C7       1.0000 0.39860  0.43630  0.32990  Biso   1.000  C
  C8       1.0000 0.60140  0.93630  0.67010  Biso   1.000  C
  H9       1.0000 0.40950  0.32930  0.39200  Biso   1.000  H
  H10      1.0000 0.59050  0.82930  0.60800  Biso   1.000  H
  C9       1.0000 0.47370  0.63430  0.31550  Biso   1.000  C
  C10      1.0000 0.52630  0.13430  0.68450  Biso   1.000  C
  H11      1.0000 0.53470  0.66520  0.36810  Biso   1.000  H
  H12      1.0000 0.46530  0.16520  0.63190  Biso   1.000  H
  C11      1.0000 0.30330  0.38740  0.25230  Biso   1.000  C
  C12      1.0000 0.69670  0.88740  0.74770  Biso   1.000  C
  C13      1.0000 0.28560  0.55280  0.15780  Biso   1.000  C
  C14      1.0000 0.71440  0.05280  0.84220  Biso   1.000  C
  C15      1.0000 0.22790  0.17960  0.27510  Biso   1.000  C
  C16      1.0000 0.77210  0.67960  0.72490  Biso   1.000  C
  H13      1.0000 0.24580  0.08320  0.33920  Biso   1.000  H
  H14      1.0000 0.75420  0.58320  0.66080  Biso   1.000  H
  C17      1.0000 0.99130  0.78600  0.14930  Biso   1.000  C
  C18      1.0000 0.00870  0.28600  0.85070  Biso   1.000  C
  C19      1.0000 0.06050  0.90300  0.24940  Biso   1.000  C
  C20      1.0000 0.93950  0.40300  0.75060  Biso   1.000  C
  H15      1.0000 0.10570  0.75960  0.28780  Biso   1.000  H
  H16      1.0000 0.89430  0.25960  0.71220  Biso   1.000  H
  C21      1.0000 0.98120  0.03150  0.32730  Biso   1.000  C
  C22      1.0000 0.01880  0.53150  0.67270  Biso   1.000  C
  H17      1.0000 0.02750  0.10770  0.38950  Biso   1.000  H
  H18      1.0000 0.97250  0.60770  0.61050  Biso   1.000  H
  H19      1.0000 0.93940  0.17820  0.28950  Biso   1.000  H
  H20      1.0000 0.06060  0.67820  0.71050  Biso   1.000  H
  C23      1.0000 0.89770  0.83580  0.36780  Biso   1.000  C
  C24      1.0000 0.10230  0.33580  0.63220  Biso   1.000  C
  H21      1.0000 0.93860  0.67860  0.39800  Biso   1.000  H
  H22      1.0000 0.06140  0.17860  0.60200  Biso   1.000  H
  H23      1.0000 0.84540  0.77600  0.30660  Biso   1.000  H
  H24      1.0000 0.15460  0.27600  0.69340  Biso   1.000  H
  C25      1.0000 0.71780  0.19200  0.39310  Biso   1.000  C
  C26      1.0000 0.28220  0.69200  0.60690  Biso   1.000  C
  H25      1.0000 0.75100  0.36660  0.38590  Biso   1.000  H
  H26      1.0000 0.24900  0.86660  0.61410  Biso   1.000  H
  H27      1.0000 0.65110  0.20850  0.43000  Biso   1.000  H
  H28      1.0000 0.34890  0.70850  0.57000  Biso   1.000  H
  H29      1.0000 0.69780  0.11530  0.32220  Biso   1.000  H
  H30      1.0000 0.30220  0.61530  0.67780  Biso   1.000  H
  N1       1.0000 0.13590  0.11110  0.21480  Biso   1.000  N
  N2       1.0000 0.86410  0.61110  0.78520  Biso   1.000  N
  O1       1.0000 0.94260  0.57080  0.15230  Biso   1.000  O
  O2       1.0000 0.05740  0.07080  0.84770  Biso   1.000  O
  O3       1.0000 0.98700  0.93640  0.06150  Biso   1.000  O
  O4       1.0000 0.01300  0.43640  0.93850  Biso   1.000  O
  O5       1.0000 0.19710  0.53270  0.08420  Biso   1.000  O
  O6       1.0000 0.80290  0.03270  0.91580  Biso   1.000  O
  O7       1.0000 0.34970  0.93190  0.05840  Biso   1.000  O
  O8       1.0000 0.65030  0.43190  0.94160  Biso   1.000  O
  S1       1.0000 0.81760  0.97690  0.46996  Biso   1.000  S
  S2       1.0000 0.18240  0.47690  0.53004  Biso   1.000  S
  Cu1      1.0000 0.08595  0.26070  0.07369  Biso   1.000  Cu
  Cu2      1.0000 0.91405  0.76070  0.92631  Biso   1.000  Cu
