data_image0
_cell_length_a       12.023
_cell_length_b       4.946
_cell_length_c       13.82
_cell_angle_alpha    90
_cell_angle_beta     90.148
_cell_angle_gamma    90

_symmetry_space_group_name_H-M    "P 1"
_symmetry_int_tables_number       1

loop_
  _symmetry_equiv_pos_as_xyz
  'x, y, z'

loop_
  _atom_site_label
  _atom_site_occupancy
  _atom_site_fract_x
  _atom_site_fract_y
  _atom_site_fract_z
  _atom_site_thermal_displace_type
  _atom_site_B_iso_or_equiv
  _atom_site_type_symbol
  C1       1.0000 0.48900  0.72300  0.09980  Biso   1.000  C
  C2       1.0000 0.51100  0.22300  0.90020  Biso   1.000  C
  H1       1.0000 0.48460  0.58390  0.14810  Biso   1.000  H
  H2       1.0000 0.51540  0.08390  0.85190  Biso   1.000  H
  H3       1.0000 0.49830  0.64180  0.03720  Biso   1.000  H
  H4       1.0000 0.50170  0.14180  0.96280  Biso   1.000  H
  H5       1.0000 0.42180  0.82780  0.10030  Biso   1.000  H
  H6       1.0000 0.57820  0.32780  0.89970  Biso   1.000  H
  C3       1.0000 0.57740  0.05120  0.20330  Biso   1.000  C
  C4       1.0000 0.42260  0.55120  0.79670  Biso   1.000  C
  C5       1.0000 0.49610  0.02100  0.27270  Biso   1.000  C
  C6       1.0000 0.50390  0.52100  0.72730  Biso   1.000  C
  H7       1.0000 0.44110  0.88980  0.26530  Biso   1.000  H
  H8       1.0000 0.55890  0.38980  0.73470  Biso   1.000  H
  C7       1.0000 0.49690  0.19060  0.35600  Biso   1.000  C
  C8       1.0000 0.50310  0.69060  0.64400  Biso   1.000  C
  H9       1.0000 0.44250  0.17190  0.40320  Biso   1.000  H
  H10      1.0000 0.55750  0.67190  0.59680  Biso   1.000  H
  C9       1.0000 0.57770  0.38010  0.36570  Biso   1.000  C
  C10      1.0000 0.42230  0.88010  0.63430  Biso   1.000  C
  H11      1.0000 0.57850  0.48880  0.42060  Biso   1.000  H
  H12      1.0000 0.42150  0.98880  0.57940  Biso   1.000  H
  C11      1.0000 0.66050  0.41650  0.29490  Biso   1.000  C
  C12      1.0000 0.33950  0.91650  0.70510  Biso   1.000  C
  C13      1.0000 0.66190  0.24730  0.21160  Biso   1.000  C
  C14      1.0000 0.33810  0.74730  0.78840  Biso   1.000  C
  C15      1.0000 0.74080  0.63000  0.31060  Biso   1.000  C
  C16      1.0000 0.25920  0.13000  0.68940  Biso   1.000  C
  H13      1.0000 0.73350  0.73460  0.36620  Biso   1.000  H
  H14      1.0000 0.26650  0.23460  0.63380  Biso   1.000  H
  C17      1.0000 0.90090  0.90170  0.27790  Biso   1.000  C
  C18      1.0000 0.09910  0.40170  0.72210  Biso   1.000  C
  H15      1.0000 0.86210  0.04970  0.31070  Biso   1.000  H
  H16      1.0000 0.13790  0.54970  0.68930  Biso   1.000  H
  C19      1.0000 0.95310  0.00270  0.18390  Biso   1.000  C
  C20      1.0000 0.04690  0.50270  0.81610  Biso   1.000  C
  C21      1.0000 0.99160  0.78070  0.34510  Biso   1.000  C
  C22      1.0000 0.00840  0.28070  0.65490  Biso   1.000  C
  H17      1.0000 0.95610  0.70580  0.40210  Biso   1.000  H
  H18      1.0000 0.04390  0.20580  0.59790  Biso   1.000  H
  H19      1.0000 0.02850  0.63390  0.31160  Biso   1.000  H
  H20      1.0000 0.97150  0.13390  0.68840  Biso   1.000  H
  C23      1.0000 0.07880  0.98750  0.37700  Biso   1.000  C
  C24      1.0000 0.92120  0.48750  0.62300  Biso   1.000  C
  H21      1.0000 0.04110  0.14470  0.40320  Biso   1.000  H
  H22      1.0000 0.95890  0.64470  0.59680  Biso   1.000  H
  H23      1.0000 0.12050  0.04560  0.32070  Biso   1.000  H
  H24      1.0000 0.87950  0.54560  0.67930  Biso   1.000  H
  C25      1.0000 0.25700  0.63460  0.39690  Biso   1.000  C
  C26      1.0000 0.74300  0.13460  0.60310  Biso   1.000  C
  H25      1.0000 0.22100  0.46160  0.39390  Biso   1.000  H
  H26      1.0000 0.77900  0.96160  0.60610  Biso   1.000  H
  H27      1.0000 0.32880  0.61480  0.42680  Biso   1.000  H
  H28      1.0000 0.67120  0.11480  0.57320  Biso   1.000  H
  H29      1.0000 0.26580  0.70510  0.33270  Biso   1.000  H
  H30      1.0000 0.73420  0.20510  0.66730  Biso   1.000  H
  N1       1.0000 0.82220  0.68530  0.25290  Biso   1.000  N
  N2       1.0000 0.17780  0.18530  0.74710  Biso   1.000  N
  O1       1.0000 0.58310  0.89720  0.12050  Biso   1.000  O
  O2       1.0000 0.41690  0.39720  0.87950  Biso   1.000  O
  O3       1.0000 0.73630  0.26190  0.14130  Biso   1.000  O
  O4       1.0000 0.26370  0.76190  0.85870  Biso   1.000  O
  O5       1.0000 0.86010  0.42910  0.99010  Biso   1.000  O
  O6       1.0000 0.13990  0.92910  0.00990  Biso   1.000  O
  O7       1.0000 0.95150  0.83250  0.11170  Biso   1.000  O
  O8       1.0000 0.04850  0.33250  0.88830  Biso   1.000  O
  O9       1.0000 0.99680  0.22720  0.18000  Biso   1.000  O
  O10      1.0000 0.00320  0.72720  0.82000  Biso   1.000  O
  Cu1      1.0000 0.85031  0.52660  0.12846  Biso   1.000  Cu
  Cu2      1.0000 0.14969  0.02660  0.87154  Biso   1.000  Cu
  S1       1.0000 0.17474  0.86100  0.46641  Biso   1.000  S
  S2       1.0000 0.82526  0.36100  0.53359  Biso   1.000  S
  O11      1.0000 0.74350  0.96880  0.95490  Biso   1.000  O
  O12      1.0000 0.25650  0.46880  0.04510  Biso   1.000  O
