data_image0
_cell_length_a       4.901
_cell_length_b       9.8031
_cell_length_c       15.0217
_cell_angle_alpha    98.809
_cell_angle_beta     90.521
_cell_angle_gamma    95.037

_symmetry_space_group_name_H-M    "P 1"
_symmetry_int_tables_number       1

loop_
  _symmetry_equiv_pos_as_xyz
  'x, y, z'

loop_
  _atom_site_label
  _atom_site_occupancy
  _atom_site_fract_x
  _atom_site_fract_y
  _atom_site_fract_z
  _atom_site_thermal_displace_type
  _atom_site_B_iso_or_equiv
  _atom_site_type_symbol
  Cu1      1.0000 0.12490  0.16447  0.39502  Biso   1.000  Cu
  Cu2      1.0000 0.87510  0.83553  0.60498  Biso   1.000  Cu
  S1       1.0000 0.14670  0.81750  0.02080  Biso   1.000  S
  S2       1.0000 0.85330  0.18250  0.97920  Biso   1.000  S
  O1       1.0000 0.40610  0.04260  0.41420  Biso   1.000  O
  O2       1.0000 0.59390  0.95740  0.58580  Biso   1.000  O
  O3       1.0000 0.87120  0.29140  0.37670  Biso   1.000  O
  O4       1.0000 0.12880  0.70860  0.62330  Biso   1.000  O
  O5       1.0000 0.54800  0.49040  0.39430  Biso   1.000  O
  O6       1.0000 0.45200  0.50960  0.60570  Biso   1.000  O
  O7       1.0000 0.76880  0.95030  0.34950  Biso   1.000  O
  O8       1.0000 0.23120  0.04970  0.65050  Biso   1.000  O
  O9       1.0000 0.98520  0.16030  0.51870  Biso   1.000  O
  O10      1.0000 0.01480  0.83970  0.48130  Biso   1.000  O
  N1       1.0000 0.28330  0.16240  0.27800  Biso   1.000  N
  N2       1.0000 0.71670  0.83760  0.72200  Biso   1.000  N
  C1       1.0000 0.71510  0.48350  0.32220  Biso   1.000  C
  C2       1.0000 0.28490  0.51650  0.67780  Biso   1.000  C
  C3       1.0000 0.06440  0.35800  0.24050  Biso   1.000  C
  C4       1.0000 0.93560  0.64200  0.75950  Biso   1.000  C
  C5       1.0000 0.34780  0.93050  0.19540  Biso   1.000  C
  C6       1.0000 0.65220  0.06950  0.80460  Biso   1.000  C
  H1       1.0000 0.46440  0.85520  0.19410  Biso   1.000  H
  H2       1.0000 0.53560  0.14480  0.80590  Biso   1.000  H
  H3       1.0000 0.17240  0.90110  0.21900  Biso   1.000  H
  H4       1.0000 0.82760  0.09890  0.78100  Biso   1.000  H
  C7       1.0000 0.88790  0.37300  0.31490  Biso   1.000  C
  C8       1.0000 0.11210  0.62700  0.68510  Biso   1.000  C
  C9       1.0000 0.72730  0.57640  0.26170  Biso   1.000  C
  C10      1.0000 0.27270  0.42360  0.73830  Biso   1.000  C
  H5       1.0000 0.61770  0.64990  0.26900  Biso   1.000  H
  H6       1.0000 0.38230  0.35010  0.73100  Biso   1.000  H
  C11      1.0000 0.39200  0.60700  0.41280  Biso   1.000  C
  C12      1.0000 0.60800  0.39300  0.58720  Biso   1.000  C
  H7       1.0000 0.51340  0.69050  0.42270  Biso   1.000  H
  H8       1.0000 0.48660  0.30950  0.57730  Biso   1.000  H
  H9       1.0000 0.28640  0.60000  0.46570  Biso   1.000  H
  H10      1.0000 0.71360  0.40000  0.53430  Biso   1.000  H
  H11      1.0000 0.27100  0.60910  0.36250  Biso   1.000  H
  H12      1.0000 0.72900  0.39090  0.63750  Biso   1.000  H
  C13      1.0000 0.06930  0.45580  0.17880  Biso   1.000  C
  C14      1.0000 0.93070  0.54420  0.82120  Biso   1.000  C
  H13      1.0000 0.18810  0.44710  0.13080  Biso   1.000  H
  H14      1.0000 0.81190  0.55290  0.86920  Biso   1.000  H
  C15      1.0000 0.38940  0.69100  0.01970  Biso   1.000  C
  C16      1.0000 0.61060  0.30900  0.98030  Biso   1.000  C
  H15      1.0000 0.56750  0.73120  0.00670  Biso   1.000  H
  H16      1.0000 0.43250  0.26880  0.99330  Biso   1.000  H
  H17      1.0000 0.33560  0.61300  0.97430  Biso   1.000  H
  H18      1.0000 0.66440  0.38700  0.02570  Biso   1.000  H
  H19      1.0000 0.39540  0.66110  0.07760  Biso   1.000  H
  H20      1.0000 0.60460  0.33890  0.92240  Biso   1.000  H
  C17      1.0000 0.47960  0.05900  0.25820  Biso   1.000  C
  C18      1.0000 0.52040  0.94100  0.74180  Biso   1.000  C
  H21      1.0000 0.64200  0.09870  0.23040  Biso   1.000  H
  H22      1.0000 0.35800  0.90130  0.76960  Biso   1.000  H
  C19      1.0000 0.30580  0.95980  0.10030  Biso   1.000  C
  C20      1.0000 0.69420  0.04020  0.89970  Biso   1.000  C
  H23      1.0000 0.48270  0.98860  0.07760  Biso   1.000  H
  H24      1.0000 0.51730  0.01140  0.92240  Biso   1.000  H
  H25      1.0000 0.19400  0.03710  0.10280  Biso   1.000  H
  H26      1.0000 0.80600  0.96290  0.89720  Biso   1.000  H
  C21      1.0000 0.90610  0.55960  0.18890  Biso   1.000  C
  C22      1.0000 0.09390  0.44040  0.81110  Biso   1.000  C
  H27      1.0000 0.91110  0.62100  0.14750  Biso   1.000  H
  H28      1.0000 0.08890  0.37900  0.85250  Biso   1.000  H
  C23      1.0000 0.56050  0.01280  0.34710  Biso   1.000  C
  C24      1.0000 0.43950  0.98720  0.65290  Biso   1.000  C
  C25      1.0000 0.25590  0.25480  0.22750  Biso   1.000  C
  C26      1.0000 0.74410  0.74520  0.77250  Biso   1.000  C
  H29      1.0000 0.36990  0.25490  0.17830  Biso   1.000  H
  H30      1.0000 0.63010  0.74510  0.82170  Biso   1.000  H
  H31      1.0000 0.78700  0.11400  0.51600  Biso   1.000  H
  H32      1.0000 0.21300  0.88600  0.48400  Biso   1.000  H
  H33      1.0000 0.05000  0.12500  0.54700  Biso   1.000  H
  H34      1.0000 0.95000  0.87500  0.45300  Biso   1.000  H
