data_image0
_cell_length_a       11.859
_cell_length_b       4.991
_cell_length_c       12.538
_cell_angle_alpha    90
_cell_angle_beta     98.999
_cell_angle_gamma    90

_symmetry_space_group_name_H-M    "P 1"
_symmetry_int_tables_number       1

loop_
  _symmetry_equiv_pos_as_xyz
  'x, y, z'

loop_
  _atom_site_label
  _atom_site_occupancy
  _atom_site_fract_x
  _atom_site_fract_y
  _atom_site_fract_z
  _atom_site_thermal_displace_type
  _atom_site_B_iso_or_equiv
  _atom_site_type_symbol
  C1       1.0000 0.41920  0.10730  0.05080  Biso   1.000  C
  C2       1.0000 0.58080  0.60730  0.94920  Biso   1.000  C
  H1       1.0000 0.43430  0.23800  0.10750  Biso   1.000  H
  H2       1.0000 0.56570  0.73800  0.89250  Biso   1.000  H
  H3       1.0000 0.38980  0.19530  0.98420  Biso   1.000  H
  H4       1.0000 0.61020  0.69530  0.01580  Biso   1.000  H
  H5       1.0000 0.48870  0.01560  0.04330  Biso   1.000  H
  H6       1.0000 0.51130  0.51560  0.95670  Biso   1.000  H
  C3       1.0000 0.36420  0.76200  0.16670  Biso   1.000  C
  C4       1.0000 0.63580  0.26200  0.83330  Biso   1.000  C
  C5       1.0000 0.45930  0.79400  0.24350  Biso   1.000  C
  C6       1.0000 0.54070  0.29400  0.75650  Biso   1.000  C
  H7       1.0000 0.51230  0.92630  0.23540  Biso   1.000  H
  H8       1.0000 0.48770  0.42630  0.76460  Biso   1.000  H
  C7       1.0000 0.39820  0.42910  0.34690  Biso   1.000  C
  C8       1.0000 0.60180  0.92910  0.65310  Biso   1.000  C
  H9       1.0000 0.40980  0.31960  0.40770  Biso   1.000  H
  H10      1.0000 0.59020  0.81960  0.59230  Biso   1.000  H
  C9       1.0000 0.47640  0.62380  0.33540  Biso   1.000  C
  C10      1.0000 0.52360  0.12380  0.66460  Biso   1.000  C
  H11      1.0000 0.54060  0.64510  0.38770  Biso   1.000  H
  H12      1.0000 0.45940  0.14510  0.61230  Biso   1.000  H
  C11      1.0000 0.29990  0.39040  0.26830  Biso   1.000  C
  C12      1.0000 0.70010  0.89040  0.73170  Biso   1.000  C
  C13      1.0000 0.28200  0.55710  0.17530  Biso   1.000  C
  C14      1.0000 0.71800  0.05710  0.82470  Biso   1.000  C
  C15      1.0000 0.22230  0.17770  0.28480  Biso   1.000  C
  C16      1.0000 0.77770  0.67770  0.71520  Biso   1.000  C
  H13      1.0000 0.24000  0.07710  0.34770  Biso   1.000  H
  H14      1.0000 0.76000  0.57710  0.65230  Biso   1.000  H
  C17      1.0000 0.98750  0.78840  0.14670  Biso   1.000  C
  C18      1.0000 0.01250  0.28840  0.85330  Biso   1.000  C
  C19      1.0000 0.05600  0.90290  0.25000  Biso   1.000  C
  C20      1.0000 0.94400  0.40290  0.75000  Biso   1.000  C
  H15      1.0000 0.10310  0.76030  0.28780  Biso   1.000  H
  H16      1.0000 0.89690  0.26030  0.71220  Biso   1.000  H
  C21      1.0000 0.97820  0.02000  0.32650  Biso   1.000  C
  C22      1.0000 0.02180  0.52000  0.67350  Biso   1.000  C
  H17      1.0000 0.02590  0.09060  0.39020  Biso   1.000  H
  H18      1.0000 0.97410  0.59060  0.60980  Biso   1.000  H
  H19      1.0000 0.93520  0.16840  0.29040  Biso   1.000  H
  H20      1.0000 0.06480  0.66840  0.70960  Biso   1.000  H
  C23      1.0000 0.89500  0.81990  0.36190  Biso   1.000  C
  C24      1.0000 0.10500  0.31990  0.63810  Biso   1.000  C
  H21      1.0000 0.93610  0.65780  0.38650  Biso   1.000  H
  H22      1.0000 0.06390  0.15780  0.61350  Biso   1.000  H
  H23      1.0000 0.83840  0.77330  0.30010  Biso   1.000  H
  H24      1.0000 0.16160  0.27330  0.69990  Biso   1.000  H
  C25      1.0000 0.72290  0.18290  0.39910  Biso   1.000  C
  C26      1.0000 0.27710  0.68290  0.60090  Biso   1.000  C
  H25      1.0000 0.76190  0.34780  0.38970  Biso   1.000  H
  H26      1.0000 0.23810  0.84780  0.61030  Biso   1.000  H
  H27      1.0000 0.66260  0.21580  0.44040  Biso   1.000  H
  H28      1.0000 0.33740  0.71580  0.55960  Biso   1.000  H
  H29      1.0000 0.69130  0.11190  0.32970  Biso   1.000  H
  H30      1.0000 0.30870  0.61190  0.67030  Biso   1.000  H
  N1       1.0000 0.13050  0.11440  0.22030  Biso   1.000  N
  N2       1.0000 0.86950  0.61440  0.77970  Biso   1.000  N
  O1       1.0000 0.93800  0.57420  0.14620  Biso   1.000  O
  O2       1.0000 0.06200  0.07420  0.85380  Biso   1.000  O
  O3       1.0000 0.98600  0.93730  0.05960  Biso   1.000  O
  O4       1.0000 0.01400  0.43730  0.94040  Biso   1.000  O
  O5       1.0000 0.19600  0.53670  0.09570  Biso   1.000  O
  O6       1.0000 0.80400  0.03670  0.90430  Biso   1.000  O
  O7       1.0000 0.33780  0.91980  0.07680  Biso   1.000  O
  O8       1.0000 0.66220  0.41980  0.92320  Biso   1.000  O
  S1       1.0000 0.82216  0.94540  0.46936  Biso   1.000  S
  S2       1.0000 0.17784  0.44540  0.53064  Biso   1.000  S
  Cu1      1.0000 0.08314  0.26360  0.07851  Biso   1.000  Cu
  Cu2      1.0000 0.91686  0.76360  0.92149  Biso   1.000  Cu
  O9       1.0000 0.75100  0.15400  0.13110  Biso   1.000  O
  O10      1.0000 0.24900  0.65400  0.86890  Biso   1.000  O
  H31      1.0000 0.79200  0.03000  0.09000  Biso   1.000  H
  H32      1.0000 0.20800  0.53000  0.91000  Biso   1.000  H
  H33      1.0000 0.70400  0.25900  0.07500  Biso   1.000  H
  H34      1.0000 0.29600  0.75900  0.92500  Biso   1.000  H
