data_image0
_cell_length_a       11.8719
_cell_length_b       4.9538
_cell_length_c       12.3963
_cell_angle_alpha    90
_cell_angle_beta     96.737
_cell_angle_gamma    90

_symmetry_space_group_name_H-M    "P 1"
_symmetry_int_tables_number       1

loop_
  _symmetry_equiv_pos_as_xyz
  'x, y, z'

loop_
  _atom_site_label
  _atom_site_occupancy
  _atom_site_fract_x
  _atom_site_fract_y
  _atom_site_fract_z
  _atom_site_thermal_displace_type
  _atom_site_B_iso_or_equiv
  _atom_site_type_symbol
  C1       1.0000 0.66100  0.17100  0.05000  Biso   1.000  C
  C2       1.0000 0.33900  0.67100  0.95000  Biso   1.000  C
  H1       1.0000 0.67250  0.36300  0.04810  Biso   1.000  H
  H2       1.0000 0.32750  0.86300  0.95190  Biso   1.000  H
  H3       1.0000 0.72470  0.08690  0.09080  Biso   1.000  H
  H4       1.0000 0.27530  0.58690  0.90920  Biso   1.000  H
  H5       1.0000 0.59330  0.13310  0.08250  Biso   1.000  H
  H6       1.0000 0.40670  0.63310  0.91750  Biso   1.000  H
  C3       1.0000 0.63210  0.24300  0.85740  Biso   1.000  C
  C4       1.0000 0.36790  0.74300  0.14260  Biso   1.000  C
  C5       1.0000 0.54200  0.20400  0.78000  Biso   1.000  C
  C6       1.0000 0.45800  0.70400  0.22000  Biso   1.000  C
  H7       1.0000 0.49110  0.06680  0.79050  Biso   1.000  H
  H8       1.0000 0.50890  0.56680  0.20950  Biso   1.000  H
  C7       1.0000 0.60000  0.56300  0.66800  Biso   1.000  C
  C8       1.0000 0.40000  0.06300  0.33200  Biso   1.000  C
  H9       1.0000 0.58940  0.66420  0.60480  Biso   1.000  H
  H10      1.0000 0.41060  0.16420  0.39520  Biso   1.000  H
  C9       1.0000 0.52400  0.36000  0.68700  Biso   1.000  C
  C10      1.0000 0.47600  0.86000  0.31300  Biso   1.000  C
  H11      1.0000 0.46150  0.32710  0.63630  Biso   1.000  H
  H12      1.0000 0.53850  0.82710  0.36370  Biso   1.000  H
  C11      1.0000 0.69400  0.61500  0.74900  Biso   1.000  C
  C12      1.0000 0.30600  0.11500  0.25100  Biso   1.000  C
  C13      1.0000 0.71600  0.45000  0.84300  Biso   1.000  C
  C14      1.0000 0.28400  0.95000  0.15700  Biso   1.000  C
  C15      1.0000 0.77300  0.81700  0.72700  Biso   1.000  C
  C16      1.0000 0.22700  0.31700  0.27300  Biso   1.000  C
  H13      1.0000 0.75650  0.90840  0.66140  Biso   1.000  H
  H14      1.0000 0.24350  0.40840  0.33860  Biso   1.000  H
  C17      1.0000 0.01010  0.21900  0.85170  Biso   1.000  C
  C18      1.0000 0.98990  0.71900  0.14830  Biso   1.000  C
  C19      1.0000 0.94050  0.10200  0.75180  Biso   1.000  C
  C20      1.0000 0.05950  0.60200  0.24820  Biso   1.000  C
  H15      1.0000 0.89480  0.24530  0.71410  Biso   1.000  H
  H16      1.0000 0.10520  0.74530  0.28590  Biso   1.000  H
  C21      1.0000 0.01800  0.97000  0.67100  Biso   1.000  C
  C22      1.0000 0.98200  0.47000  0.32900  Biso   1.000  C
  H17      1.0000 0.05840  0.81770  0.70650  Biso   1.000  H
  H18      1.0000 0.94160  0.31770  0.29350  Biso   1.000  H
  H19      1.0000 0.97050  0.90130  0.60810  Biso   1.000  H
  H20      1.0000 0.02950  0.40130  0.39190  Biso   1.000  H
  C23      1.0000 0.10600  0.16400  0.63200  Biso   1.000  C
  C24      1.0000 0.89400  0.66400  0.36800  Biso   1.000  C
  H21      1.0000 0.15880  0.21680  0.69320  Biso   1.000  H
  H22      1.0000 0.84120  0.71680  0.30680  Biso   1.000  H
  H23      1.0000 0.06660  0.32500  0.60290  Biso   1.000  H
  H24      1.0000 0.93340  0.82500  0.39710  Biso   1.000  H
  C25      1.0000 0.28300  0.80900  0.60800  Biso   1.000  C
  C26      1.0000 0.71700  0.30900  0.39200  Biso   1.000  C
  H25      1.0000 0.24310  0.67560  0.64500  Biso   1.000  H
  H26      1.0000 0.75690  0.17560  0.35500  Biso   1.000  H
  H27      1.0000 0.32990  0.91510  0.65990  Biso   1.000  H
  H28      1.0000 0.67010  0.41510  0.34010  Biso   1.000  H
  H29      1.0000 0.32940  0.72050  0.56010  Biso   1.000  H
  H30      1.0000 0.67060  0.22050  0.43990  Biso   1.000  H
  N1       1.0000 0.86440  0.89000  0.78570  Biso   1.000  N
  N2       1.0000 0.13560  0.39000  0.21430  Biso   1.000  N
  O1       1.0000 0.05820  0.43100  0.84810  Biso   1.000  O
  O2       1.0000 0.94180  0.93100  0.15190  Biso   1.000  O
  O3       1.0000 0.01350  0.06600  0.94040  Biso   1.000  O
  O4       1.0000 0.98650  0.56600  0.05960  Biso   1.000  O
  O5       1.0000 0.80140  0.47200  0.91490  Biso   1.000  O
  O6       1.0000 0.19860  0.97200  0.08510  Biso   1.000  O
  O7       1.0000 0.64860  0.07000  0.94210  Biso   1.000  O
  O8       1.0000 0.35140  0.57000  0.05790  Biso   1.000  O
  S1       1.0000 0.18240  0.02380  0.52990  Biso   1.000  S
  S2       1.0000 0.81760  0.52380  0.47010  Biso   1.000  S
  Cu1      1.0000 0.91420  0.73940  0.92640  Biso   1.000  Cu
  Cu2      1.0000 0.08580  0.23940  0.07360  Biso   1.000  Cu
