data_image0
_cell_length_a       18.678
_cell_length_b       18.678
_cell_length_c       22.862
_cell_angle_alpha    90
_cell_angle_beta     90
_cell_angle_gamma    120

_symmetry_space_group_name_H-M    "P 1"
_symmetry_int_tables_number       1

loop_
  _symmetry_equiv_pos_as_xyz
  'x, y, z'

loop_
  _atom_site_label
  _atom_site_occupancy
  _atom_site_fract_x
  _atom_site_fract_y
  _atom_site_fract_z
  _atom_site_thermal_displace_type
  _atom_site_B_iso_or_equiv
  _atom_site_type_symbol
  C1       1.0000 0.94860  0.27620  0.22944  Biso   1.000  C
  C2       1.0000 0.72380  0.67240  0.22944  Biso   1.000  C
  C3       1.0000 0.32760  0.05140  0.22944  Biso   1.000  C
  C4       1.0000 0.61527  0.60953  0.56277  Biso   1.000  C
  C5       1.0000 0.39047  0.00573  0.56277  Biso   1.000  C
  C6       1.0000 0.99427  0.38473  0.56277  Biso   1.000  C
  C7       1.0000 0.28193  0.94287  0.89611  Biso   1.000  C
  C8       1.0000 0.05713  0.33907  0.89611  Biso   1.000  C
  C9       1.0000 0.66093  0.71807  0.89611  Biso   1.000  C
  C10      1.0000 0.05140  0.72380  0.77056  Biso   1.000  C
  C11      1.0000 0.27620  0.32760  0.77056  Biso   1.000  C
  C12      1.0000 0.67240  0.94860  0.77056  Biso   1.000  C
  C13      1.0000 0.71807  0.05713  0.10389  Biso   1.000  C
  C14      1.0000 0.94287  0.66093  0.10389  Biso   1.000  C
  C15      1.0000 0.33907  0.28193  0.10389  Biso   1.000  C
  C16      1.0000 0.38473  0.39047  0.43723  Biso   1.000  C
  C17      1.0000 0.60953  0.99427  0.43723  Biso   1.000  C
  C18      1.0000 0.00573  0.61527  0.43723  Biso   1.000  C
  C19      1.0000 0.01670  0.33530  0.26848  Biso   1.000  C
  C20      1.0000 0.66470  0.68140  0.26848  Biso   1.000  C
  C21      1.0000 0.31860  0.98330  0.26848  Biso   1.000  C
  C22      1.0000 0.68337  0.66863  0.60181  Biso   1.000  C
  C23      1.0000 0.33137  0.01473  0.60181  Biso   1.000  C
  C24      1.0000 0.98527  0.31663  0.60181  Biso   1.000  C
  C25      1.0000 0.35003  0.00197  0.93515  Biso   1.000  C
  C26      1.0000 0.99803  0.34807  0.93515  Biso   1.000  C
  C27      1.0000 0.65193  0.64997  0.93515  Biso   1.000  C
  C28      1.0000 0.98330  0.66470  0.73152  Biso   1.000  C
  C29      1.0000 0.33530  0.31860  0.73152  Biso   1.000  C
  C30      1.0000 0.68140  0.01670  0.73152  Biso   1.000  C
  C31      1.0000 0.64997  0.99803  0.06485  Biso   1.000  C
  C32      1.0000 0.00197  0.65193  0.06485  Biso   1.000  C
  C33      1.0000 0.34807  0.35003  0.06485  Biso   1.000  C
  C34      1.0000 0.31663  0.33137  0.39819  Biso   1.000  C
  C35      1.0000 0.66863  0.98527  0.39819  Biso   1.000  C
  C36      1.0000 0.01473  0.68337  0.39819  Biso   1.000  C
  C37      1.0000 0.09870  0.35670  0.25614  Biso   1.000  C
  C38      1.0000 0.64330  0.74200  0.25614  Biso   1.000  C
  C39      1.0000 0.25800  0.90130  0.25614  Biso   1.000  C
  C40      1.0000 0.76537  0.69003  0.58947  Biso   1.000  C
  C41      1.0000 0.30997  0.07533  0.58947  Biso   1.000  C
  C42      1.0000 0.92467  0.23463  0.58947  Biso   1.000  C
  C43      1.0000 0.43203  0.02337  0.92281  Biso   1.000  C
  C44      1.0000 0.97663  0.40867  0.92281  Biso   1.000  C
  C45      1.0000 0.59133  0.56797  0.92281  Biso   1.000  C
  C46      1.0000 0.90130  0.64330  0.74386  Biso   1.000  C
  C47      1.0000 0.35670  0.25800  0.74386  Biso   1.000  C
  C48      1.0000 0.74200  0.09870  0.74386  Biso   1.000  C
  C49      1.0000 0.56797  0.97663  0.07719  Biso   1.000  C
  C50      1.0000 0.02337  0.59133  0.07719  Biso   1.000  C
  C51      1.0000 0.40867  0.43203  0.07719  Biso   1.000  C
  C52      1.0000 0.23463  0.30997  0.41053  Biso   1.000  C
  C53      1.0000 0.69003  0.92467  0.41053  Biso   1.000  C
  C54      1.0000 0.07533  0.76537  0.41053  Biso   1.000  C
  H1       1.0000 0.11040  0.33350  0.22410  Biso   1.000  H
  H2       1.0000 0.66650  0.77690  0.22410  Biso   1.000  H
  H3       1.0000 0.22310  0.88960  0.22410  Biso   1.000  H
  H4       1.0000 0.77707  0.66683  0.55743  Biso   1.000  H
  H5       1.0000 0.33317  0.11023  0.55743  Biso   1.000  H
  H6       1.0000 0.88977  0.22293  0.55743  Biso   1.000  H
  H7       1.0000 0.44373  0.00017  0.89077  Biso   1.000  H
  H8       1.0000 0.99983  0.44357  0.89077  Biso   1.000  H
  H9       1.0000 0.55643  0.55627  0.89077  Biso   1.000  H
  H10      1.0000 0.88960  0.66650  0.77590  Biso   1.000  H
  H11      1.0000 0.33350  0.22310  0.77590  Biso   1.000  H
  H12      1.0000 0.77690  0.11040  0.77590  Biso   1.000  H
  H13      1.0000 0.55627  0.99983  0.10923  Biso   1.000  H
  H14      1.0000 0.00017  0.55643  0.10923  Biso   1.000  H
  H15      1.0000 0.44357  0.44373  0.10923  Biso   1.000  H
  H16      1.0000 0.22293  0.33317  0.44257  Biso   1.000  H
  H17      1.0000 0.66683  0.88977  0.44257  Biso   1.000  H
  H18      1.0000 0.11023  0.77707  0.44257  Biso   1.000  H
  C55      1.0000 0.16310  0.41310  0.29224  Biso   1.000  C
  C56      1.0000 0.58690  0.75000  0.29224  Biso   1.000  C
  C57      1.0000 0.25000  0.83690  0.29224  Biso   1.000  C
  C58      1.0000 0.82977  0.74643  0.62557  Biso   1.000  C
  C59      1.0000 0.25357  0.08333  0.62557  Biso   1.000  C
  C60      1.0000 0.91667  0.17023  0.62557  Biso   1.000  C
  C61      1.0000 0.49643  0.07977  0.95891  Biso   1.000  C
  C62      1.0000 0.92023  0.41667  0.95891  Biso   1.000  C
  C63      1.0000 0.58333  0.50357  0.95891  Biso   1.000  C
  C64      1.0000 0.83690  0.58690  0.70776  Biso   1.000  C
  C65      1.0000 0.41310  0.25000  0.70776  Biso   1.000  C
  C66      1.0000 0.75000  0.16310  0.70776  Biso   1.000  C
  C67      1.0000 0.50357  0.92023  0.04109  Biso   1.000  C
  C68      1.0000 0.07977  0.58333  0.04109  Biso   1.000  C
  C69      1.0000 0.41667  0.49643  0.04109  Biso   1.000  C
  C70      1.0000 0.17023  0.25357  0.37443  Biso   1.000  C
  C71      1.0000 0.74643  0.91667  0.37443  Biso   1.000  C
  C72      1.0000 0.08333  0.82977  0.37443  Biso   1.000  C
  C73      1.0000 0.14290  0.44250  0.34212  Biso   1.000  C
  C74      1.0000 0.55750  0.70040  0.34212  Biso   1.000  C
  C75      1.0000 0.29960  0.85710  0.34212  Biso   1.000  C
  C76      1.0000 0.80957  0.77583  0.67545  Biso   1.000  C
  C77      1.0000 0.22417  0.03373  0.67545  Biso   1.000  C
  C78      1.0000 0.96627  0.19043  0.67545  Biso   1.000  C
  C79      1.0000 0.47623  0.10917  0.00879  Biso   1.000  C
  C80      1.0000 0.89083  0.36707  0.00879  Biso   1.000  C
  C81      1.0000 0.63293  0.52377  0.00879  Biso   1.000  C
  C82      1.0000 0.85710  0.55750  0.65788  Biso   1.000  C
  C83      1.0000 0.44250  0.29960  0.65788  Biso   1.000  C
  C84      1.0000 0.70040  0.14290  0.65788  Biso   1.000  C
  C85      1.0000 0.52377  0.89083  0.99121  Biso   1.000  C
  C86      1.0000 0.10917  0.63293  0.99121  Biso   1.000  C
  C87      1.0000 0.36707  0.47623  0.99121  Biso   1.000  C
  C88      1.0000 0.19043  0.22417  0.32455  Biso   1.000  C
  C89      1.0000 0.77583  0.96627  0.32455  Biso   1.000  C
  C90      1.0000 0.03373  0.80957  0.32455  Biso   1.000  C
  H19      1.0000 0.18500  0.47910  0.36670  Biso   1.000  H
  H20      1.0000 0.52090  0.70590  0.36670  Biso   1.000  H
  H21      1.0000 0.29410  0.81500  0.36670  Biso   1.000  H
  H22      1.0000 0.85167  0.81243  0.70003  Biso   1.000  H
  H23      1.0000 0.18757  0.03923  0.70003  Biso   1.000  H
  H24      1.0000 0.96077  0.14833  0.70003  Biso   1.000  H
  H25      1.0000 0.51833  0.14577  0.03337  Biso   1.000  H
  H26      1.0000 0.85423  0.37257  0.03337  Biso   1.000  H
  H27      1.0000 0.62743  0.48167  0.03337  Biso   1.000  H
  H28      1.0000 0.81500  0.52090  0.63330  Biso   1.000  H
  H29      1.0000 0.47910  0.29410  0.63330  Biso   1.000  H
  H30      1.0000 0.70590  0.18500  0.63330  Biso   1.000  H
  H31      1.0000 0.48167  0.85423  0.96663  Biso   1.000  H
  H32      1.0000 0.14577  0.62743  0.96663  Biso   1.000  H
  H33      1.0000 0.37257  0.51833  0.96663  Biso   1.000  H
  H34      1.0000 0.14833  0.18757  0.29997  Biso   1.000  H
  H35      1.0000 0.81243  0.96077  0.29997  Biso   1.000  H
  H36      1.0000 0.03923  0.85167  0.29997  Biso   1.000  H
  C91      1.0000 0.06210  0.41840  0.35569  Biso   1.000  C
  C92      1.0000 0.58160  0.64370  0.35569  Biso   1.000  C
  C93      1.0000 0.35630  0.93790  0.35569  Biso   1.000  C
  C94      1.0000 0.72877  0.75173  0.68902  Biso   1.000  C
  C95      1.0000 0.24827  0.97703  0.68902  Biso   1.000  C
  C96      1.0000 0.02297  0.27123  0.68902  Biso   1.000  C
  C97      1.0000 0.39543  0.08507  0.02236  Biso   1.000  C
  C98      1.0000 0.91493  0.31037  0.02236  Biso   1.000  C
  C99      1.0000 0.68963  0.60457  0.02236  Biso   1.000  C
  C100     1.0000 0.93790  0.58160  0.64431  Biso   1.000  C
  C101     1.0000 0.41840  0.35630  0.64431  Biso   1.000  C
  C102     1.0000 0.64370  0.06210  0.64431  Biso   1.000  C
  C103     1.0000 0.60457  0.91493  0.97764  Biso   1.000  C
  C104     1.0000 0.08507  0.68963  0.97764  Biso   1.000  C
  C105     1.0000 0.31037  0.39543  0.97764  Biso   1.000  C
  C106     1.0000 0.27123  0.24827  0.31098  Biso   1.000  C
  C107     1.0000 0.75173  0.02297  0.31098  Biso   1.000  C
  C108     1.0000 0.97703  0.72877  0.31098  Biso   1.000  C
  C109     1.0000 0.99850  0.36610  0.31777  Biso   1.000  C
  C110     1.0000 0.63390  0.63240  0.31777  Biso   1.000  C
  C111     1.0000 0.36760  0.00150  0.31777  Biso   1.000  C
  C112     1.0000 0.66517  0.69943  0.65110  Biso   1.000  C
  C113     1.0000 0.30057  0.96573  0.65110  Biso   1.000  C
  C114     1.0000 0.03427  0.33483  0.65110  Biso   1.000  C
  C115     1.0000 0.33183  0.03277  0.98444  Biso   1.000  C
  C116     1.0000 0.96723  0.29907  0.98444  Biso   1.000  C
  C117     1.0000 0.70093  0.66817  0.98444  Biso   1.000  C
  C118     1.0000 0.00150  0.63390  0.68223  Biso   1.000  C
  C119     1.0000 0.36610  0.36760  0.68223  Biso   1.000  C
  C120     1.0000 0.63240  0.99850  0.68223  Biso   1.000  C
  C121     1.0000 0.66817  0.96723  0.01556  Biso   1.000  C
  C122     1.0000 0.03277  0.70093  0.01556  Biso   1.000  C
  C123     1.0000 0.29907  0.33183  0.01556  Biso   1.000  C
  C124     1.0000 0.33483  0.30057  0.34890  Biso   1.000  C
  C125     1.0000 0.69943  0.03427  0.34890  Biso   1.000  C
  C126     1.0000 0.96573  0.66517  0.34890  Biso   1.000  C
  H37      1.0000 0.94420  0.35210  0.32570  Biso   1.000  H
  H38      1.0000 0.64790  0.59210  0.32570  Biso   1.000  H
  H39      1.0000 0.40790  0.05580  0.32570  Biso   1.000  H
  H40      1.0000 0.61087  0.68543  0.65903  Biso   1.000  H
  H41      1.0000 0.31457  0.92543  0.65903  Biso   1.000  H
  H42      1.0000 0.07457  0.38913  0.65903  Biso   1.000  H
  H43      1.0000 0.27753  0.01877  0.99237  Biso   1.000  H
  H44      1.0000 0.98123  0.25877  0.99237  Biso   1.000  H
  H45      1.0000 0.74123  0.72247  0.99237  Biso   1.000  H
  H46      1.0000 0.05580  0.64790  0.67430  Biso   1.000  H
  H47      1.0000 0.35210  0.40790  0.67430  Biso   1.000  H
  H48      1.0000 0.59210  0.94420  0.67430  Biso   1.000  H
  H49      1.0000 0.72247  0.98123  0.00763  Biso   1.000  H
  H50      1.0000 0.01877  0.74123  0.00763  Biso   1.000  H
  H51      1.0000 0.25877  0.27753  0.00763  Biso   1.000  H
  H52      1.0000 0.38913  0.31457  0.34097  Biso   1.000  H
  H53      1.0000 0.68543  0.07457  0.34097  Biso   1.000  H
  H54      1.0000 0.92543  0.61087  0.34097  Biso   1.000  H
  C127     1.0000 0.03980  0.44790  0.40976  Biso   1.000  C
  C128     1.0000 0.55210  0.59190  0.40976  Biso   1.000  C
  C129     1.0000 0.40810  0.96020  0.40976  Biso   1.000  C
  C130     1.0000 0.70647  0.78123  0.74309  Biso   1.000  C
  C131     1.0000 0.21877  0.92523  0.74309  Biso   1.000  C
  C132     1.0000 0.07477  0.29353  0.74309  Biso   1.000  C
  C133     1.0000 0.37313  0.11457  0.07643  Biso   1.000  C
  C134     1.0000 0.88543  0.25857  0.07643  Biso   1.000  C
  C135     1.0000 0.74143  0.62687  0.07643  Biso   1.000  C
  C136     1.0000 0.96020  0.55210  0.59024  Biso   1.000  C
  C137     1.0000 0.44790  0.40810  0.59024  Biso   1.000  C
  C138     1.0000 0.59190  0.03980  0.59024  Biso   1.000  C
  C139     1.0000 0.62687  0.88543  0.92357  Biso   1.000  C
  C140     1.0000 0.11457  0.74143  0.92357  Biso   1.000  C
  C141     1.0000 0.25857  0.37313  0.92357  Biso   1.000  C
  C142     1.0000 0.29353  0.21877  0.25691  Biso   1.000  C
  C143     1.0000 0.78123  0.07477  0.25691  Biso   1.000  C
  C144     1.0000 0.92523  0.70647  0.25691  Biso   1.000  C
  C145     1.0000 0.24910  0.43550  0.27860  Biso   1.000  C
  C146     1.0000 0.56450  0.81360  0.27860  Biso   1.000  C
  C147     1.0000 0.18640  0.75090  0.27860  Biso   1.000  C
  C148     1.0000 0.91577  0.76883  0.61193  Biso   1.000  C
  C149     1.0000 0.23117  0.14693  0.61193  Biso   1.000  C
  C150     1.0000 0.85307  0.08423  0.61193  Biso   1.000  C
  C151     1.0000 0.58243  0.10217  0.94527  Biso   1.000  C
  C152     1.0000 0.89783  0.48027  0.94527  Biso   1.000  C
  C153     1.0000 0.51973  0.41757  0.94527  Biso   1.000  C
  C154     1.0000 0.75090  0.56450  0.72140  Biso   1.000  C
  C155     1.0000 0.43550  0.18640  0.72140  Biso   1.000  C
  C156     1.0000 0.81360  0.24910  0.72140  Biso   1.000  C
  C157     1.0000 0.41757  0.89783  0.05473  Biso   1.000  C
  C158     1.0000 0.10217  0.51973  0.05473  Biso   1.000  C
  C159     1.0000 0.48027  0.58243  0.05473  Biso   1.000  C
  C160     1.0000 0.08423  0.23117  0.38807  Biso   1.000  C
  C161     1.0000 0.76883  0.85307  0.38807  Biso   1.000  C
  C162     1.0000 0.14693  0.91577  0.38807  Biso   1.000  C
  C163     1.0000 0.39420  0.49360  0.28000  Biso   1.000  C
  C164     1.0000 0.50640  0.90060  0.28000  Biso   1.000  C
  C165     1.0000 0.09940  0.60580  0.28000  Biso   1.000  C
  C166     1.0000 0.06087  0.82693  0.61333  Biso   1.000  C
  C167     1.0000 0.17307  0.23393  0.61333  Biso   1.000  C
  C168     1.0000 0.76607  0.93913  0.61333  Biso   1.000  C
  C169     1.0000 0.72753  0.16027  0.94667  Biso   1.000  C
  C170     1.0000 0.83973  0.56727  0.94667  Biso   1.000  C
  C171     1.0000 0.43273  0.27247  0.94667  Biso   1.000  C
  C172     1.0000 0.60580  0.50640  0.72000  Biso   1.000  C
  C173     1.0000 0.49360  0.09940  0.72000  Biso   1.000  C
  C174     1.0000 0.90060  0.39420  0.72000  Biso   1.000  C
  C175     1.0000 0.27247  0.83973  0.05333  Biso   1.000  C
  C176     1.0000 0.16027  0.43273  0.05333  Biso   1.000  C
  C177     1.0000 0.56727  0.72753  0.05333  Biso   1.000  C
  C178     1.0000 0.93913  0.17307  0.38667  Biso   1.000  C
  C179     1.0000 0.82693  0.76607  0.38667  Biso   1.000  C
  C180     1.0000 0.23393  0.06087  0.38667  Biso   1.000  C
  H55      1.0000 0.44820  0.51750  0.29390  Biso   1.000  H
  H56      1.0000 0.48250  0.93070  0.29390  Biso   1.000  H
  H57      1.0000 0.06930  0.55180  0.29390  Biso   1.000  H
  H58      1.0000 0.11487  0.85083  0.62723  Biso   1.000  H
  H59      1.0000 0.14917  0.26403  0.62723  Biso   1.000  H
  H60      1.0000 0.73597  0.88513  0.62723  Biso   1.000  H
  H61      1.0000 0.78153  0.18417  0.96057  Biso   1.000  H
  H62      1.0000 0.81583  0.59737  0.96057  Biso   1.000  H
  H63      1.0000 0.40263  0.21847  0.96057  Biso   1.000  H
  H64      1.0000 0.55180  0.48250  0.70610  Biso   1.000  H
  H65      1.0000 0.51750  0.06930  0.70610  Biso   1.000  H
  H66      1.0000 0.93070  0.44820  0.70610  Biso   1.000  H
  H67      1.0000 0.21847  0.81583  0.03943  Biso   1.000  H
  H68      1.0000 0.18417  0.40263  0.03943  Biso   1.000  H
  H69      1.0000 0.59737  0.78153  0.03943  Biso   1.000  H
  H70      1.0000 0.88513  0.14917  0.37277  Biso   1.000  H
  H71      1.0000 0.85083  0.73597  0.37277  Biso   1.000  H
  H72      1.0000 0.26403  0.11487  0.37277  Biso   1.000  H
  C181     1.0000 0.37360  0.45140  0.23440  Biso   1.000  C
  C182     1.0000 0.54860  0.92220  0.23440  Biso   1.000  C
  C183     1.0000 0.07780  0.62640  0.23440  Biso   1.000  C
  C184     1.0000 0.04027  0.78473  0.56773  Biso   1.000  C
  C185     1.0000 0.21527  0.25553  0.56773  Biso   1.000  C
  C186     1.0000 0.74447  0.95973  0.56773  Biso   1.000  C
  C187     1.0000 0.70693  0.11807  0.90107  Biso   1.000  C
  C188     1.0000 0.88193  0.58887  0.90107  Biso   1.000  C
  C189     1.0000 0.41113  0.29307  0.90107  Biso   1.000  C
  C190     1.0000 0.62640  0.54860  0.76560  Biso   1.000  C
  C191     1.0000 0.45140  0.07780  0.76560  Biso   1.000  C
  C192     1.0000 0.92220  0.37360  0.76560  Biso   1.000  C
  C193     1.0000 0.29307  0.88193  0.09893  Biso   1.000  C
  C194     1.0000 0.11807  0.41113  0.09893  Biso   1.000  C
  C195     1.0000 0.58887  0.70693  0.09893  Biso   1.000  C
  C196     1.0000 0.95973  0.21527  0.43227  Biso   1.000  C
  C197     1.0000 0.78473  0.74447  0.43227  Biso   1.000  C
  C198     1.0000 0.25553  0.04027  0.43227  Biso   1.000  C
  H73      1.0000 0.41160  0.44610  0.21120  Biso   1.000  H
  H74      1.0000 0.55390  0.96550  0.21120  Biso   1.000  H
  H75      1.0000 0.03450  0.58840  0.21120  Biso   1.000  H
  H76      1.0000 0.07827  0.77943  0.54453  Biso   1.000  H
  H77      1.0000 0.22057  0.29883  0.54453  Biso   1.000  H
  H78      1.0000 0.70117  0.92173  0.54453  Biso   1.000  H
  H79      1.0000 0.74493  0.11277  0.87787  Biso   1.000  H
  H80      1.0000 0.88723  0.63217  0.87787  Biso   1.000  H
  H81      1.0000 0.36783  0.25507  0.87787  Biso   1.000  H
  H82      1.0000 0.58840  0.55390  0.78880  Biso   1.000  H
  H83      1.0000 0.44610  0.03450  0.78880  Biso   1.000  H
  H84      1.0000 0.96550  0.41160  0.78880  Biso   1.000  H
  H85      1.0000 0.25507  0.88723  0.12213  Biso   1.000  H
  H86      1.0000 0.11277  0.36783  0.12213  Biso   1.000  H
  H87      1.0000 0.63217  0.74493  0.12213  Biso   1.000  H
  H88      1.0000 0.92173  0.22057  0.45547  Biso   1.000  H
  H89      1.0000 0.77943  0.70117  0.45547  Biso   1.000  H
  H90      1.0000 0.29883  0.07827  0.45547  Biso   1.000  H
  C199     1.0000 0.32820  0.50720  0.31364  Biso   1.000  C
  C200     1.0000 0.49280  0.82100  0.31364  Biso   1.000  C
  C201     1.0000 0.17900  0.67180  0.31364  Biso   1.000  C
  C202     1.0000 0.99487  0.84053  0.64697  Biso   1.000  C
  C203     1.0000 0.15947  0.15433  0.64697  Biso   1.000  C
  C204     1.0000 0.84567  0.00513  0.64697  Biso   1.000  C
  C205     1.0000 0.66153  0.17387  0.98031  Biso   1.000  C
  C206     1.0000 0.82613  0.48767  0.98031  Biso   1.000  C
  C207     1.0000 0.51233  0.33847  0.98031  Biso   1.000  C
  C208     1.0000 0.67180  0.49280  0.68636  Biso   1.000  C
  C209     1.0000 0.50720  0.17900  0.68636  Biso   1.000  C
  C210     1.0000 0.82100  0.32820  0.68636  Biso   1.000  C
  C211     1.0000 0.33847  0.82613  0.01969  Biso   1.000  C
  C212     1.0000 0.17387  0.51233  0.01969  Biso   1.000  C
  C213     1.0000 0.48767  0.66153  0.01969  Biso   1.000  C
  C214     1.0000 0.00513  0.15947  0.35303  Biso   1.000  C
  C215     1.0000 0.84053  0.84567  0.35303  Biso   1.000  C
  C216     1.0000 0.15433  0.99487  0.35303  Biso   1.000  C
  H91      1.0000 0.33270  0.54310  0.34340  Biso   1.000  H
  H92      1.0000 0.45690  0.78960  0.34340  Biso   1.000  H
  H93      1.0000 0.21040  0.66730  0.34340  Biso   1.000  H
  H94      1.0000 0.99937  0.87643  0.67673  Biso   1.000  H
  H95      1.0000 0.12357  0.12293  0.67673  Biso   1.000  H
  H96      1.0000 0.87707  0.00063  0.67673  Biso   1.000  H
  H97      1.0000 0.66603  0.20977  0.01007  Biso   1.000  H
  H98      1.0000 0.79023  0.45627  0.01007  Biso   1.000  H
  H99      1.0000 0.54373  0.33397  0.01007  Biso   1.000  H
  H100     1.0000 0.66730  0.45690  0.65660  Biso   1.000  H
  H101     1.0000 0.54310  0.21040  0.65660  Biso   1.000  H
  H102     1.0000 0.78960  0.33270  0.65660  Biso   1.000  H
  H103     1.0000 0.33397  0.79023  0.98993  Biso   1.000  H
  H104     1.0000 0.20977  0.54373  0.98993  Biso   1.000  H
  H105     1.0000 0.45627  0.66603  0.98993  Biso   1.000  H
  H106     1.0000 0.00063  0.12357  0.32327  Biso   1.000  H
  H107     1.0000 0.87643  0.87707  0.32327  Biso   1.000  H
  H108     1.0000 0.12293  0.99937  0.32327  Biso   1.000  H
  S1       1.0000 0.27629  0.40565  0.21714  Biso   1.000  S
  S2       1.0000 0.59435  0.87064  0.21714  Biso   1.000  S
  S3       1.0000 0.12936  0.72371  0.21714  Biso   1.000  S
  S4       1.0000 0.94296  0.73898  0.55047  Biso   1.000  S
  S5       1.0000 0.26102  0.20397  0.55047  Biso   1.000  S
  S6       1.0000 0.79603  0.05704  0.55047  Biso   1.000  S
  S7       1.0000 0.60962  0.07232  0.88381  Biso   1.000  S
  S8       1.0000 0.92768  0.53731  0.88381  Biso   1.000  S
  S9       1.0000 0.46269  0.39038  0.88381  Biso   1.000  S
  S10      1.0000 0.72371  0.59435  0.78286  Biso   1.000  S
  S11      1.0000 0.40565  0.12936  0.78286  Biso   1.000  S
  S12      1.0000 0.87064  0.27629  0.78286  Biso   1.000  S
  S13      1.0000 0.39038  0.92768  0.11619  Biso   1.000  S
  S14      1.0000 0.07232  0.46269  0.11619  Biso   1.000  S
  S15      1.0000 0.53731  0.60962  0.11619  Biso   1.000  S
  S16      1.0000 0.05704  0.26102  0.44953  Biso   1.000  S
  S17      1.0000 0.73898  0.79603  0.44953  Biso   1.000  S
  S18      1.0000 0.20397  0.94296  0.44953  Biso   1.000  S
  Cu1      1.0000 0.87799  0.13346  0.15327  Biso   1.000  Cu
  Cu2      1.0000 0.86654  0.74453  0.15327  Biso   1.000  Cu
  Cu3      1.0000 0.25547  0.12201  0.15327  Biso   1.000  Cu
  Cu4      1.0000 0.54466  0.46679  0.48660  Biso   1.000  Cu
  Cu5      1.0000 0.53321  0.07786  0.48660  Biso   1.000  Cu
  Cu6      1.0000 0.92214  0.45534  0.48660  Biso   1.000  Cu
  Cu7      1.0000 0.21132  0.80013  0.81994  Biso   1.000  Cu
  Cu8      1.0000 0.19987  0.41120  0.81994  Biso   1.000  Cu
  Cu9      1.0000 0.58880  0.78868  0.81994  Biso   1.000  Cu
  Cu10     1.0000 0.12201  0.86654  0.84673  Biso   1.000  Cu
  Cu11     1.0000 0.13346  0.25547  0.84673  Biso   1.000  Cu
  Cu12     1.0000 0.74453  0.87799  0.84673  Biso   1.000  Cu
  Cu13     1.0000 0.78868  0.19987  0.18006  Biso   1.000  Cu
  Cu14     1.0000 0.80013  0.58880  0.18006  Biso   1.000  Cu
  Cu15     1.0000 0.41120  0.21132  0.18006  Biso   1.000  Cu
  Cu16     1.0000 0.45534  0.53321  0.51340  Biso   1.000  Cu
  Cu17     1.0000 0.46679  0.92214  0.51340  Biso   1.000  Cu
  Cu18     1.0000 0.07786  0.54466  0.51340  Biso   1.000  Cu
  O1       1.0000 0.96029  0.22484  0.20234  Biso   1.000  O
  O2       1.0000 0.77516  0.73545  0.20234  Biso   1.000  O
  O3       1.0000 0.26455  0.03971  0.20234  Biso   1.000  O
  O4       1.0000 0.62696  0.55817  0.53567  Biso   1.000  O
  O5       1.0000 0.44183  0.06878  0.53567  Biso   1.000  O
  O6       1.0000 0.93122  0.37304  0.53567  Biso   1.000  O
  O7       1.0000 0.29362  0.89151  0.86901  Biso   1.000  O
  O8       1.0000 0.10849  0.40212  0.86901  Biso   1.000  O
  O9       1.0000 0.59788  0.70638  0.86901  Biso   1.000  O
  O10      1.0000 0.03971  0.77516  0.79766  Biso   1.000  O
  O11      1.0000 0.22484  0.26455  0.79766  Biso   1.000  O
  O12      1.0000 0.73545  0.96029  0.79766  Biso   1.000  O
  O13      1.0000 0.70638  0.10849  0.13099  Biso   1.000  O
  O14      1.0000 0.89151  0.59788  0.13099  Biso   1.000  O
  O15      1.0000 0.40212  0.29362  0.13099  Biso   1.000  O
  O16      1.0000 0.37304  0.44183  0.46433  Biso   1.000  O
  O17      1.0000 0.55817  0.93122  0.46433  Biso   1.000  O
  O18      1.0000 0.06878  0.62696  0.46433  Biso   1.000  O
  O19      1.0000 0.88356  0.28171  0.22738  Biso   1.000  O
  O20      1.0000 0.71829  0.60185  0.22738  Biso   1.000  O
  O21      1.0000 0.39815  0.11644  0.22738  Biso   1.000  O
  O22      1.0000 0.55023  0.61504  0.56071  Biso   1.000  O
  O23      1.0000 0.38496  0.93518  0.56071  Biso   1.000  O
  O24      1.0000 0.06482  0.44977  0.56071  Biso   1.000  O
  O25      1.0000 0.21689  0.94838  0.89405  Biso   1.000  O
  O26      1.0000 0.05162  0.26852  0.89405  Biso   1.000  O
  O27      1.0000 0.73148  0.78311  0.89405  Biso   1.000  O
  O28      1.0000 0.11644  0.71829  0.77262  Biso   1.000  O
  O29      1.0000 0.28171  0.39815  0.77262  Biso   1.000  O
  O30      1.0000 0.60185  0.88356  0.77262  Biso   1.000  O
  O31      1.0000 0.78311  0.05162  0.10595  Biso   1.000  O
  O32      1.0000 0.94838  0.73148  0.10595  Biso   1.000  O
  O33      1.0000 0.26852  0.21689  0.10595  Biso   1.000  O
  O34      1.0000 0.44977  0.38496  0.43929  Biso   1.000  O
  O35      1.0000 0.61504  0.06482  0.43929  Biso   1.000  O
  O36      1.0000 0.93518  0.55023  0.43929  Biso   1.000  O
  O37      1.0000 0.96496  0.42420  0.41848  Biso   1.000  O
  O38      1.0000 0.57580  0.54076  0.41848  Biso   1.000  O
  O39      1.0000 0.45924  0.03504  0.41848  Biso   1.000  O
  O40      1.0000 0.63163  0.75753  0.75181  Biso   1.000  O
  O41      1.0000 0.24247  0.87409  0.75181  Biso   1.000  O
  O42      1.0000 0.12591  0.36837  0.75181  Biso   1.000  O
  O43      1.0000 0.29829  0.09087  0.08515  Biso   1.000  O
  O44      1.0000 0.90913  0.20743  0.08515  Biso   1.000  O
  O45      1.0000 0.79257  0.70171  0.08515  Biso   1.000  O
  O46      1.0000 0.03504  0.57580  0.58152  Biso   1.000  O
  O47      1.0000 0.42420  0.45924  0.58152  Biso   1.000  O
  O48      1.0000 0.54076  0.96496  0.58152  Biso   1.000  O
  O49      1.0000 0.70171  0.90913  0.91485  Biso   1.000  O
  O50      1.0000 0.09087  0.79257  0.91485  Biso   1.000  O
  O51      1.0000 0.20743  0.29829  0.91485  Biso   1.000  O
  O52      1.0000 0.36837  0.24247  0.24819  Biso   1.000  O
  O53      1.0000 0.75753  0.12591  0.24819  Biso   1.000  O
  O54      1.0000 0.87409  0.63163  0.24819  Biso   1.000  O
  O55      1.0000 0.09795  0.49540  0.44356  Biso   1.000  O
  O56      1.0000 0.50460  0.60255  0.44356  Biso   1.000  O
  O57      1.0000 0.39745  0.90205  0.44356  Biso   1.000  O
  O58      1.0000 0.76462  0.82873  0.77689  Biso   1.000  O
  O59      1.0000 0.17127  0.93588  0.77689  Biso   1.000  O
  O60      1.0000 0.06412  0.23538  0.77689  Biso   1.000  O
  O61      1.0000 0.43128  0.16207  0.11023  Biso   1.000  O
  O62      1.0000 0.83793  0.26922  0.11023  Biso   1.000  O
  O63      1.0000 0.73078  0.56872  0.11023  Biso   1.000  O
  O64      1.0000 0.90205  0.50460  0.55644  Biso   1.000  O
  O65      1.0000 0.49540  0.39745  0.55644  Biso   1.000  O
  O66      1.0000 0.60255  0.09795  0.55644  Biso   1.000  O
  O67      1.0000 0.56872  0.83793  0.88977  Biso   1.000  O
  O68      1.0000 0.16207  0.73078  0.88977  Biso   1.000  O
  O69      1.0000 0.26922  0.43128  0.88977  Biso   1.000  O
  O70      1.0000 0.23538  0.17127  0.22311  Biso   1.000  O
  O71      1.0000 0.82873  0.06412  0.22311  Biso   1.000  O
  O72      1.0000 0.93588  0.76462  0.22311  Biso   1.000  O
  O73      1.0000 0.96790  0.09490  0.14131  Biso   1.000  O
  O74      1.0000 0.90510  0.87300  0.14131  Biso   1.000  O
  O75      1.0000 0.12700  0.03210  0.14131  Biso   1.000  O
  O76      1.0000 0.63457  0.42823  0.47464  Biso   1.000  O
  O77      1.0000 0.57177  0.20633  0.47464  Biso   1.000  O
  O78      1.0000 0.79367  0.36543  0.47464  Biso   1.000  O
  O79      1.0000 0.30123  0.76157  0.80798  Biso   1.000  O
  O80      1.0000 0.23843  0.53967  0.80798  Biso   1.000  O
  O81      1.0000 0.46033  0.69877  0.80798  Biso   1.000  O
  O82      1.0000 0.03210  0.90510  0.85869  Biso   1.000  O
  O83      1.0000 0.09490  0.12700  0.85869  Biso   1.000  O
  O84      1.0000 0.87300  0.96790  0.85869  Biso   1.000  O
  O85      1.0000 0.69877  0.23843  0.19202  Biso   1.000  O
  O86      1.0000 0.76157  0.46033  0.19202  Biso   1.000  O
  O87      1.0000 0.53967  0.30123  0.19202  Biso   1.000  O
  O88      1.0000 0.36543  0.57177  0.52536  Biso   1.000  O
  O89      1.0000 0.42823  0.79367  0.52536  Biso   1.000  O
  O90      1.0000 0.20633  0.63457  0.52536  Biso   1.000  O
  H109     1.0000 0.98730  0.10320  0.10790  Biso   1.000  H
  H110     1.0000 0.89680  0.88410  0.10790  Biso   1.000  H
  H111     1.0000 0.11590  0.01270  0.10790  Biso   1.000  H
  H112     1.0000 0.65397  0.43653  0.44123  Biso   1.000  H
  H113     1.0000 0.56347  0.21743  0.44123  Biso   1.000  H
  H114     1.0000 0.78257  0.34603  0.44123  Biso   1.000  H
  H115     1.0000 0.32063  0.76987  0.77457  Biso   1.000  H
  H116     1.0000 0.23013  0.55077  0.77457  Biso   1.000  H
  H117     1.0000 0.44923  0.67937  0.77457  Biso   1.000  H
  H118     1.0000 0.01270  0.89680  0.89210  Biso   1.000  H
  H119     1.0000 0.10320  0.11590  0.89210  Biso   1.000  H
  H120     1.0000 0.88410  0.98730  0.89210  Biso   1.000  H
  H121     1.0000 0.67937  0.23013  0.22543  Biso   1.000  H
  H122     1.0000 0.76987  0.44923  0.22543  Biso   1.000  H
  H123     1.0000 0.55077  0.32063  0.22543  Biso   1.000  H
  H124     1.0000 0.34603  0.56347  0.55877  Biso   1.000  H
  H125     1.0000 0.43653  0.78257  0.55877  Biso   1.000  H
  H126     1.0000 0.21743  0.65397  0.55877  Biso   1.000  H
  H127     1.0000 0.96520  0.06520  0.16860  Biso   1.000  H
  H128     1.0000 0.93480  0.90000  0.16860  Biso   1.000  H
  H129     1.0000 0.10000  0.03480  0.16860  Biso   1.000  H
  H130     1.0000 0.63187  0.39853  0.50193  Biso   1.000  H
  H131     1.0000 0.60147  0.23333  0.50193  Biso   1.000  H
  H132     1.0000 0.76667  0.36813  0.50193  Biso   1.000  H
  H133     1.0000 0.29853  0.73187  0.83527  Biso   1.000  H
  H134     1.0000 0.26813  0.56667  0.83527  Biso   1.000  H
  H135     1.0000 0.43333  0.70147  0.83527  Biso   1.000  H
  H136     1.0000 0.03480  0.93480  0.83140  Biso   1.000  H
  H137     1.0000 0.06520  0.10000  0.83140  Biso   1.000  H
  H138     1.0000 0.90000  0.96520  0.83140  Biso   1.000  H
  H139     1.0000 0.70147  0.26813  0.16473  Biso   1.000  H
  H140     1.0000 0.73187  0.43333  0.16473  Biso   1.000  H
  H141     1.0000 0.56667  0.29853  0.16473  Biso   1.000  H
  H142     1.0000 0.36813  0.60147  0.49807  Biso   1.000  H
  H143     1.0000 0.39853  0.76667  0.49807  Biso   1.000  H
  H144     1.0000 0.23333  0.63187  0.49807  Biso   1.000  H
  H145     1.0000 0.25080  0.36660  0.18730  Biso   1.000  H
  H146     1.0000 0.63340  0.88420  0.18730  Biso   1.000  H
  H147     1.0000 0.11580  0.74920  0.18730  Biso   1.000  H
  H148     1.0000 0.91747  0.69993  0.52063  Biso   1.000  H
  H149     1.0000 0.30007  0.21753  0.52063  Biso   1.000  H
  H150     1.0000 0.78247  0.08253  0.52063  Biso   1.000  H
  H151     1.0000 0.58413  0.03327  0.85397  Biso   1.000  H
  H152     1.0000 0.96673  0.55087  0.85397  Biso   1.000  H
  H153     1.0000 0.44913  0.41587  0.85397  Biso   1.000  H
  H154     1.0000 0.74920  0.63340  0.81270  Biso   1.000  H
  H155     1.0000 0.36660  0.11580  0.81270  Biso   1.000  H
  H156     1.0000 0.88420  0.25080  0.81270  Biso   1.000  H
  H157     1.0000 0.41587  0.96673  0.14603  Biso   1.000  H
  H158     1.0000 0.03327  0.44913  0.14603  Biso   1.000  H
  H159     1.0000 0.55087  0.58413  0.14603  Biso   1.000  H
  H160     1.0000 0.08253  0.30007  0.47937  Biso   1.000  H
  H161     1.0000 0.69993  0.78247  0.47937  Biso   1.000  H
  H162     1.0000 0.21753  0.91747  0.47937  Biso   1.000  H
