data_image0
_cell_length_a       10.7632
_cell_length_b       10.7632
_cell_length_c       30.626
_cell_angle_alpha    90
_cell_angle_beta     90
_cell_angle_gamma    90

_symmetry_space_group_name_H-M    "P 1"
_symmetry_int_tables_number       1

loop_
  _symmetry_equiv_pos_as_xyz
  'x, y, z'

loop_
  _atom_site_label
  _atom_site_occupancy
  _atom_site_fract_x
  _atom_site_fract_y
  _atom_site_fract_z
  _atom_site_thermal_displace_type
  _atom_site_B_iso_or_equiv
  _atom_site_type_symbol
  C1       1.0000 0.34800  0.63410  0.19040  Biso   1.000  C
  C2       1.0000 0.86590  0.84800  0.94040  Biso   1.000  C
  C3       1.0000 0.65200  0.36590  0.69040  Biso   1.000  C
  C4       1.0000 0.13410  0.15200  0.44040  Biso   1.000  C
  C5       1.0000 0.84800  0.86590  0.05960  Biso   1.000  C
  C6       1.0000 0.63410  0.34800  0.80960  Biso   1.000  C
  C7       1.0000 0.15200  0.13410  0.55960  Biso   1.000  C
  C8       1.0000 0.36590  0.65200  0.30960  Biso   1.000  C
  C9       1.0000 0.41350  0.56380  0.15440  Biso   1.000  C
  C10      1.0000 0.93620  0.91350  0.90440  Biso   1.000  C
  C11      1.0000 0.58650  0.43620  0.65440  Biso   1.000  C
  C12      1.0000 0.06380  0.08650  0.40440  Biso   1.000  C
  C13      1.0000 0.91350  0.93620  0.09560  Biso   1.000  C
  C14      1.0000 0.56380  0.41350  0.84560  Biso   1.000  C
  C15      1.0000 0.08650  0.06380  0.59560  Biso   1.000  C
  C16      1.0000 0.43620  0.58650  0.34560  Biso   1.000  C
  C17      1.0000 0.40510  0.43450  0.15200  Biso   1.000  C
  C18      1.0000 0.06550  0.90510  0.90200  Biso   1.000  C
  C19      1.0000 0.59490  0.56550  0.65200  Biso   1.000  C
  C20      1.0000 0.93450  0.09490  0.40200  Biso   1.000  C
  C21      1.0000 0.90510  0.06550  0.09800  Biso   1.000  C
  C22      1.0000 0.43450  0.40510  0.84800  Biso   1.000  C
  C23      1.0000 0.09490  0.93450  0.59800  Biso   1.000  C
  C24      1.0000 0.56550  0.59490  0.34800  Biso   1.000  C
  H1       1.0000 0.35810  0.39270  0.17280  Biso   1.000  H
  H2       1.0000 0.10730  0.85810  0.92280  Biso   1.000  H
  H3       1.0000 0.64190  0.60730  0.67280  Biso   1.000  H
  H4       1.0000 0.89270  0.14190  0.42280  Biso   1.000  H
  H5       1.0000 0.85810  0.10730  0.07720  Biso   1.000  H
  H6       1.0000 0.39270  0.35810  0.82720  Biso   1.000  H
  H7       1.0000 0.14190  0.89270  0.57720  Biso   1.000  H
  H8       1.0000 0.60730  0.64190  0.32720  Biso   1.000  H
  C25      1.0000 0.46310  0.36770  0.12040  Biso   1.000  C
  C26      1.0000 0.13230  0.96310  0.87040  Biso   1.000  C
  C27      1.0000 0.53690  0.63230  0.62040  Biso   1.000  C
  C28      1.0000 0.86770  0.03690  0.37040  Biso   1.000  C
  C29      1.0000 0.96310  0.13230  0.12960  Biso   1.000  C
  C30      1.0000 0.36770  0.46310  0.87960  Biso   1.000  C
  C31      1.0000 0.03690  0.86770  0.62960  Biso   1.000  C
  C32      1.0000 0.63230  0.53690  0.37960  Biso   1.000  C
  C33      1.0000 0.53880  0.43720  0.09000  Biso   1.000  C
  C34      1.0000 0.06280  0.03880  0.84000  Biso   1.000  C
  C35      1.0000 0.46120  0.56280  0.59000  Biso   1.000  C
  C36      1.0000 0.93720  0.96120  0.34000  Biso   1.000  C
  C37      1.0000 0.03880  0.06280  0.16000  Biso   1.000  C
  C38      1.0000 0.43720  0.53880  0.91000  Biso   1.000  C
  C39      1.0000 0.96120  0.93720  0.66000  Biso   1.000  C
  C40      1.0000 0.56280  0.46120  0.41000  Biso   1.000  C
  H9       1.0000 0.58400  0.39470  0.06880  Biso   1.000  H
  H10      1.0000 0.10530  0.08400  0.81880  Biso   1.000  H
  H11      1.0000 0.41600  0.60530  0.56880  Biso   1.000  H
  H12      1.0000 0.89470  0.91600  0.31880  Biso   1.000  H
  H13      1.0000 0.08400  0.10530  0.18120  Biso   1.000  H
  H14      1.0000 0.39470  0.58400  0.93120  Biso   1.000  H
  H15      1.0000 0.91600  0.89470  0.68120  Biso   1.000  H
  H16      1.0000 0.60530  0.41600  0.43120  Biso   1.000  H
  C41      1.0000 0.54520  0.56400  0.09160  Biso   1.000  C
  C42      1.0000 0.93600  0.04520  0.84160  Biso   1.000  C
  C43      1.0000 0.45480  0.43600  0.59160  Biso   1.000  C
  C44      1.0000 0.06400  0.95480  0.34160  Biso   1.000  C
  C45      1.0000 0.04520  0.93600  0.15840  Biso   1.000  C
  C46      1.0000 0.56400  0.54520  0.90840  Biso   1.000  C
  C47      1.0000 0.95480  0.06400  0.65840  Biso   1.000  C
  C48      1.0000 0.43600  0.45480  0.40840  Biso   1.000  C
  C49      1.0000 0.48320  0.62800  0.12390  Biso   1.000  C
  C50      1.0000 0.87200  0.98320  0.87390  Biso   1.000  C
  C51      1.0000 0.51680  0.37200  0.62390  Biso   1.000  C
  C52      1.0000 0.12800  0.01680  0.37390  Biso   1.000  C
  C53      1.0000 0.98320  0.87200  0.12610  Biso   1.000  C
  C54      1.0000 0.62800  0.48320  0.87610  Biso   1.000  C
  C55      1.0000 0.01680  0.12800  0.62610  Biso   1.000  C
  C56      1.0000 0.37200  0.51680  0.37610  Biso   1.000  C
  H17      1.0000 0.48830  0.71420  0.12530  Biso   1.000  H
  H18      1.0000 0.78580  0.98830  0.87530  Biso   1.000  H
  H19      1.0000 0.51170  0.28580  0.62530  Biso   1.000  H
  H20      1.0000 0.21420  0.01170  0.37530  Biso   1.000  H
  H21      1.0000 0.98830  0.78580  0.12470  Biso   1.000  H
  H22      1.0000 0.71420  0.48830  0.87470  Biso   1.000  H
  H23      1.0000 0.01170  0.21420  0.62470  Biso   1.000  H
  H24      1.0000 0.28580  0.51170  0.37470  Biso   1.000  H
  C57      1.0000 0.61960  0.63290  0.05700  Biso   1.000  C
  C58      1.0000 0.86710  0.11960  0.80700  Biso   1.000  C
  C59      1.0000 0.38040  0.36710  0.55700  Biso   1.000  C
  C60      1.0000 0.13290  0.88040  0.30700  Biso   1.000  C
  C61      1.0000 0.11960  0.86710  0.19300  Biso   1.000  C
  C62      1.0000 0.63290  0.61960  0.94300  Biso   1.000  C
  C63      1.0000 0.88040  0.13290  0.69300  Biso   1.000  C
  C64      1.0000 0.36710  0.38040  0.44300  Biso   1.000  C
  C65      1.0000 0.45290  0.22960  0.11640  Biso   1.000  C
  C66      1.0000 0.27040  0.95290  0.86640  Biso   1.000  C
  C67      1.0000 0.54710  0.77040  0.61640  Biso   1.000  C
  C68      1.0000 0.72960  0.04710  0.36640  Biso   1.000  C
  C69      1.0000 0.95290  0.27040  0.13360  Biso   1.000  C
  C70      1.0000 0.22960  0.45290  0.88360  Biso   1.000  C
  C71      1.0000 0.04710  0.72960  0.63360  Biso   1.000  C
  C72      1.0000 0.77040  0.54710  0.38360  Biso   1.000  C
  C73      1.0000 0.36390  0.15100  0.14250  Biso   1.000  C
  C74      1.0000 0.34900  0.86390  0.89250  Biso   1.000  C
  C75      1.0000 0.63610  0.84900  0.64250  Biso   1.000  C
  C76      1.0000 0.65100  0.13610  0.39250  Biso   1.000  C
  C77      1.0000 0.86390  0.34900  0.10750  Biso   1.000  C
  C78      1.0000 0.15100  0.36390  0.85750  Biso   1.000  C
  C79      1.0000 0.13610  0.65100  0.60750  Biso   1.000  C
  C80      1.0000 0.84900  0.63610  0.35750  Biso   1.000  C
  H25      1.0000 0.30340  0.17700  0.16220  Biso   1.000  H
  H26      1.0000 0.32300  0.80340  0.91220  Biso   1.000  H
  H27      1.0000 0.69660  0.82300  0.66220  Biso   1.000  H
  H28      1.0000 0.67700  0.19660  0.41220  Biso   1.000  H
  H29      1.0000 0.80340  0.32300  0.08780  Biso   1.000  H
  H30      1.0000 0.17700  0.30340  0.83780  Biso   1.000  H
  H31      1.0000 0.19660  0.67700  0.58780  Biso   1.000  H
  H32      1.0000 0.82300  0.69660  0.33780  Biso   1.000  H
  C81      1.0000 0.39540  0.02470  0.12960  Biso   1.000  C
  C82      1.0000 0.47530  0.89540  0.87960  Biso   1.000  C
  C83      1.0000 0.60460  0.97530  0.62960  Biso   1.000  C
  C84      1.0000 0.52470  0.10460  0.37960  Biso   1.000  C
  C85      1.0000 0.89540  0.47530  0.12040  Biso   1.000  C
  C86      1.0000 0.02470  0.39540  0.87040  Biso   1.000  C
  C87      1.0000 0.10460  0.52470  0.62040  Biso   1.000  C
  C88      1.0000 0.97530  0.60460  0.37040  Biso   1.000  C
  H33      1.0000 0.35520  0.95570  0.14120  Biso   1.000  H
  H34      1.0000 0.54430  0.85520  0.89120  Biso   1.000  H
  H35      1.0000 0.64480  0.04430  0.64120  Biso   1.000  H
  H36      1.0000 0.45570  0.14480  0.39120  Biso   1.000  H
  H37      1.0000 0.85520  0.54430  0.10880  Biso   1.000  H
  H38      1.0000 0.95570  0.35520  0.85880  Biso   1.000  H
  H39      1.0000 0.14480  0.45570  0.60880  Biso   1.000  H
  H40      1.0000 0.04430  0.64480  0.35880  Biso   1.000  H
  C89      1.0000 0.49110  0.01450  0.09840  Biso   1.000  C
  C90      1.0000 0.48550  0.99110  0.84840  Biso   1.000  C
  C91      1.0000 0.50890  0.98550  0.59840  Biso   1.000  C
  C92      1.0000 0.51450  0.00890  0.34840  Biso   1.000  C
  C93      1.0000 0.99110  0.48550  0.15160  Biso   1.000  C
  C94      1.0000 0.01450  0.49110  0.90160  Biso   1.000  C
  C95      1.0000 0.00890  0.51450  0.65160  Biso   1.000  C
  C96      1.0000 0.98550  0.50890  0.40160  Biso   1.000  C
  H41      1.0000 0.51910  0.93870  0.08770  Biso   1.000  H
  H42      1.0000 0.56130  0.01910  0.83770  Biso   1.000  H
  H43      1.0000 0.48090  0.06130  0.58770  Biso   1.000  H
  H44      1.0000 0.43870  0.98090  0.33770  Biso   1.000  H
  H45      1.0000 0.01910  0.56130  0.16230  Biso   1.000  H
  H46      1.0000 0.93870  0.51910  0.91230  Biso   1.000  H
  H47      1.0000 0.98090  0.43870  0.66230  Biso   1.000  H
  H48      1.0000 0.06130  0.48090  0.41230  Biso   1.000  H
  Cu1      1.0000 0.15722  0.67103  0.25198  Biso   1.000  Cu
  Cu2      1.0000 0.82897  0.65722  0.00198  Biso   1.000  Cu
  Cu3      1.0000 0.84278  0.32897  0.75198  Biso   1.000  Cu
  Cu4      1.0000 0.17103  0.34278  0.50198  Biso   1.000  Cu
  Cu5      1.0000 0.65722  0.82897  0.99802  Biso   1.000  Cu
  Cu6      1.0000 0.67103  0.15722  0.74802  Biso   1.000  Cu
  Cu7      1.0000 0.34278  0.17103  0.49802  Biso   1.000  Cu
  Cu8      1.0000 0.32897  0.84278  0.24802  Biso   1.000  Cu
  O1       1.0000 0.01900  0.53480  0.25570  Biso   1.000  O
  O2       1.0000 0.96520  0.51900  0.00570  Biso   1.000  O
  O3       1.0000 0.98100  0.46520  0.75570  Biso   1.000  O
  O4       1.0000 0.03480  0.48100  0.50570  Biso   1.000  O
  O5       1.0000 0.51900  0.96520  0.99430  Biso   1.000  O
  O6       1.0000 0.53480  0.01900  0.74430  Biso   1.000  O
  O7       1.0000 0.48100  0.03480  0.49430  Biso   1.000  O
  O8       1.0000 0.46520  0.98100  0.24430  Biso   1.000  O
  H49      1.0000 0.99890  0.51180  0.23010  Biso   1.000  H
  H50      1.0000 0.98820  0.49890  0.98010  Biso   1.000  H
  H51      1.0000 0.00110  0.48820  0.73010  Biso   1.000  H
  H52      1.0000 0.01180  0.50110  0.48010  Biso   1.000  H
  H53      1.0000 0.49890  0.98820  0.01990  Biso   1.000  H
  H54      1.0000 0.51180  0.99890  0.76990  Biso   1.000  H
  H55      1.0000 0.50110  0.01180  0.51990  Biso   1.000  H
  H56      1.0000 0.48820  0.00110  0.26990  Biso   1.000  H
  H57      1.0000 0.99950  0.51970  0.28200  Biso   1.000  H
  H58      1.0000 0.98030  0.49950  0.03200  Biso   1.000  H
  H59      1.0000 0.00050  0.48030  0.78200  Biso   1.000  H
  H60      1.0000 0.01970  0.50050  0.53200  Biso   1.000  H
  H61      1.0000 0.49950  0.98030  0.96800  Biso   1.000  H
  H62      1.0000 0.51970  0.99950  0.71800  Biso   1.000  H
  H63      1.0000 0.50050  0.01970  0.46800  Biso   1.000  H
  H64      1.0000 0.48030  0.00050  0.21800  Biso   1.000  H
  O9       1.0000 0.26750  0.57590  0.21284  Biso   1.000  O
  O10      1.0000 0.92410  0.76750  0.96284  Biso   1.000  O
  O11      1.0000 0.73250  0.42410  0.71284  Biso   1.000  O
  O12      1.0000 0.07590  0.23250  0.46284  Biso   1.000  O
  O13      1.0000 0.76750  0.92410  0.03716  Biso   1.000  O
  O14      1.0000 0.57590  0.26750  0.78716  Biso   1.000  O
  O15      1.0000 0.23250  0.07590  0.53716  Biso   1.000  O
  O16      1.0000 0.42410  0.73250  0.28716  Biso   1.000  O
  O17      1.0000 0.38090  0.74380  0.19611  Biso   1.000  O
  O18      1.0000 0.75620  0.88090  0.94611  Biso   1.000  O
  O19      1.0000 0.61910  0.25620  0.69611  Biso   1.000  O
  O20      1.0000 0.24380  0.11910  0.44611  Biso   1.000  O
  O21      1.0000 0.88090  0.75620  0.05389  Biso   1.000  O
  O22      1.0000 0.74380  0.38090  0.80389  Biso   1.000  O
  O23      1.0000 0.11910  0.24380  0.55389  Biso   1.000  O
  O24      1.0000 0.25620  0.61910  0.30389  Biso   1.000  O
  O25      1.0000 0.58980  0.74280  0.05019  Biso   1.000  O
  O26      1.0000 0.75720  0.08980  0.80019  Biso   1.000  O
  O27      1.0000 0.41020  0.25720  0.55019  Biso   1.000  O
  O28      1.0000 0.24280  0.91020  0.30019  Biso   1.000  O
  O29      1.0000 0.08980  0.75720  0.19981  Biso   1.000  O
  O30      1.0000 0.74280  0.58980  0.94981  Biso   1.000  O
  O31      1.0000 0.91020  0.24280  0.69981  Biso   1.000  O
  O32      1.0000 0.25720  0.41020  0.44981  Biso   1.000  O
  O33      1.0000 0.70550  0.57330  0.03933  Biso   1.000  O
  O34      1.0000 0.92670  0.20550  0.78933  Biso   1.000  O
  O35      1.0000 0.29450  0.42670  0.53933  Biso   1.000  O
  O36      1.0000 0.07330  0.79450  0.28933  Biso   1.000  O
  O37      1.0000 0.20550  0.92670  0.21067  Biso   1.000  O
  O38      1.0000 0.57330  0.70550  0.96067  Biso   1.000  O
  O39      1.0000 0.79450  0.07330  0.71067  Biso   1.000  O
  O40      1.0000 0.42670  0.29450  0.46067  Biso   1.000  O
  S1       1.0000 0.54880  0.14890  0.08266  Biso   1.000  S
  S2       1.0000 0.35110  0.04880  0.83266  Biso   1.000  S
  S3       1.0000 0.45120  0.85110  0.58266  Biso   1.000  S
  S4       1.0000 0.64890  0.95120  0.33266  Biso   1.000  S
  S5       1.0000 0.04880  0.35110  0.16734  Biso   1.000  S
  S6       1.0000 0.14890  0.54880  0.91734  Biso   1.000  S
  S7       1.0000 0.95120  0.64890  0.66734  Biso   1.000  S
  S8       1.0000 0.85110  0.45120  0.41734  Biso   1.000  S
