data_image0
_cell_length_a       8.108
_cell_length_b       11.477
_cell_length_c       12.466
_cell_angle_alpha    90
_cell_angle_beta     94.15
_cell_angle_gamma    90

_symmetry_space_group_name_H-M    "P 1"
_symmetry_int_tables_number       1

loop_
  _symmetry_equiv_pos_as_xyz
  'x, y, z'

loop_
  _atom_site_label
  _atom_site_occupancy
  _atom_site_fract_x
  _atom_site_fract_y
  _atom_site_fract_z
  _atom_site_thermal_displace_type
  _atom_site_B_iso_or_equiv
  _atom_site_type_symbol
  Cu1      1.0000 0.00000  0.00000  0.00000  Biso   1.000  Cu
  Cu2      1.0000 0.00000  0.00000  0.50000  Biso   1.000  Cu
  Cu3      1.0000 0.50000  0.50000  0.00000  Biso   1.000  Cu
  Cu4      1.0000 0.50000  0.50000  0.50000  Biso   1.000  Cu
  O1       1.0000 0.80590  0.11400  0.92750  Biso   1.000  O
  O2       1.0000 0.19410  0.11400  0.57250  Biso   1.000  O
  O3       1.0000 0.30590  0.61400  0.92750  Biso   1.000  O
  O4       1.0000 0.69410  0.61400  0.57250  Biso   1.000  O
  O5       1.0000 0.19410  0.88600  0.07250  Biso   1.000  O
  O6       1.0000 0.80590  0.88600  0.42750  Biso   1.000  O
  O7       1.0000 0.69410  0.38600  0.07250  Biso   1.000  O
  O8       1.0000 0.30590  0.38600  0.42750  Biso   1.000  O
  N1       1.0000 0.15980  0.92600  0.40860  Biso   1.000  N
  N2       1.0000 0.84020  0.92600  0.09140  Biso   1.000  N
  N3       1.0000 0.65980  0.42600  0.40860  Biso   1.000  N
  N4       1.0000 0.34020  0.42600  0.09140  Biso   1.000  N
  N5       1.0000 0.84020  0.07400  0.59140  Biso   1.000  N
  N6       1.0000 0.15980  0.07400  0.90860  Biso   1.000  N
  N7       1.0000 0.34020  0.57400  0.59140  Biso   1.000  N
  N8       1.0000 0.65980  0.57400  0.90860  Biso   1.000  N
  N9       1.0000 0.54840  0.62890  0.11190  Biso   1.000  N
  N10      1.0000 0.45160  0.62890  0.38810  Biso   1.000  N
  N11      1.0000 0.04840  0.12890  0.11190  Biso   1.000  N
  N12      1.0000 0.95160  0.12890  0.38810  Biso   1.000  N
  N13      1.0000 0.45160  0.37110  0.88810  Biso   1.000  N
  N14      1.0000 0.54840  0.37110  0.61190  Biso   1.000  N
  N15      1.0000 0.95160  0.87110  0.88810  Biso   1.000  N
  N16      1.0000 0.04840  0.87110  0.61190  Biso   1.000  N
  N17      1.0000 0.56600  0.14570  0.08930  Biso   1.000  N
  N18      1.0000 0.43400  0.14570  0.41070  Biso   1.000  N
  N19      1.0000 0.06600  0.64570  0.08930  Biso   1.000  N
  N20      1.0000 0.93400  0.64570  0.41070  Biso   1.000  N
  N21      1.0000 0.43400  0.85430  0.91070  Biso   1.000  N
  N22      1.0000 0.56600  0.85430  0.58930  Biso   1.000  N
  N23      1.0000 0.93400  0.35430  0.91070  Biso   1.000  N
  N24      1.0000 0.06600  0.35430  0.58930  Biso   1.000  N
  C1       1.0000 0.50000  0.89860  0.25000  Biso   1.000  C
  C2       1.0000 0.00000  0.39860  0.25000  Biso   1.000  C
  C3       1.0000 0.50000  0.10140  0.75000  Biso   1.000  C
  C4       1.0000 0.00000  0.60140  0.75000  Biso   1.000  C
  C5       1.0000 0.50000  0.02150  0.25000  Biso   1.000  C
  C6       1.0000 0.00000  0.52150  0.25000  Biso   1.000  C
  C7       1.0000 0.50000  0.97850  0.75000  Biso   1.000  C
  C8       1.0000 0.00000  0.47850  0.75000  Biso   1.000  C
  C9       1.0000 0.40250  0.83670  0.32160  Biso   1.000  C
  C10      1.0000 0.59750  0.83670  0.17840  Biso   1.000  C
  C11      1.0000 0.90250  0.33670  0.32160  Biso   1.000  C
  C12      1.0000 0.09750  0.33670  0.17840  Biso   1.000  C
  C13      1.0000 0.59750  0.16330  0.67840  Biso   1.000  C
  C14      1.0000 0.40250  0.16330  0.82160  Biso   1.000  C
  C15      1.0000 0.09750  0.66330  0.67840  Biso   1.000  C
  C16      1.0000 0.90250  0.66330  0.82160  Biso   1.000  C
  C17      1.0000 0.26940  0.88830  0.36850  Biso   1.000  C
  C18      1.0000 0.73060  0.88830  0.13150  Biso   1.000  C
  C19      1.0000 0.76940  0.38830  0.36850  Biso   1.000  C
  C20      1.0000 0.23060  0.38830  0.13150  Biso   1.000  C
  C21      1.0000 0.73060  0.11170  0.63150  Biso   1.000  C
  C22      1.0000 0.26940  0.11170  0.86850  Biso   1.000  C
  C23      1.0000 0.23060  0.61170  0.63150  Biso   1.000  C
  C24      1.0000 0.76940  0.61170  0.86850  Biso   1.000  C
  C25      1.0000 0.56690  0.72100  0.14490  Biso   1.000  C
  C26      1.0000 0.43310  0.72100  0.35510  Biso   1.000  C
  C27      1.0000 0.06690  0.22100  0.14490  Biso   1.000  C
  C28      1.0000 0.93310  0.22100  0.35510  Biso   1.000  C
  C29      1.0000 0.43310  0.27900  0.85510  Biso   1.000  C
  C30      1.0000 0.56690  0.27900  0.64490  Biso   1.000  C
  C31      1.0000 0.93310  0.77900  0.85510  Biso   1.000  C
  C32      1.0000 0.06690  0.77900  0.64490  Biso   1.000  C
  C33      1.0000 0.53900  0.08820  0.16030  Biso   1.000  C
  C34      1.0000 0.46100  0.08820  0.33970  Biso   1.000  C
  C35      1.0000 0.03900  0.58820  0.16030  Biso   1.000  C
  C36      1.0000 0.96100  0.58820  0.33970  Biso   1.000  C
  C37      1.0000 0.46100  0.91180  0.83970  Biso   1.000  C
  C38      1.0000 0.53900  0.91180  0.66030  Biso   1.000  C
  C39      1.0000 0.96100  0.41180  0.83970  Biso   1.000  C
  C40      1.0000 0.03900  0.41180  0.66030  Biso   1.000  C
  H1       1.0000 0.86400  0.20700  0.91200  Biso   1.000  H
  H2       1.0000 0.13600  0.20700  0.58800  Biso   1.000  H
  H3       1.0000 0.36400  0.70700  0.91200  Biso   1.000  H
  H4       1.0000 0.63600  0.70700  0.58800  Biso   1.000  H
  H5       1.0000 0.13600  0.79300  0.08800  Biso   1.000  H
  H6       1.0000 0.86400  0.79300  0.41200  Biso   1.000  H
  H7       1.0000 0.63600  0.29300  0.08800  Biso   1.000  H
  H8       1.0000 0.36400  0.29300  0.41200  Biso   1.000  H
  H9       1.0000 0.70300  0.12300  0.96700  Biso   1.000  H
  H10      1.0000 0.29700  0.12300  0.53300  Biso   1.000  H
  H11      1.0000 0.20300  0.62300  0.96700  Biso   1.000  H
  H12      1.0000 0.79700  0.62300  0.53300  Biso   1.000  H
  H13      1.0000 0.29700  0.87700  0.03300  Biso   1.000  H
  H14      1.0000 0.70300  0.87700  0.46700  Biso   1.000  H
  H15      1.0000 0.79700  0.37700  0.03300  Biso   1.000  H
  H16      1.0000 0.20300  0.37700  0.46700  Biso   1.000  H
