data_image0
_cell_length_a       7.214
_cell_length_b       13.418
_cell_length_c       14.154
_cell_angle_alpha    90
_cell_angle_beta     94
_cell_angle_gamma    90

_symmetry_space_group_name_H-M    "P 1"
_symmetry_int_tables_number       1

loop_
  _symmetry_equiv_pos_as_xyz
  'x, y, z'

loop_
  _atom_site_label
  _atom_site_occupancy
  _atom_site_fract_x
  _atom_site_fract_y
  _atom_site_fract_z
  _atom_site_thermal_displace_type
  _atom_site_B_iso_or_equiv
  _atom_site_type_symbol
  Cu1      1.0000 0.25663  0.50648  0.25977  Biso   1.000  Cu
  Cu2      1.0000 0.24337  0.00648  0.24023  Biso   1.000  Cu
  Cu3      1.0000 0.74337  0.49352  0.74023  Biso   1.000  Cu
  Cu4      1.0000 0.75663  0.99352  0.75977  Biso   1.000  Cu
  N1       1.0000 0.46150  0.38100  0.33510  Biso   1.000  N
  N2       1.0000 0.03850  0.88100  0.16490  Biso   1.000  N
  N3       1.0000 0.53850  0.61900  0.66490  Biso   1.000  N
  N4       1.0000 0.96150  0.11900  0.83510  Biso   1.000  N
  N5       1.0000 0.71560  0.41690  0.62050  Biso   1.000  N
  N6       1.0000 0.78440  0.91690  0.87950  Biso   1.000  N
  N7       1.0000 0.28440  0.58310  0.37950  Biso   1.000  N
  N8       1.0000 0.21560  0.08310  0.12050  Biso   1.000  N
  N9       1.0000 0.16520  0.39790  0.57870  Biso   1.000  N
  N10      1.0000 0.33480  0.89790  0.92130  Biso   1.000  N
  N11      1.0000 0.83480  0.60210  0.42130  Biso   1.000  N
  N12      1.0000 0.66520  0.10210  0.07870  Biso   1.000  N
  N13      1.0000 0.20460  0.08080  0.51800  Biso   1.000  N
  N14      1.0000 0.29540  0.58080  0.98200  Biso   1.000  N
  N15      1.0000 0.79540  0.91920  0.48200  Biso   1.000  N
  N16      1.0000 0.70460  0.41920  0.01800  Biso   1.000  N
  N17      1.0000 0.03230  0.07580  0.29330  Biso   1.000  N
  N18      1.0000 0.46770  0.57580  0.20670  Biso   1.000  N
  N19      1.0000 0.96770  0.92420  0.70670  Biso   1.000  N
  N20      1.0000 0.53230  0.42420  0.79330  Biso   1.000  N
  N21      1.0000 0.45570  0.12950  0.31620  Biso   1.000  N
  N22      1.0000 0.04430  0.62950  0.18380  Biso   1.000  N
  N23      1.0000 0.54430  0.87050  0.68380  Biso   1.000  N
  N24      1.0000 0.95570  0.37050  0.81620  Biso   1.000  N
  N25      1.0000 0.03470  0.43380  0.30340  Biso   1.000  N
  N26      1.0000 0.46530  0.93380  0.19660  Biso   1.000  N
  N27      1.0000 0.96530  0.56620  0.69660  Biso   1.000  N
  N28      1.0000 0.53470  0.06620  0.80340  Biso   1.000  N
  N29      1.0000 0.21700  0.41920  0.14440  Biso   1.000  N
  N30      1.0000 0.28300  0.91920  0.35560  Biso   1.000  N
  N31      1.0000 0.78300  0.58080  0.85560  Biso   1.000  N
  N32      1.0000 0.71700  0.08080  0.64440  Biso   1.000  N
  C1       1.0000 0.83940  0.24760  0.44670  Biso   1.000  C
  C2       1.0000 0.66060  0.74760  0.05330  Biso   1.000  C
  C3       1.0000 0.16060  0.75240  0.55330  Biso   1.000  C
  C4       1.0000 0.33940  0.25240  0.94670  Biso   1.000  C
  C5       1.0000 0.78890  0.17400  0.37720  Biso   1.000  C
  C6       1.0000 0.71110  0.67400  0.12280  Biso   1.000  C
  C7       1.0000 0.21110  0.82600  0.62280  Biso   1.000  C
  C8       1.0000 0.28890  0.32600  0.87720  Biso   1.000  C
  C9       1.0000 0.01400  0.24280  0.49840  Biso   1.000  C
  C10      1.0000 0.48600  0.74280  0.00160  Biso   1.000  C
  C11      1.0000 0.98600  0.75720  0.50160  Biso   1.000  C
  C12      1.0000 0.51400  0.25720  0.99840  Biso   1.000  C
  C13      1.0000 0.71190  0.32550  0.46220  Biso   1.000  C
  C14      1.0000 0.78810  0.82550  0.03780  Biso   1.000  C
  C15      1.0000 0.28810  0.67450  0.53780  Biso   1.000  C
  C16      1.0000 0.21190  0.17450  0.96220  Biso   1.000  C
  C17      1.0000 0.57110  0.35540  0.39230  Biso   1.000  C
  C18      1.0000 0.92890  0.85540  0.10770  Biso   1.000  C
  C19      1.0000 0.42890  0.64460  0.60770  Biso   1.000  C
  C20      1.0000 0.07110  0.14460  0.89230  Biso   1.000  C
  C21      1.0000 0.71640  0.37740  0.54880  Biso   1.000  C
  C22      1.0000 0.78360  0.87740  0.95120  Biso   1.000  C
  C23      1.0000 0.28360  0.62260  0.45120  Biso   1.000  C
  C24      1.0000 0.21640  0.12260  0.04880  Biso   1.000  C
  C25      1.0000 0.09690  0.32890  0.54350  Biso   1.000  C
  C26      1.0000 0.40310  0.82890  0.95650  Biso   1.000  C
  C27      1.0000 0.90310  0.67110  0.45650  Biso   1.000  C
  C28      1.0000 0.59690  0.17110  0.04350  Biso   1.000  C
  C29      1.0000 0.11870  0.15350  0.50810  Biso   1.000  C
  C30      1.0000 0.38130  0.65350  0.99190  Biso   1.000  C
  C31      1.0000 0.88130  0.84650  0.49190  Biso   1.000  C
  C32      1.0000 0.61870  0.34650  0.00810  Biso   1.000  C
  C33      1.0000 0.92400  0.11880  0.33210  Biso   1.000  C
  C34      1.0000 0.57600  0.61880  0.16790  Biso   1.000  C
  C35      1.0000 0.07600  0.88120  0.66790  Biso   1.000  C
  C36      1.0000 0.42400  0.38120  0.83210  Biso   1.000  C
  C37      1.0000 0.60290  0.15130  0.34480  Biso   1.000  C
  C38      1.0000 0.89710  0.65130  0.15520  Biso   1.000  C
  C39      1.0000 0.39710  0.84870  0.65520  Biso   1.000  C
  C40      1.0000 0.10290  0.34870  0.84480  Biso   1.000  C
  C41      1.0000 0.08410  0.34020  0.16490  Biso   1.000  C
  C42      1.0000 0.41590  0.84020  0.33510  Biso   1.000  C
  C43      1.0000 0.91590  0.65980  0.83510  Biso   1.000  C
  C44      1.0000 0.58410  0.15980  0.66490  Biso   1.000  C
  C45      1.0000 0.94100  0.38030  0.22330  Biso   1.000  C
  C46      1.0000 0.55900  0.88030  0.27670  Biso   1.000  C
  C47      1.0000 0.05900  0.61970  0.77670  Biso   1.000  C
  C48      1.0000 0.44100  0.11970  0.72330  Biso   1.000  C
  H1       1.0000 0.07700  0.39100  0.34200  Biso   1.000  H
  H2       1.0000 0.42300  0.89100  0.15800  Biso   1.000  H
  H3       1.0000 0.92300  0.60900  0.65800  Biso   1.000  H
  H4       1.0000 0.57700  0.10900  0.84200  Biso   1.000  H
  H5       1.0000 0.97300  0.47700  0.32400  Biso   1.000  H
  H6       1.0000 0.52700  0.97700  0.17600  Biso   1.000  H
  H7       1.0000 0.02700  0.52300  0.67600  Biso   1.000  H
  H8       1.0000 0.47300  0.02300  0.82400  Biso   1.000  H
  H9       1.0000 0.16100  0.45400  0.11100  Biso   1.000  H
  H10      1.0000 0.33900  0.95400  0.38900  Biso   1.000  H
  H11      1.0000 0.83900  0.54600  0.88900  Biso   1.000  H
  H12      1.0000 0.66100  0.04600  0.61100  Biso   1.000  H
  H13      1.0000 0.31000  0.39600  0.13900  Biso   1.000  H
  H14      1.0000 0.19000  0.89600  0.36100  Biso   1.000  H
  H15      1.0000 0.69000  0.60400  0.86100  Biso   1.000  H
  H16      1.0000 0.81000  0.10400  0.63900  Biso   1.000  H
  H17      1.0000 0.02600  0.31400  0.11200  Biso   1.000  H
  H18      1.0000 0.47400  0.81400  0.38800  Biso   1.000  H
  H19      1.0000 0.97400  0.68600  0.88800  Biso   1.000  H
  H20      1.0000 0.52600  0.18600  0.61200  Biso   1.000  H
  H21      1.0000 0.14800  0.29000  0.19600  Biso   1.000  H
  H22      1.0000 0.35200  0.79000  0.30400  Biso   1.000  H
  H23      1.0000 0.85200  0.71000  0.80400  Biso   1.000  H
  H24      1.0000 0.64800  0.21000  0.69600  Biso   1.000  H
  H25      1.0000 0.87700  0.43200  0.17600  Biso   1.000  H
  H26      1.0000 0.62300  0.93200  0.32400  Biso   1.000  H
  H27      1.0000 0.12300  0.56800  0.82400  Biso   1.000  H
  H28      1.0000 0.37700  0.06800  0.67600  Biso   1.000  H
  H29      1.0000 0.86700  0.32800  0.24400  Biso   1.000  H
  H30      1.0000 0.63300  0.82800  0.25600  Biso   1.000  H
  H31      1.0000 0.13300  0.67200  0.75600  Biso   1.000  H
  H32      1.0000 0.36700  0.17200  0.74400  Biso   1.000  H
