data_image0
_cell_length_a       9.6751
_cell_length_b       10.3435
_cell_length_c       10.9898
_cell_angle_alpha    89.499
_cell_angle_beta     68.645
_cell_angle_gamma    68.316

_symmetry_space_group_name_H-M    "P 1"
_symmetry_int_tables_number       1

loop_
  _symmetry_equiv_pos_as_xyz
  'x, y, z'

loop_
  _atom_site_label
  _atom_site_occupancy
  _atom_site_fract_x
  _atom_site_fract_y
  _atom_site_fract_z
  _atom_site_thermal_displace_type
  _atom_site_B_iso_or_equiv
  _atom_site_type_symbol
  C1       1.0000 0.64350  0.29030  0.45600  Biso   1.000  C
  C2       1.0000 0.35650  0.70970  0.54400  Biso   1.000  C
  H1       1.0000 0.54480  0.28850  0.52130  Biso   1.000  H
  H2       1.0000 0.45520  0.71150  0.47870  Biso   1.000  H
  H3       1.0000 0.62250  0.31950  0.37820  Biso   1.000  H
  H4       1.0000 0.37750  0.68050  0.62180  Biso   1.000  H
  C3       1.0000 0.77210  0.14400  0.41990  Biso   1.000  C
  C4       1.0000 0.22790  0.85600  0.58010  Biso   1.000  C
  C5       1.0000 0.90160  0.14520  0.28340  Biso   1.000  C
  C6       1.0000 0.09840  0.85480  0.71660  Biso   1.000  C
  H5       1.0000 0.96080  0.19740  0.29790  Biso   1.000  H
  H6       1.0000 0.03920  0.80260  0.70210  Biso   1.000  H
  H7       1.0000 0.84670  0.19410  0.22800  Biso   1.000  H
  H8       1.0000 0.15330  0.80590  0.77200  Biso   1.000  H
  C7       1.0000 0.02280  0.99700  0.20970  Biso   1.000  C
  C8       1.0000 0.97720  0.00300  0.79030  Biso   1.000  C
  H9       1.0000 0.96610  0.94450  0.19100  Biso   1.000  H
  H10      1.0000 0.03390  0.05550  0.80900  Biso   1.000  H
  H11      1.0000 0.07860  0.94630  0.26390  Biso   1.000  H
  H12      1.0000 0.92140  0.05370  0.73610  Biso   1.000  H
  C9       1.0000 0.14130  0.01220  0.08370  Biso   1.000  C
  C10      1.0000 0.85870  0.98780  0.91630  Biso   1.000  C
  H13      1.0000 0.08380  0.06940  0.03340  Biso   1.000  H
  H14      1.0000 0.91620  0.93060  0.96660  Biso   1.000  H
  H15      1.0000 0.21020  0.92020  0.03150  Biso   1.000  H
  H16      1.0000 0.78980  0.07980  0.96850  Biso   1.000  H
  Cu1      1.0000 0.67320  0.56820  0.84570  Biso   1.000  Cu
  Cu2      1.0000 0.32680  0.43180  0.15430  Biso   1.000  Cu
  S1       1.0000 0.72760  0.38940  0.00640  Biso   1.000  S
  S2       1.0000 0.27240  0.61060  0.99360  Biso   1.000  S
  O1       1.0000 0.68970  0.54480  0.02150  Biso   1.000  O
  O2       1.0000 0.31030  0.45520  0.97850  Biso   1.000  O
  O3       1.0000 0.72500  0.36550  0.87230  Biso   1.000  O
  O4       1.0000 0.27500  0.63450  0.12770  Biso   1.000  O
  O5       1.0000 0.88450  0.30850  0.00820  Biso   1.000  O
  O6       1.0000 0.11550  0.69150  0.99180  Biso   1.000  O
  O7       1.0000 0.60120  0.35850  0.10710  Biso   1.000  O
  O8       1.0000 0.39880  0.64150  0.89290  Biso   1.000  O
  N1       1.0000 0.70150  0.52270  0.66060  Biso   1.000  N
  N2       1.0000 0.29850  0.47730  0.33940  Biso   1.000  N
  N3       1.0000 0.68380  0.39540  0.50870  Biso   1.000  N
  N4       1.0000 0.31620  0.60460  0.49130  Biso   1.000  N
  N5       1.0000 0.24160  0.07770  0.10870  Biso   1.000  N
  N6       1.0000 0.75840  0.92230  0.89130  Biso   1.000  N
  N7       1.0000 0.31640  0.24560  0.15270  Biso   1.000  N
  N8       1.0000 0.68360  0.75440  0.84730  Biso   1.000  N
  C11      1.0000 0.76090  0.48040  0.44140  Biso   1.000  C
  C12      1.0000 0.23910  0.51960  0.55860  Biso   1.000  C
  C13      1.0000 0.81880  0.49500  0.30810  Biso   1.000  C
  C14      1.0000 0.18120  0.50500  0.69190  Biso   1.000  C
  H17      1.0000 0.80920  0.44360  0.24480  Biso   1.000  H
  H18      1.0000 0.19080  0.55640  0.75520  Biso   1.000  H
  C15      1.0000 0.89090  0.58960  0.27530  Biso   1.000  C
  C16      1.0000 0.10910  0.41040  0.72470  Biso   1.000  C
  H19      1.0000 0.93250  0.60120  0.18710  Biso   1.000  H
  H20      1.0000 0.06750  0.39880  0.81290  Biso   1.000  H
  C17      1.0000 0.90380  0.66900  0.37000  Biso   1.000  C
  C18      1.0000 0.09620  0.33100  0.63000  Biso   1.000  C
  H21      1.0000 0.95370  0.73170  0.34340  Biso   1.000  H
  H22      1.0000 0.04630  0.26830  0.65660  Biso   1.000  H
  C19      1.0000 0.84350  0.65590  0.50280  Biso   1.000  C
  C20      1.0000 0.15650  0.34410  0.49720  Biso   1.000  C
  H23      1.0000 0.85140  0.70900  0.56590  Biso   1.000  H
  H24      1.0000 0.14860  0.29100  0.43410  Biso   1.000  H
  C21      1.0000 0.77070  0.56000  0.53780  Biso   1.000  C
  C22      1.0000 0.22930  0.44000  0.46220  Biso   1.000  C
  C23      1.0000 0.65220  0.42610  0.63660  Biso   1.000  C
  C24      1.0000 0.34780  0.57390  0.36340  Biso   1.000  C
  H25      1.0000 0.60030  0.38330  0.70240  Biso   1.000  H
  H26      1.0000 0.39970  0.61670  0.29760  Biso   1.000  H
  C25      1.0000 0.35940  0.01470  0.15780  Biso   1.000  C
  C26      1.0000 0.64060  0.98530  0.84220  Biso   1.000  C
  C27      1.0000 0.43170  0.87540  0.17410  Biso   1.000  C
  C28      1.0000 0.56830  0.12460  0.82590  Biso   1.000  C
  H27      1.0000 0.40150  0.80570  0.15320  Biso   1.000  H
  H28      1.0000 0.59850  0.19430  0.84680  Biso   1.000  H
  C29      1.0000 0.55030  0.84710  0.22300  Biso   1.000  C
  C30      1.0000 0.44970  0.15290  0.77700  Biso   1.000  C
  H29      1.0000 0.60200  0.75540  0.23550  Biso   1.000  H
  H30      1.0000 0.39800  0.24460  0.76450  Biso   1.000  H
  C31      1.0000 0.59540  0.95180  0.25430  Biso   1.000  C
  C32      1.0000 0.40460  0.04820  0.74570  Biso   1.000  C
  H31      1.0000 0.67440  0.92840  0.28910  Biso   1.000  H
  H32      1.0000 0.32560  0.07160  0.71090  Biso   1.000  H
  C33      1.0000 0.52600  0.08950  0.23500  Biso   1.000  C
  C34      1.0000 0.47400  0.91050  0.76500  Biso   1.000  C
  H33      1.0000 0.55820  0.15840  0.25450  Biso   1.000  H
  H34      1.0000 0.44180  0.84160  0.74550  Biso   1.000  H
  C35      1.0000 0.40630  0.12050  0.18540  Biso   1.000  C
  C36      1.0000 0.59370  0.87950  0.81460  Biso   1.000  C
  C37      1.0000 0.22120  0.21360  0.10780  Biso   1.000  C
  C38      1.0000 0.77880  0.78640  0.89220  Biso   1.000  C
  H35      1.0000 0.14800  0.27840  0.07860  Biso   1.000  H
  H36      1.0000 0.85200  0.72160  0.92140  Biso   1.000  H
  H37      1.0000 0.71900  0.07300  0.40700  Biso   1.000  H
  H38      1.0000 0.28100  0.92700  0.59300  Biso   1.000  H
  H39      1.0000 0.80000  0.11500  0.50000  Biso   1.000  H
  H40      1.0000 0.20000  0.88500  0.50000  Biso   1.000  H
  C39      1.0000 0.04900  0.91780  0.65840  Biso   1.000  C
  C40      1.0000 0.95100  0.08220  0.34160  Biso   1.000  C
  H41      1.0000 0.99990  0.85560  0.64500  Biso   1.000  H
  H42      1.0000 0.00010  0.14440  0.35500  Biso   1.000  H
  H43      1.0000 0.99630  0.00940  0.63680  Biso   1.000  H
  H44      1.0000 0.00370  0.99060  0.36320  Biso   1.000  H
  C41      1.0000 0.04070  0.92950  0.79930  Biso   1.000  C
  C42      1.0000 0.95930  0.07050  0.20070  Biso   1.000  C
  H45      1.0000 0.09240  0.99160  0.80730  Biso   1.000  H
  H46      1.0000 0.90760  0.00840  0.19270  Biso   1.000  H
  H47      1.0000 0.10270  0.83740  0.81420  Biso   1.000  H
  H48      1.0000 0.89730  0.16260  0.18580  Biso   1.000  H
