data_image0
_cell_length_a       11.424
_cell_length_b       11.281
_cell_length_c       11.173
_cell_angle_alpha    90
_cell_angle_beta     93.466
_cell_angle_gamma    90

_symmetry_space_group_name_H-M    "P 1"
_symmetry_int_tables_number       1

loop_
  _symmetry_equiv_pos_as_xyz
  'x, y, z'

loop_
  _atom_site_label
  _atom_site_occupancy
  _atom_site_fract_x
  _atom_site_fract_y
  _atom_site_fract_z
  _atom_site_thermal_displace_type
  _atom_site_B_iso_or_equiv
  _atom_site_type_symbol
  Cu1      1.0000 0.96658  0.07010  0.06372  Biso   1.000  Cu
  Cu2      1.0000 0.96658  0.92990  0.56372  Biso   1.000  Cu
  Cu3      1.0000 0.46658  0.57010  0.06372  Biso   1.000  Cu
  Cu4      1.0000 0.46658  0.42990  0.56372  Biso   1.000  Cu
  S1       1.0000 0.07774  0.88140  0.16911  Biso   1.000  S
  S2       1.0000 0.07774  0.11860  0.66911  Biso   1.000  S
  S3       1.0000 0.57774  0.38140  0.16911  Biso   1.000  S
  S4       1.0000 0.57774  0.61860  0.66911  Biso   1.000  S
  C1       1.0000 0.05130  0.91500  0.30850  Biso   1.000  C
  C2       1.0000 0.05130  0.08500  0.80850  Biso   1.000  C
  C3       1.0000 0.55130  0.41500  0.30850  Biso   1.000  C
  C4       1.0000 0.55130  0.58500  0.80850  Biso   1.000  C
  N1       1.0000 0.03330  0.93830  0.40590  Biso   1.000  N
  N2       1.0000 0.03330  0.06170  0.90590  Biso   1.000  N
  N3       1.0000 0.53330  0.43830  0.40590  Biso   1.000  N
  N4       1.0000 0.53330  0.56170  0.90590  Biso   1.000  N
  O1       1.0000 0.81220  0.00370  0.01440  Biso   1.000  O
  O2       1.0000 0.81220  0.99630  0.51440  Biso   1.000  O
  O3       1.0000 0.31220  0.50370  0.01440  Biso   1.000  O
  O4       1.0000 0.31220  0.49630  0.51440  Biso   1.000  O
  C5       1.0000 0.73530  0.03120  0.09030  Biso   1.000  C
  C6       1.0000 0.73530  0.96880  0.59030  Biso   1.000  C
  C7       1.0000 0.23530  0.53120  0.09030  Biso   1.000  C
  C8       1.0000 0.23530  0.46880  0.59030  Biso   1.000  C
  C9       1.0000 0.61270  0.98920  0.06680  Biso   1.000  C
  C10      1.0000 0.61270  0.01080  0.56680  Biso   1.000  C
  C11      1.0000 0.11270  0.48920  0.06680  Biso   1.000  C
  C12      1.0000 0.11270  0.51080  0.56680  Biso   1.000  C
  C13      1.0000 0.58460  0.92210  0.96450  Biso   1.000  C
  C14      1.0000 0.58460  0.07790  0.46450  Biso   1.000  C
  C15      1.0000 0.08460  0.42210  0.96450  Biso   1.000  C
  C16      1.0000 0.08460  0.57790  0.46450  Biso   1.000  C
  H1       1.0000 0.64310  0.90520  0.91000  Biso   1.000  H
  H2       1.0000 0.64310  0.09480  0.41000  Biso   1.000  H
  H3       1.0000 0.14310  0.40520  0.91000  Biso   1.000  H
  H4       1.0000 0.14310  0.59480  0.41000  Biso   1.000  H
  C17      1.0000 0.47110  0.87960  0.94210  Biso   1.000  C
  C18      1.0000 0.47110  0.12040  0.44210  Biso   1.000  C
  C19      1.0000 0.97110  0.37960  0.94210  Biso   1.000  C
  C20      1.0000 0.97110  0.62040  0.44210  Biso   1.000  C
  H5       1.0000 0.45200  0.83350  0.87250  Biso   1.000  H
  H6       1.0000 0.45200  0.16650  0.37250  Biso   1.000  H
  H7       1.0000 0.95200  0.33350  0.87250  Biso   1.000  H
  H8       1.0000 0.95200  0.66650  0.37250  Biso   1.000  H
  C21      1.0000 0.38510  0.90500  0.02240  Biso   1.000  C
  C22      1.0000 0.38510  0.09500  0.52240  Biso   1.000  C
  C23      1.0000 0.88510  0.40500  0.02240  Biso   1.000  C
  C24      1.0000 0.88510  0.59500  0.52240  Biso   1.000  C
  H9       1.0000 0.30750  0.87630  0.00740  Biso   1.000  H
  H10      1.0000 0.30750  0.12370  0.50740  Biso   1.000  H
  H11      1.0000 0.80750  0.37630  0.00740  Biso   1.000  H
  H12      1.0000 0.80750  0.62370  0.50740  Biso   1.000  H
  C25      1.0000 0.41340  0.97210  0.12370  Biso   1.000  C
  C26      1.0000 0.41340  0.02790  0.62370  Biso   1.000  C
  C27      1.0000 0.91340  0.47210  0.12370  Biso   1.000  C
  C28      1.0000 0.91340  0.52790  0.62370  Biso   1.000  C
  H13      1.0000 0.35520  0.98880  0.17860  Biso   1.000  H
  H14      1.0000 0.35520  0.01120  0.67860  Biso   1.000  H
  H15      1.0000 0.85520  0.48880  0.17860  Biso   1.000  H
  H16      1.0000 0.85520  0.51120  0.67860  Biso   1.000  H
  C29      1.0000 0.52560  0.01470  0.14540  Biso   1.000  C
  C30      1.0000 0.52560  0.98530  0.64540  Biso   1.000  C
  C31      1.0000 0.02560  0.51470  0.14540  Biso   1.000  C
  C32      1.0000 0.02560  0.48530  0.64540  Biso   1.000  C
  H17      1.0000 0.54400  0.06190  0.21440  Biso   1.000  H
  H18      1.0000 0.54400  0.93810  0.71440  Biso   1.000  H
  H19      1.0000 0.04400  0.56190  0.21440  Biso   1.000  H
  H20      1.0000 0.04400  0.43810  0.71440  Biso   1.000  H
  N5       1.0000 0.75820  0.09550  0.18930  Biso   1.000  N
  N6       1.0000 0.75820  0.90450  0.68930  Biso   1.000  N
  N7       1.0000 0.25820  0.59550  0.18930  Biso   1.000  N
  N8       1.0000 0.25820  0.40450  0.68930  Biso   1.000  N
  C33      1.0000 0.85950  0.25100  0.37120  Biso   1.000  C
  C34      1.0000 0.85950  0.74900  0.87120  Biso   1.000  C
  C35      1.0000 0.35950  0.75100  0.37120  Biso   1.000  C
  C36      1.0000 0.35950  0.24900  0.87120  Biso   1.000  C
  H21      1.0000 0.78050  0.27350  0.34060  Biso   1.000  H
  H22      1.0000 0.78050  0.72650  0.84060  Biso   1.000  H
  H23      1.0000 0.28050  0.77350  0.34060  Biso   1.000  H
  H24      1.0000 0.28050  0.22650  0.84060  Biso   1.000  H
  H25      1.0000 0.90160  0.32150  0.40180  Biso   1.000  H
  H26      1.0000 0.90160  0.67850  0.90180  Biso   1.000  H
  H27      1.0000 0.40160  0.82150  0.40180  Biso   1.000  H
  H28      1.0000 0.40160  0.17850  0.90180  Biso   1.000  H
  H29      1.0000 0.85420  0.19310  0.43600  Biso   1.000  H
  H30      1.0000 0.85420  0.80690  0.93600  Biso   1.000  H
  H31      1.0000 0.35420  0.69310  0.43600  Biso   1.000  H
  H32      1.0000 0.35420  0.30690  0.93600  Biso   1.000  H
  N9       1.0000 0.87520  0.12620  0.19170  Biso   1.000  N
  N10      1.0000 0.87520  0.87380  0.69170  Biso   1.000  N
  N11      1.0000 0.37520  0.62620  0.19170  Biso   1.000  N
  N12      1.0000 0.37520  0.37380  0.69170  Biso   1.000  N
  C37      1.0000 0.92440  0.19720  0.27190  Biso   1.000  C
  C38      1.0000 0.92440  0.80280  0.77190  Biso   1.000  C
  C39      1.0000 0.42440  0.69720  0.27190  Biso   1.000  C
  C40      1.0000 0.42440  0.30280  0.77190  Biso   1.000  C
  C41      1.0000 0.04850  0.22000  0.25430  Biso   1.000  C
  C42      1.0000 0.04850  0.78000  0.75430  Biso   1.000  C
  C43      1.0000 0.54850  0.72000  0.25430  Biso   1.000  C
  C44      1.0000 0.54850  0.28000  0.75430  Biso   1.000  C
  C45      1.0000 0.12250  0.28600  0.33100  Biso   1.000  C
  C46      1.0000 0.12250  0.71400  0.83100  Biso   1.000  C
  C47      1.0000 0.62250  0.78600  0.33100  Biso   1.000  C
  C48      1.0000 0.62250  0.21400  0.83100  Biso   1.000  C
  H33      1.0000 0.09490  0.31800  0.40270  Biso   1.000  H
  H34      1.0000 0.09490  0.68200  0.90270  Biso   1.000  H
  H35      1.0000 0.59490  0.81800  0.40270  Biso   1.000  H
  H36      1.0000 0.59490  0.18200  0.90270  Biso   1.000  H
  C49      1.0000 0.23760  0.30510  0.30220  Biso   1.000  C
  C50      1.0000 0.23760  0.69490  0.80220  Biso   1.000  C
  C51      1.0000 0.73760  0.80510  0.30220  Biso   1.000  C
  C52      1.0000 0.73760  0.19490  0.80220  Biso   1.000  C
  H37      1.0000 0.28920  0.35090  0.35340  Biso   1.000  H
  H38      1.0000 0.28920  0.64910  0.85340  Biso   1.000  H
  H39      1.0000 0.78920  0.85090  0.35340  Biso   1.000  H
  H40      1.0000 0.78920  0.14910  0.85340  Biso   1.000  H
  C53      1.0000 0.27600  0.25630  0.19750  Biso   1.000  C
  C54      1.0000 0.27600  0.74370  0.69750  Biso   1.000  C
  C55      1.0000 0.77600  0.75630  0.19750  Biso   1.000  C
  C56      1.0000 0.77600  0.24370  0.69750  Biso   1.000  C
  H41      1.0000 0.35420  0.26810  0.17570  Biso   1.000  H
  H42      1.0000 0.35420  0.73190  0.67570  Biso   1.000  H
  H43      1.0000 0.85420  0.76810  0.17570  Biso   1.000  H
  H44      1.0000 0.85420  0.23190  0.67570  Biso   1.000  H
  C57      1.0000 0.19770  0.18980  0.12540  Biso   1.000  C
  C58      1.0000 0.19770  0.81020  0.62540  Biso   1.000  C
  C59      1.0000 0.69770  0.68980  0.12540  Biso   1.000  C
  C60      1.0000 0.69770  0.31020  0.62540  Biso   1.000  C
  H45      1.0000 0.22420  0.15500  0.05450  Biso   1.000  H
  H46      1.0000 0.22420  0.84500  0.55450  Biso   1.000  H
  H47      1.0000 0.72420  0.65500  0.05450  Biso   1.000  H
  H48      1.0000 0.72420  0.34500  0.55450  Biso   1.000  H
  N13      1.0000 0.08700  0.17310  0.15190  Biso   1.000  N
  N14      1.0000 0.08700  0.82690  0.65190  Biso   1.000  N
  N15      1.0000 0.58700  0.67310  0.15190  Biso   1.000  N
  N16      1.0000 0.58700  0.32690  0.65190  Biso   1.000  N
