data_image0
_cell_length_a       8.0542
_cell_length_b       8.1633
_cell_length_c       16.7195
_cell_angle_alpha    98.126
_cell_angle_beta     94.745
_cell_angle_gamma    92.964

_symmetry_space_group_name_H-M    "P 1"
_symmetry_int_tables_number       1

loop_
  _symmetry_equiv_pos_as_xyz
  'x, y, z'

loop_
  _atom_site_label
  _atom_site_occupancy
  _atom_site_fract_x
  _atom_site_fract_y
  _atom_site_fract_z
  _atom_site_thermal_displace_type
  _atom_site_B_iso_or_equiv
  _atom_site_type_symbol
  Cu1      1.0000 0.92345  0.99123  0.92550  Biso   1.000  Cu
  Cu2      1.0000 0.07655  0.00877  0.07450  Biso   1.000  Cu
  Cu3      1.0000 0.56051  0.98913  0.57530  Biso   1.000  Cu
  Cu4      1.0000 0.43949  0.01087  0.42470  Biso   1.000  Cu
  O1       1.0000 0.74810  0.89380  0.52154  Biso   1.000  O
  O2       1.0000 0.25190  0.10620  0.47846  Biso   1.000  O
  O3       1.0000 0.76150  0.99830  0.82103  Biso   1.000  O
  O4       1.0000 0.23850  0.00170  0.17897  Biso   1.000  O
  O5       1.0000 0.13560  0.09280  0.89944  Biso   1.000  O
  O6       1.0000 0.86440  0.90720  0.10056  Biso   1.000  O
  O7       1.0000 0.65060  0.91560  0.39488  Biso   1.000  O
  O8       1.0000 0.34940  0.08440  0.60512  Biso   1.000  O
  O9       1.0000 0.85870  0.21040  0.97397  Biso   1.000  O
  O10      1.0000 0.14130  0.78960  0.02603  Biso   1.000  O
  O11      1.0000 0.64740  0.01140  0.69902  Biso   1.000  O
  O12      1.0000 0.35260  0.98860  0.30098  Biso   1.000  O
  O13      1.0000 0.44170  0.76820  0.55935  Biso   1.000  O
  O14      1.0000 0.55830  0.23180  0.44065  Biso   1.000  O
  O15      1.0000 0.34470  0.78620  0.43204  Biso   1.000  O
  O16      1.0000 0.65530  0.21380  0.56796  Biso   1.000  O
  O17      1.0000 0.26100  0.11540  0.02491  Biso   1.000  O
  O18      1.0000 0.73900  0.88460  0.97509  Biso   1.000  O
  O19      1.0000 0.98490  0.22830  0.09893  Biso   1.000  O
  O20      1.0000 0.01510  0.77170  0.90107  Biso   1.000  O
  C1       1.0000 0.75870  0.87780  0.44641  Biso   1.000  C
  C2       1.0000 0.24130  0.12220  0.55359  Biso   1.000  C
  C3       1.0000 0.25860  0.13060  0.95090  Biso   1.000  C
  C4       1.0000 0.74140  0.86940  0.04910  Biso   1.000  C
  C5       1.0000 0.36050  0.71270  0.49278  Biso   1.000  C
  C6       1.0000 0.63950  0.28730  0.50722  Biso   1.000  C
  C7       1.0000 0.89350  0.28170  0.04474  Biso   1.000  C
  C8       1.0000 0.10650  0.71830  0.95526  Biso   1.000  C
  C9       1.0000 0.81850  0.44510  0.06738  Biso   1.000  C
  C10      1.0000 0.18150  0.55490  0.93262  Biso   1.000  C
  H1       1.0000 0.90040  0.53600  0.06330  Biso   1.000  H
  H2       1.0000 0.09960  0.46400  0.93670  Biso   1.000  H
  H3       1.0000 0.78740  0.45370  0.12320  Biso   1.000  H
  H4       1.0000 0.21260  0.54630  0.87680  Biso   1.000  H
  H5       1.0000 0.71900  0.45220  0.03040  Biso   1.000  H
  H6       1.0000 0.28100  0.54780  0.96960  Biso   1.000  H
  C11      1.0000 0.75980  0.96630  0.74538  Biso   1.000  C
  C12      1.0000 0.24020  0.03370  0.25462  Biso   1.000  C
  C13      1.0000 0.91540  0.81030  0.41572  Biso   1.000  C
  C14      1.0000 0.08460  0.18970  0.58428  Biso   1.000  C
  H7       1.0000 0.89670  0.77340  0.35710  Biso   1.000  H
  H8       1.0000 0.10330  0.22660  0.64290  Biso   1.000  H
  H9       1.0000 0.94540  0.71620  0.44320  Biso   1.000  H
  H10      1.0000 0.05460  0.28380  0.55680  Biso   1.000  H
  H11      1.0000 0.00640  0.89710  0.42680  Biso   1.000  H
  H12      1.0000 0.99360  0.10290  0.57320  Biso   1.000  H
  C15      1.0000 0.41710  0.19980  0.92301  Biso   1.000  C
  C16      1.0000 0.58290  0.80020  0.07699  Biso   1.000  C
  H13      1.0000 0.50080  0.11680  0.92230  Biso   1.000  H
  H14      1.0000 0.49920  0.88320  0.07770  Biso   1.000  H
  H15      1.0000 0.45930  0.29960  0.96020  Biso   1.000  H
  H16      1.0000 0.54070  0.70040  0.03980  Biso   1.000  H
  H17      1.0000 0.39440  0.22800  0.86830  Biso   1.000  H
  H18      1.0000 0.60560  0.77200  0.13170  Biso   1.000  H
  C17      1.0000 0.27430  0.54230  0.48470  Biso   1.000  C
  C18      1.0000 0.72570  0.45770  0.51530  Biso   1.000  C
  H19      1.0000 0.34180  0.47240  0.51580  Biso   1.000  H
  H20      1.0000 0.65820  0.52760  0.48420  Biso   1.000  H
  H21      1.0000 0.26050  0.49300  0.42740  Biso   1.000  H
  H22      1.0000 0.73950  0.50700  0.57260  Biso   1.000  H
  H23      1.0000 0.16440  0.55060  0.50560  Biso   1.000  H
  H24      1.0000 0.83560  0.44940  0.49440  Biso   1.000  H
  C19      1.0000 0.89760  0.87060  0.71030  Biso   1.000  C
  C20      1.0000 0.10240  0.12940  0.28970  Biso   1.000  C
  H25      1.0000 0.86100  0.81960  0.65460  Biso   1.000  H
  H26      1.0000 0.13900  0.18040  0.34540  Biso   1.000  H
  H27      1.0000 0.92530  0.78380  0.74320  Biso   1.000  H
  H28      1.0000 0.07470  0.21620  0.25680  Biso   1.000  H
  H29      1.0000 0.99640  0.94580  0.71020  Biso   1.000  H
  H30      1.0000 0.00360  0.05420  0.28980  Biso   1.000  H
  N1       1.0000 0.60860  0.48480  0.78982  Biso   1.000  N
  N2       1.0000 0.39140  0.51520  0.21018  Biso   1.000  N
  N3       1.0000 0.43570  0.66830  0.76515  Biso   1.000  N
  N4       1.0000 0.56430  0.33170  0.23485  Biso   1.000  N
  C21      1.0000 0.57240  0.64100  0.80908  Biso   1.000  C
  C22      1.0000 0.42760  0.35900  0.19092  Biso   1.000  C
  H31      1.0000 0.63500  0.72090  0.84840  Biso   1.000  H
  H32      1.0000 0.36500  0.27910  0.15160  Biso   1.000  H
  C23      1.0000 0.49000  0.40820  0.73099  Biso   1.000  C
  C24      1.0000 0.51000  0.59180  0.26901  Biso   1.000  C
  H33      1.0000 0.48490  0.29610  0.70570  Biso   1.000  H
  H34      1.0000 0.51510  0.70390  0.29430  Biso   1.000  H
  C25      1.0000 0.75450  0.40610  0.82256  Biso   1.000  C
  C26      1.0000 0.24550  0.59390  0.17744  Biso   1.000  C
  H35      1.0000 0.71780  0.29790  0.83760  Biso   1.000  H
  H36      1.0000 0.28220  0.70210  0.16240  Biso   1.000  H
  H37      1.0000 0.80610  0.47700  0.87230  Biso   1.000  H
  H38      1.0000 0.19390  0.52300  0.12770  Biso   1.000  H
  C27      1.0000 0.88250  0.37990  0.76169  Biso   1.000  C
  C28      1.0000 0.11750  0.62010  0.23831  Biso   1.000  C
  H39      1.0000 0.83010  0.31490  0.71130  Biso   1.000  H
  H40      1.0000 0.16990  0.68510  0.28870  Biso   1.000  H
  H41      1.0000 0.97400  0.32010  0.78380  Biso   1.000  H
  H42      1.0000 0.02600  0.67990  0.21620  Biso   1.000  H
  H43      1.0000 0.92670  0.48760  0.75040  Biso   1.000  H
  H44      1.0000 0.07330  0.51240  0.24960  Biso   1.000  H
  C29      1.0000 0.38250  0.52320  0.71625  Biso   1.000  C
  C30      1.0000 0.61750  0.47680  0.28375  Biso   1.000  C
  H45      1.0000 0.28630  0.50660  0.67840  Biso   1.000  H
  H46      1.0000 0.71370  0.49340  0.32160  Biso   1.000  H
  C31      1.0000 0.35280  0.82340  0.76850  Biso   1.000  C
  C32      1.0000 0.64720  0.17660  0.23150  Biso   1.000  C
  H47      1.0000 0.25080  0.81400  0.79610  Biso   1.000  H
  H48      1.0000 0.74920  0.18600  0.20390  Biso   1.000  H
  H49      1.0000 0.32420  0.84650  0.71330  Biso   1.000  H
  H50      1.0000 0.67580  0.15350  0.28670  Biso   1.000  H
  H51      1.0000 0.42780  0.91390  0.79840  Biso   1.000  H
  H52      1.0000 0.57220  0.08610  0.20160  Biso   1.000  H
