data_image0
_cell_length_a       12.014
_cell_length_b       18.533
_cell_length_c       7.411
_cell_angle_alpha    90
_cell_angle_beta     90
_cell_angle_gamma    90

_symmetry_space_group_name_H-M    "P 1"
_symmetry_int_tables_number       1

loop_
  _symmetry_equiv_pos_as_xyz
  'x, y, z'

loop_
  _atom_site_label
  _atom_site_occupancy
  _atom_site_fract_x
  _atom_site_fract_y
  _atom_site_fract_z
  _atom_site_thermal_displace_type
  _atom_site_B_iso_or_equiv
  _atom_site_type_symbol
  Cu1      1.0000 0.00000  0.50000  0.00000  Biso   1.000  Cu
  Cu2      1.0000 0.50000  0.00000  0.00000  Biso   1.000  Cu
  Cu3      1.0000 0.00000  0.00000  0.50000  Biso   1.000  Cu
  Cu4      1.0000 0.50000  0.50000  0.50000  Biso   1.000  Cu
  O1       1.0000 0.87710  0.54296  0.14210  Biso   1.000  O
  O2       1.0000 0.62290  0.95704  0.14210  Biso   1.000  O
  O3       1.0000 0.12290  0.04296  0.35790  Biso   1.000  O
  O4       1.0000 0.37710  0.45704  0.35790  Biso   1.000  O
  O5       1.0000 0.12290  0.45704  0.85790  Biso   1.000  O
  O6       1.0000 0.37710  0.04296  0.85790  Biso   1.000  O
  O7       1.0000 0.87710  0.95704  0.64210  Biso   1.000  O
  O8       1.0000 0.62290  0.54296  0.64210  Biso   1.000  O
  H1       1.0000 0.87400  0.54300  0.25100  Biso   1.000  H
  H2       1.0000 0.62600  0.95700  0.25100  Biso   1.000  H
  H3       1.0000 0.12600  0.04300  0.24900  Biso   1.000  H
  H4       1.0000 0.37400  0.45700  0.24900  Biso   1.000  H
  H5       1.0000 0.12600  0.45700  0.74900  Biso   1.000  H
  H6       1.0000 0.37400  0.04300  0.74900  Biso   1.000  H
  H7       1.0000 0.87400  0.95700  0.75100  Biso   1.000  H
  H8       1.0000 0.62600  0.54300  0.75100  Biso   1.000  H
  H9       1.0000 0.81600  0.54600  0.09500  Biso   1.000  H
  H10      1.0000 0.68400  0.95400  0.09500  Biso   1.000  H
  H11      1.0000 0.18400  0.04600  0.40500  Biso   1.000  H
  H12      1.0000 0.31600  0.45400  0.40500  Biso   1.000  H
  H13      1.0000 0.18400  0.45400  0.90500  Biso   1.000  H
  H14      1.0000 0.31600  0.04600  0.90500  Biso   1.000  H
  H15      1.0000 0.81600  0.95400  0.59500  Biso   1.000  H
  H16      1.0000 0.68400  0.54600  0.59500  Biso   1.000  H
  O9       1.0000 0.11020  0.44599  0.23660  Biso   1.000  O
  O10      1.0000 0.38980  0.05401  0.23660  Biso   1.000  O
  O11      1.0000 0.88980  0.94599  0.26340  Biso   1.000  O
  O12      1.0000 0.61020  0.55401  0.26340  Biso   1.000  O
  O13      1.0000 0.88980  0.55401  0.76340  Biso   1.000  O
  O14      1.0000 0.61020  0.94599  0.76340  Biso   1.000  O
  O15      1.0000 0.11020  0.05401  0.73660  Biso   1.000  O
  O16      1.0000 0.38980  0.44599  0.73660  Biso   1.000  O
  O17      1.0000 0.99770  0.41790  0.45100  Biso   1.000  O
  O18      1.0000 0.50230  0.08210  0.45100  Biso   1.000  O
  O19      1.0000 0.00230  0.91790  0.04900  Biso   1.000  O
  O20      1.0000 0.49770  0.58210  0.04900  Biso   1.000  O
  O21      1.0000 0.00230  0.58210  0.54900  Biso   1.000  O
  O22      1.0000 0.49770  0.91790  0.54900  Biso   1.000  O
  O23      1.0000 0.99770  0.08210  0.95100  Biso   1.000  O
  O24      1.0000 0.50230  0.41790  0.95100  Biso   1.000  O
  O25      1.0000 0.17110  0.43196  0.50510  Biso   1.000  O
  O26      1.0000 0.32890  0.06804  0.50510  Biso   1.000  O
  O27      1.0000 0.82890  0.93196  0.99490  Biso   1.000  O
  O28      1.0000 0.67110  0.56804  0.99490  Biso   1.000  O
  O29      1.0000 0.82890  0.56804  0.49490  Biso   1.000  O
  O30      1.0000 0.67110  0.93196  0.49490  Biso   1.000  O
  O31      1.0000 0.17110  0.06804  0.00510  Biso   1.000  O
  O32      1.0000 0.32890  0.43196  0.00510  Biso   1.000  O
  N1       1.0000 0.08850  0.59087  0.03660  Biso   1.000  N
  N2       1.0000 0.41150  0.90913  0.03660  Biso   1.000  N
  N3       1.0000 0.91150  0.09087  0.46340  Biso   1.000  N
  N4       1.0000 0.58850  0.40913  0.46340  Biso   1.000  N
  N5       1.0000 0.91150  0.40913  0.96340  Biso   1.000  N
  N6       1.0000 0.58850  0.09087  0.96340  Biso   1.000  N
  N7       1.0000 0.08850  0.90913  0.53660  Biso   1.000  N
  N8       1.0000 0.41150  0.59087  0.53660  Biso   1.000  N
  N9       1.0000 0.09040  0.43241  0.39620  Biso   1.000  N
  N10      1.0000 0.40960  0.06759  0.39620  Biso   1.000  N
  N11      1.0000 0.90960  0.93241  0.10380  Biso   1.000  N
  N12      1.0000 0.59040  0.56759  0.10380  Biso   1.000  N
  N13      1.0000 0.90960  0.56759  0.60380  Biso   1.000  N
  N14      1.0000 0.59040  0.93241  0.60380  Biso   1.000  N
  N15      1.0000 0.09040  0.06759  0.89620  Biso   1.000  N
  N16      1.0000 0.40960  0.43241  0.89620  Biso   1.000  N
  C1       1.0000 0.04390  0.65525  0.00120  Biso   1.000  C
  C2       1.0000 0.45610  0.84475  0.00120  Biso   1.000  C
  C3       1.0000 0.95610  0.15525  0.49880  Biso   1.000  C
  C4       1.0000 0.54390  0.34475  0.49880  Biso   1.000  C
  C5       1.0000 0.95610  0.34475  0.99880  Biso   1.000  C
  C6       1.0000 0.54390  0.15525  0.99880  Biso   1.000  C
  C7       1.0000 0.04390  0.84475  0.50120  Biso   1.000  C
  C8       1.0000 0.45610  0.65525  0.50120  Biso   1.000  C
  H17      1.0000 0.96900  0.65740  0.97010  Biso   1.000  H
  H18      1.0000 0.53100  0.84260  0.97010  Biso   1.000  H
  H19      1.0000 0.03100  0.15740  0.52990  Biso   1.000  H
  H20      1.0000 0.46900  0.34260  0.52990  Biso   1.000  H
  H21      1.0000 0.03100  0.34260  0.02990  Biso   1.000  H
  H22      1.0000 0.46900  0.15740  0.02990  Biso   1.000  H
  H23      1.0000 0.96900  0.84260  0.47010  Biso   1.000  H
  H24      1.0000 0.53100  0.65740  0.47010  Biso   1.000  H
  C9       1.0000 0.10380  0.71886  0.00870  Biso   1.000  C
  C10      1.0000 0.39620  0.78114  0.00870  Biso   1.000  C
  C11      1.0000 0.89620  0.21886  0.49130  Biso   1.000  C
  C12      1.0000 0.60380  0.28114  0.49130  Biso   1.000  C
  C13      1.0000 0.89620  0.28114  0.99130  Biso   1.000  C
  C14      1.0000 0.60380  0.21886  0.99130  Biso   1.000  C
  C15      1.0000 0.10380  0.78114  0.50870  Biso   1.000  C
  C16      1.0000 0.39620  0.71886  0.50870  Biso   1.000  C
  H25      1.0000 0.06930  0.76260  0.98270  Biso   1.000  H
  H26      1.0000 0.43070  0.73740  0.98270  Biso   1.000  H
  H27      1.0000 0.93070  0.26260  0.51730  Biso   1.000  H
  H28      1.0000 0.56930  0.23740  0.51730  Biso   1.000  H
  H29      1.0000 0.93070  0.23740  0.01730  Biso   1.000  H
  H30      1.0000 0.56930  0.26260  0.01730  Biso   1.000  H
  H31      1.0000 0.06930  0.73740  0.48270  Biso   1.000  H
  H32      1.0000 0.43070  0.76260  0.48270  Biso   1.000  H
  C17      1.0000 0.21530  0.71715  0.05510  Biso   1.000  C
  C18      1.0000 0.28470  0.78285  0.05510  Biso   1.000  C
  C19      1.0000 0.78470  0.21715  0.44490  Biso   1.000  C
  C20      1.0000 0.71530  0.28285  0.44490  Biso   1.000  C
  C21      1.0000 0.78470  0.28285  0.94490  Biso   1.000  C
  C22      1.0000 0.71530  0.21715  0.94490  Biso   1.000  C
  C23      1.0000 0.21530  0.78285  0.55510  Biso   1.000  C
  C24      1.0000 0.28470  0.71715  0.55510  Biso   1.000  C
  C25      1.0000 0.26120  0.64983  0.09300  Biso   1.000  C
  C26      1.0000 0.23880  0.85017  0.09300  Biso   1.000  C
  C27      1.0000 0.73880  0.14983  0.40700  Biso   1.000  C
  C28      1.0000 0.76120  0.35017  0.40700  Biso   1.000  C
  C29      1.0000 0.73880  0.35017  0.90700  Biso   1.000  C
  C30      1.0000 0.76120  0.14983  0.90700  Biso   1.000  C
  C31      1.0000 0.26120  0.85017  0.59300  Biso   1.000  C
  C32      1.0000 0.23880  0.64983  0.59300  Biso   1.000  C
  H33      1.0000 0.33590  0.64600  0.12410  Biso   1.000  H
  H34      1.0000 0.16410  0.85400  0.12410  Biso   1.000  H
  H35      1.0000 0.66410  0.14600  0.37590  Biso   1.000  H
  H36      1.0000 0.83590  0.35400  0.37590  Biso   1.000  H
  H37      1.0000 0.66410  0.35400  0.87590  Biso   1.000  H
  H38      1.0000 0.83590  0.14600  0.87590  Biso   1.000  H
  H39      1.0000 0.33590  0.85400  0.62410  Biso   1.000  H
  H40      1.0000 0.16410  0.64600  0.62410  Biso   1.000  H
  C33      1.0000 0.19580  0.58901  0.08420  Biso   1.000  C
  C34      1.0000 0.30420  0.91099  0.08420  Biso   1.000  C
  C35      1.0000 0.80420  0.08901  0.41580  Biso   1.000  C
  C36      1.0000 0.69580  0.41099  0.41580  Biso   1.000  C
  C37      1.0000 0.80420  0.41099  0.91580  Biso   1.000  C
  C38      1.0000 0.69580  0.08901  0.91580  Biso   1.000  C
  C39      1.0000 0.19580  0.91099  0.58420  Biso   1.000  C
  C40      1.0000 0.30420  0.58901  0.58420  Biso   1.000  C
  H41      1.0000 0.22760  0.54470  0.11260  Biso   1.000  H
  H42      1.0000 0.27240  0.95530  0.11260  Biso   1.000  H
  H43      1.0000 0.77240  0.04470  0.38740  Biso   1.000  H
  H44      1.0000 0.72760  0.45530  0.38740  Biso   1.000  H
  H45      1.0000 0.77240  0.45530  0.88740  Biso   1.000  H
  H46      1.0000 0.72760  0.04470  0.88740  Biso   1.000  H
  H47      1.0000 0.22760  0.95530  0.61260  Biso   1.000  H
  H48      1.0000 0.27240  0.54470  0.61260  Biso   1.000  H
  O33      1.0000 0.75000  0.75000  0.35200  Biso   1.000  O
  O34      1.0000 0.25000  0.25000  0.14800  Biso   1.000  O
  O35      1.0000 0.25000  0.25000  0.64800  Biso   1.000  O
  O36      1.0000 0.75000  0.75000  0.85200  Biso   1.000  O
  O37      1.0000 0.75000  0.75000  0.15500  Biso   1.000  O
  O38      1.0000 0.25000  0.25000  0.34500  Biso   1.000  O
  O39      1.0000 0.25000  0.25000  0.84500  Biso   1.000  O
  O40      1.0000 0.75000  0.75000  0.65500  Biso   1.000  O
