data_image0
_cell_length_a       24.8102
_cell_length_b       33.4318
_cell_length_c       18.3552
_cell_angle_alpha    90
_cell_angle_beta     90
_cell_angle_gamma    90

_symmetry_space_group_name_H-M    "P 1"
_symmetry_int_tables_number       1

loop_
  _symmetry_equiv_pos_as_xyz
  'x, y, z'

loop_
  _atom_site_label
  _atom_site_occupancy
  _atom_site_fract_x
  _atom_site_fract_y
  _atom_site_fract_z
  _atom_site_thermal_displace_type
  _atom_site_B_iso_or_equiv
  _atom_site_type_symbol
  Cu1      1.0000 0.21896  0.27419  0.30141  Biso   1.000  Cu
  Cu2      1.0000 0.78104  0.72581  0.80141  Biso   1.000  Cu
  Cu3      1.0000 0.78104  0.27419  0.30141  Biso   1.000  Cu
  Cu4      1.0000 0.21896  0.72581  0.80141  Biso   1.000  Cu
  Cu5      1.0000 0.71896  0.77419  0.30141  Biso   1.000  Cu
  Cu6      1.0000 0.28104  0.22581  0.80141  Biso   1.000  Cu
  Cu7      1.0000 0.28104  0.77419  0.30141  Biso   1.000  Cu
  Cu8      1.0000 0.71896  0.22581  0.80141  Biso   1.000  Cu
  Cu9      1.0000 0.29744  0.23943  0.37605  Biso   1.000  Cu
  Cu10     1.0000 0.70256  0.76057  0.87605  Biso   1.000  Cu
  Cu11     1.0000 0.70256  0.23943  0.37605  Biso   1.000  Cu
  Cu12     1.0000 0.29744  0.76057  0.87605  Biso   1.000  Cu
  Cu13     1.0000 0.79744  0.73943  0.37605  Biso   1.000  Cu
  Cu14     1.0000 0.20256  0.26057  0.87605  Biso   1.000  Cu
  Cu15     1.0000 0.20256  0.73943  0.37605  Biso   1.000  Cu
  Cu16     1.0000 0.79744  0.26057  0.87605  Biso   1.000  Cu
  Cu17     1.0000 0.00000  0.13984  0.10195  Biso   1.000  Cu
  Cu18     1.0000 0.00000  0.86016  0.60195  Biso   1.000  Cu
  Cu19     1.0000 0.50000  0.63984  0.10195  Biso   1.000  Cu
  Cu20     1.0000 0.50000  0.36016  0.60195  Biso   1.000  Cu
  Cu21     1.0000 0.00000  0.06111  0.11095  Biso   1.000  Cu
  Cu22     1.0000 0.00000  0.93889  0.61095  Biso   1.000  Cu
  Cu23     1.0000 0.50000  0.56111  0.11095  Biso   1.000  Cu
  Cu24     1.0000 0.50000  0.43889  0.61095  Biso   1.000  Cu
  O1       1.0000 0.05590  0.07112  0.18350  Biso   1.000  O
  O2       1.0000 0.94410  0.92888  0.68350  Biso   1.000  O
  O3       1.0000 0.94410  0.07112  0.18350  Biso   1.000  O
  O4       1.0000 0.05590  0.92888  0.68350  Biso   1.000  O
  O5       1.0000 0.55590  0.57112  0.18350  Biso   1.000  O
  O6       1.0000 0.44410  0.42888  0.68350  Biso   1.000  O
  O7       1.0000 0.44410  0.57112  0.18350  Biso   1.000  O
  O8       1.0000 0.55590  0.42888  0.68350  Biso   1.000  O
  O9       1.0000 0.05450  0.13810  0.17380  Biso   1.000  O
  O10      1.0000 0.94550  0.86190  0.67380  Biso   1.000  O
  O11      1.0000 0.94550  0.13810  0.17380  Biso   1.000  O
  O12      1.0000 0.05450  0.86190  0.67380  Biso   1.000  O
  O13      1.0000 0.55450  0.63810  0.17380  Biso   1.000  O
  O14      1.0000 0.44550  0.36190  0.67380  Biso   1.000  O
  O15      1.0000 0.44550  0.63810  0.17380  Biso   1.000  O
  O16      1.0000 0.55450  0.36190  0.67380  Biso   1.000  O
  O17      1.0000 0.19040  0.21955  0.29240  Biso   1.000  O
  O18      1.0000 0.80960  0.78045  0.79240  Biso   1.000  O
  O19      1.0000 0.80960  0.21955  0.29240  Biso   1.000  O
  O20      1.0000 0.19040  0.78045  0.79240  Biso   1.000  O
  O21      1.0000 0.69040  0.71955  0.29240  Biso   1.000  O
  O22      1.0000 0.30960  0.28045  0.79240  Biso   1.000  O
  O23      1.0000 0.30960  0.71955  0.29240  Biso   1.000  O
  O24      1.0000 0.69040  0.28045  0.79240  Biso   1.000  O
  O25      1.0000 0.25620  0.19090  0.35490  Biso   1.000  O
  O26      1.0000 0.74380  0.80910  0.85490  Biso   1.000  O
  O27      1.0000 0.74380  0.19090  0.35490  Biso   1.000  O
  O28      1.0000 0.25620  0.80910  0.85490  Biso   1.000  O
  O29      1.0000 0.75620  0.69090  0.35490  Biso   1.000  O
  O30      1.0000 0.24380  0.30910  0.85490  Biso   1.000  O
  O31      1.0000 0.24380  0.69090  0.35490  Biso   1.000  O
  O32      1.0000 0.75620  0.30910  0.85490  Biso   1.000  O
  O33      1.0000 0.05690  0.93596  0.53060  Biso   1.000  O
  O34      1.0000 0.94310  0.06404  0.03060  Biso   1.000  O
  O35      1.0000 0.94310  0.93596  0.53060  Biso   1.000  O
  O36      1.0000 0.05690  0.06404  0.03060  Biso   1.000  O
  O37      1.0000 0.55690  0.43596  0.53060  Biso   1.000  O
  O38      1.0000 0.44310  0.56404  0.03060  Biso   1.000  O
  O39      1.0000 0.44310  0.43596  0.53060  Biso   1.000  O
  O40      1.0000 0.55690  0.56404  0.03060  Biso   1.000  O
  O41      1.0000 0.05580  0.87060  0.52880  Biso   1.000  O
  O42      1.0000 0.94420  0.12940  0.02880  Biso   1.000  O
  O43      1.0000 0.94420  0.87060  0.52880  Biso   1.000  O
  O44      1.0000 0.05580  0.12940  0.02880  Biso   1.000  O
  O45      1.0000 0.55580  0.37060  0.52880  Biso   1.000  O
  O46      1.0000 0.44420  0.62940  0.02880  Biso   1.000  O
  O47      1.0000 0.44420  0.37060  0.52880  Biso   1.000  O
  O48      1.0000 0.55580  0.62940  0.02880  Biso   1.000  O
  O49      1.0000 0.17460  0.79349  0.38300  Biso   1.000  O
  O50      1.0000 0.82540  0.20651  0.88300  Biso   1.000  O
  O51      1.0000 0.82540  0.79349  0.38300  Biso   1.000  O
  O52      1.0000 0.17460  0.20651  0.88300  Biso   1.000  O
  O53      1.0000 0.67460  0.29349  0.38300  Biso   1.000  O
  O54      1.0000 0.32540  0.70651  0.88300  Biso   1.000  O
  O55      1.0000 0.32540  0.29349  0.38300  Biso   1.000  O
  O56      1.0000 0.67460  0.70651  0.88300  Biso   1.000  O
  O57      1.0000 0.24210  0.82260  0.32130  Biso   1.000  O
  O58      1.0000 0.75790  0.17740  0.82130  Biso   1.000  O
  O59      1.0000 0.75790  0.82260  0.32130  Biso   1.000  O
  O60      1.0000 0.24210  0.17740  0.82130  Biso   1.000  O
  O61      1.0000 0.74210  0.32260  0.32130  Biso   1.000  O
  O62      1.0000 0.25790  0.67740  0.82130  Biso   1.000  O
  O63      1.0000 0.25790  0.32260  0.32130  Biso   1.000  O
  O64      1.0000 0.74210  0.67740  0.82130  Biso   1.000  O
  O65      1.0000 0.26530  0.26330  0.22030  Biso   1.000  O
  O66      1.0000 0.73470  0.73670  0.72030  Biso   1.000  O
  O67      1.0000 0.73470  0.26330  0.22030  Biso   1.000  O
  O68      1.0000 0.26530  0.73670  0.72030  Biso   1.000  O
  O69      1.0000 0.76530  0.76330  0.22030  Biso   1.000  O
  O70      1.0000 0.23470  0.23670  0.72030  Biso   1.000  O
  O71      1.0000 0.23470  0.76330  0.22030  Biso   1.000  O
  O72      1.0000 0.76530  0.23670  0.72030  Biso   1.000  O
  O73      1.0000 0.33250  0.23200  0.28130  Biso   1.000  O
  O74      1.0000 0.66750  0.76800  0.78130  Biso   1.000  O
  O75      1.0000 0.66750  0.23200  0.28130  Biso   1.000  O
  O76      1.0000 0.33250  0.76800  0.78130  Biso   1.000  O
  O77      1.0000 0.83250  0.73200  0.28130  Biso   1.000  O
  O78      1.0000 0.16750  0.26800  0.78130  Biso   1.000  O
  O79      1.0000 0.16750  0.73200  0.28130  Biso   1.000  O
  O80      1.0000 0.83250  0.26800  0.78130  Biso   1.000  O
  O81      1.0000 0.24970  0.24970  0.96020  Biso   1.000  O
  O82      1.0000 0.75030  0.75030  0.46020  Biso   1.000  O
  O83      1.0000 0.75030  0.24970  0.96020  Biso   1.000  O
  O84      1.0000 0.24970  0.75030  0.46020  Biso   1.000  O
  O85      1.0000 0.74970  0.74970  0.96020  Biso   1.000  O
  O86      1.0000 0.25030  0.25030  0.46020  Biso   1.000  O
  O87      1.0000 0.25030  0.74970  0.96020  Biso   1.000  O
  O88      1.0000 0.74970  0.25030  0.46020  Biso   1.000  O
  O89      1.0000 0.31760  0.22110  0.89560  Biso   1.000  O
  O90      1.0000 0.68240  0.77890  0.39560  Biso   1.000  O
  O91      1.0000 0.68240  0.22110  0.89560  Biso   1.000  O
  O92      1.0000 0.31760  0.77890  0.39560  Biso   1.000  O
  O93      1.0000 0.81760  0.72110  0.89560  Biso   1.000  O
  O94      1.0000 0.18240  0.27890  0.39560  Biso   1.000  O
  O95      1.0000 0.18240  0.72110  0.89560  Biso   1.000  O
  O96      1.0000 0.81760  0.27890  0.39560  Biso   1.000  O
  O97      1.0000 0.15720  0.30740  0.24780  Biso   1.000  O
  O98      1.0000 0.84280  0.69260  0.74780  Biso   1.000  O
  O99      1.0000 0.84280  0.30740  0.24780  Biso   1.000  O
  O100     1.0000 0.15720  0.69260  0.74780  Biso   1.000  O
  O101     1.0000 0.65720  0.80740  0.24780  Biso   1.000  O
  O102     1.0000 0.34280  0.19260  0.74780  Biso   1.000  O
  O103     1.0000 0.34280  0.80740  0.24780  Biso   1.000  O
  O104     1.0000 0.65720  0.19260  0.74780  Biso   1.000  O
  H1       1.0000 0.14550  0.30320  0.20430  Biso   1.000  H
  H2       1.0000 0.85450  0.69680  0.70430  Biso   1.000  H
  H3       1.0000 0.85450  0.30320  0.20430  Biso   1.000  H
  H4       1.0000 0.14550  0.69680  0.70430  Biso   1.000  H
  H5       1.0000 0.64550  0.80320  0.20430  Biso   1.000  H
  H6       1.0000 0.35450  0.19680  0.70430  Biso   1.000  H
  H7       1.0000 0.35450  0.80320  0.20430  Biso   1.000  H
  H8       1.0000 0.64550  0.19680  0.70430  Biso   1.000  H
  H9       1.0000 0.14010  0.32740  0.26650  Biso   1.000  H
  H10      1.0000 0.85990  0.67260  0.76650  Biso   1.000  H
  H11      1.0000 0.85990  0.32740  0.26650  Biso   1.000  H
  H12      1.0000 0.14010  0.67260  0.76650  Biso   1.000  H
  H13      1.0000 0.64010  0.82740  0.26650  Biso   1.000  H
  H14      1.0000 0.35990  0.17260  0.76650  Biso   1.000  H
  H15      1.0000 0.35990  0.82740  0.26650  Biso   1.000  H
  H16      1.0000 0.64010  0.17260  0.76650  Biso   1.000  H
  O105     1.0000 0.35750  0.20880  0.43730  Biso   1.000  O
  O106     1.0000 0.64250  0.79120  0.93730  Biso   1.000  O
  O107     1.0000 0.64250  0.20880  0.43730  Biso   1.000  O
  O108     1.0000 0.35750  0.79120  0.93730  Biso   1.000  O
  O109     1.0000 0.85750  0.70880  0.43730  Biso   1.000  O
  O110     1.0000 0.14250  0.29120  0.93730  Biso   1.000  O
  O111     1.0000 0.14250  0.70880  0.43730  Biso   1.000  O
  O112     1.0000 0.85750  0.29120  0.93730  Biso   1.000  O
  H17      1.0000 0.35000  0.18450  0.44630  Biso   1.000  H
  H18      1.0000 0.65000  0.81550  0.94630  Biso   1.000  H
  H19      1.0000 0.65000  0.18450  0.44630  Biso   1.000  H
  H20      1.0000 0.35000  0.81550  0.94630  Biso   1.000  H
  H21      1.0000 0.85000  0.68450  0.44630  Biso   1.000  H
  H22      1.0000 0.15000  0.31550  0.94630  Biso   1.000  H
  H23      1.0000 0.15000  0.68450  0.44630  Biso   1.000  H
  H24      1.0000 0.85000  0.31550  0.94630  Biso   1.000  H
  H25      1.0000 0.36640  0.22110  0.47600  Biso   1.000  H
  H26      1.0000 0.63360  0.77890  0.97600  Biso   1.000  H
  H27      1.0000 0.63360  0.22110  0.47600  Biso   1.000  H
  H28      1.0000 0.36640  0.77890  0.97600  Biso   1.000  H
  H29      1.0000 0.86640  0.72110  0.47600  Biso   1.000  H
  H30      1.0000 0.13360  0.27890  0.97600  Biso   1.000  H
  H31      1.0000 0.13360  0.72110  0.47600  Biso   1.000  H
  H32      1.0000 0.86640  0.27890  0.97600  Biso   1.000  H
  O113     1.0000 0.00000  0.20430  0.08620  Biso   1.000  O
  O114     1.0000 0.00000  0.79570  0.58620  Biso   1.000  O
  O115     1.0000 0.50000  0.70430  0.08620  Biso   1.000  O
  O116     1.0000 0.50000  0.29570  0.58620  Biso   1.000  O
  H33      1.0000 0.02780  0.21420  0.10630  Biso   1.000  H
  H34      1.0000 0.97220  0.78580  0.60630  Biso   1.000  H
  H35      1.0000 0.97220  0.21420  0.10630  Biso   1.000  H
  H36      1.0000 0.02780  0.78580  0.60630  Biso   1.000  H
  H37      1.0000 0.52780  0.71420  0.10630  Biso   1.000  H
  H38      1.0000 0.47220  0.28580  0.60630  Biso   1.000  H
  H39      1.0000 0.47220  0.71420  0.10630  Biso   1.000  H
  H40      1.0000 0.52780  0.28580  0.60630  Biso   1.000  H
  O117     1.0000 0.00000  0.99780  0.12230  Biso   1.000  O
  O118     1.0000 0.00000  0.00220  0.62230  Biso   1.000  O
  O119     1.0000 0.50000  0.49780  0.12230  Biso   1.000  O
  O120     1.0000 0.50000  0.50220  0.62230  Biso   1.000  O
  H41      1.0000 0.97220  0.99070  0.14620  Biso   1.000  H
  H42      1.0000 0.02780  0.00930  0.64620  Biso   1.000  H
  H43      1.0000 0.02780  0.99070  0.14620  Biso   1.000  H
  H44      1.0000 0.97220  0.00930  0.64620  Biso   1.000  H
  H45      1.0000 0.47220  0.49070  0.14620  Biso   1.000  H
  H46      1.0000 0.52780  0.50930  0.64620  Biso   1.000  H
  H47      1.0000 0.52780  0.49070  0.14620  Biso   1.000  H
  H48      1.0000 0.47220  0.50930  0.64620  Biso   1.000  H
  C1       1.0000 0.07400  0.10540  0.19840  Biso   1.000  C
  C2       1.0000 0.92600  0.89460  0.69840  Biso   1.000  C
  C3       1.0000 0.92600  0.10540  0.19840  Biso   1.000  C
  C4       1.0000 0.07400  0.89460  0.69840  Biso   1.000  C
  C5       1.0000 0.57400  0.60540  0.19840  Biso   1.000  C
  C6       1.0000 0.42600  0.39460  0.69840  Biso   1.000  C
  C7       1.0000 0.42600  0.60540  0.19840  Biso   1.000  C
  C8       1.0000 0.57400  0.39460  0.69840  Biso   1.000  C
  C9       1.0000 0.12280  0.10950  0.24770  Biso   1.000  C
  C10      1.0000 0.87720  0.89050  0.74770  Biso   1.000  C
  C11      1.0000 0.87720  0.10950  0.24770  Biso   1.000  C
  C12      1.0000 0.12280  0.89050  0.74770  Biso   1.000  C
  C13      1.0000 0.62280  0.60950  0.24770  Biso   1.000  C
  C14      1.0000 0.37720  0.39050  0.74770  Biso   1.000  C
  C15      1.0000 0.37720  0.60950  0.24770  Biso   1.000  C
  C16      1.0000 0.62280  0.39050  0.74770  Biso   1.000  C
  C17      1.0000 0.14830  0.07480  0.27310  Biso   1.000  C
  C18      1.0000 0.85170  0.92520  0.77310  Biso   1.000  C
  C19      1.0000 0.85170  0.07480  0.27310  Biso   1.000  C
  C20      1.0000 0.14830  0.92520  0.77310  Biso   1.000  C
  C21      1.0000 0.64830  0.57480  0.27310  Biso   1.000  C
  C22      1.0000 0.35170  0.42520  0.77310  Biso   1.000  C
  C23      1.0000 0.35170  0.57480  0.27310  Biso   1.000  C
  C24      1.0000 0.64830  0.42520  0.77310  Biso   1.000  C
  H49      1.0000 0.13310  0.04990  0.26360  Biso   1.000  H
  H50      1.0000 0.86690  0.95010  0.76360  Biso   1.000  H
  H51      1.0000 0.86690  0.04990  0.26360  Biso   1.000  H
  H52      1.0000 0.13310  0.95010  0.76360  Biso   1.000  H
  H53      1.0000 0.63310  0.54990  0.26360  Biso   1.000  H
  H54      1.0000 0.36690  0.45010  0.76360  Biso   1.000  H
  H55      1.0000 0.36690  0.54990  0.26360  Biso   1.000  H
  H56      1.0000 0.63310  0.45010  0.76360  Biso   1.000  H
  C25      1.0000 0.14390  0.14540  0.26330  Biso   1.000  C
  C26      1.0000 0.85610  0.85460  0.76330  Biso   1.000  C
  C27      1.0000 0.85610  0.14540  0.26330  Biso   1.000  C
  C28      1.0000 0.14390  0.85460  0.76330  Biso   1.000  C
  C29      1.0000 0.64390  0.64540  0.26330  Biso   1.000  C
  C30      1.0000 0.35610  0.35460  0.76330  Biso   1.000  C
  C31      1.0000 0.35610  0.64540  0.26330  Biso   1.000  C
  C32      1.0000 0.64390  0.35460  0.76330  Biso   1.000  C
  H57      1.0000 0.12690  0.16830  0.24590  Biso   1.000  H
  H58      1.0000 0.87310  0.83170  0.74590  Biso   1.000  H
  H59      1.0000 0.87310  0.16830  0.24590  Biso   1.000  H
  H60      1.0000 0.12690  0.83170  0.74590  Biso   1.000  H
  H61      1.0000 0.62690  0.66830  0.24590  Biso   1.000  H
  H62      1.0000 0.37310  0.33170  0.74590  Biso   1.000  H
  H63      1.0000 0.37310  0.66830  0.24590  Biso   1.000  H
  H64      1.0000 0.62690  0.33170  0.74590  Biso   1.000  H
  C33      1.0000 0.19110  0.14950  0.30510  Biso   1.000  C
  C34      1.0000 0.80890  0.85050  0.80510  Biso   1.000  C
  C35      1.0000 0.80890  0.14950  0.30510  Biso   1.000  C
  C36      1.0000 0.19110  0.85050  0.80510  Biso   1.000  C
  C37      1.0000 0.69110  0.64950  0.30510  Biso   1.000  C
  C38      1.0000 0.30890  0.35050  0.80510  Biso   1.000  C
  C39      1.0000 0.30890  0.64950  0.30510  Biso   1.000  C
  C40      1.0000 0.69110  0.35050  0.80510  Biso   1.000  C
  C41      1.0000 0.21610  0.11600  0.32810  Biso   1.000  C
  C42      1.0000 0.78390  0.88400  0.82810  Biso   1.000  C
  C43      1.0000 0.78390  0.11600  0.32810  Biso   1.000  C
  C44      1.0000 0.21610  0.88400  0.82810  Biso   1.000  C
  C45      1.0000 0.71610  0.61600  0.32810  Biso   1.000  C
  C46      1.0000 0.28390  0.38400  0.82810  Biso   1.000  C
  C47      1.0000 0.28390  0.61600  0.32810  Biso   1.000  C
  C48      1.0000 0.71610  0.38400  0.82810  Biso   1.000  C
  H65      1.0000 0.24760  0.11820  0.35530  Biso   1.000  H
  H66      1.0000 0.75240  0.88180  0.85530  Biso   1.000  H
  H67      1.0000 0.75240  0.11820  0.35530  Biso   1.000  H
  H68      1.0000 0.24760  0.88180  0.85530  Biso   1.000  H
  H69      1.0000 0.74760  0.61820  0.35530  Biso   1.000  H
  H70      1.0000 0.25240  0.38180  0.85530  Biso   1.000  H
  H71      1.0000 0.25240  0.61820  0.35530  Biso   1.000  H
  H72      1.0000 0.74760  0.38180  0.85530  Biso   1.000  H
  C49      1.0000 0.19500  0.07700  0.31150  Biso   1.000  C
  C50      1.0000 0.80500  0.92300  0.81150  Biso   1.000  C
  C51      1.0000 0.80500  0.07700  0.31150  Biso   1.000  C
  C52      1.0000 0.19500  0.92300  0.81150  Biso   1.000  C
  C53      1.0000 0.69500  0.57700  0.31150  Biso   1.000  C
  C54      1.0000 0.30500  0.42300  0.81150  Biso   1.000  C
  C55      1.0000 0.30500  0.57700  0.31150  Biso   1.000  C
  C56      1.0000 0.69500  0.42300  0.81150  Biso   1.000  C
  C57      1.0000 0.21440  0.19130  0.31940  Biso   1.000  C
  C58      1.0000 0.78560  0.80870  0.81940  Biso   1.000  C
  C59      1.0000 0.78560  0.19130  0.31940  Biso   1.000  C
  C60      1.0000 0.21440  0.80870  0.81940  Biso   1.000  C
  C61      1.0000 0.71440  0.69130  0.31940  Biso   1.000  C
  C62      1.0000 0.28560  0.30870  0.81940  Biso   1.000  C
  C63      1.0000 0.28560  0.69130  0.31940  Biso   1.000  C
  C64      1.0000 0.71440  0.30870  0.81940  Biso   1.000  C
  C65      1.0000 0.22350  0.04130  0.33700  Biso   1.000  C
  C66      1.0000 0.77650  0.95870  0.83700  Biso   1.000  C
  C67      1.0000 0.77650  0.04130  0.33700  Biso   1.000  C
  C68      1.0000 0.22350  0.95870  0.83700  Biso   1.000  C
  C69      1.0000 0.72350  0.54130  0.33700  Biso   1.000  C
  C70      1.0000 0.27650  0.45870  0.83700  Biso   1.000  C
  C71      1.0000 0.27650  0.54130  0.33700  Biso   1.000  C
  C72      1.0000 0.72350  0.45870  0.83700  Biso   1.000  C
  C73      1.0000 0.19600  0.00670  0.35710  Biso   1.000  C
  C74      1.0000 0.80400  0.99330  0.85710  Biso   1.000  C
  C75      1.0000 0.80400  0.00670  0.35710  Biso   1.000  C
  C76      1.0000 0.19600  0.99330  0.85710  Biso   1.000  C
  C77      1.0000 0.69600  0.50670  0.35710  Biso   1.000  C
  C78      1.0000 0.30400  0.49330  0.85710  Biso   1.000  C
  C79      1.0000 0.30400  0.50670  0.35710  Biso   1.000  C
  C80      1.0000 0.69600  0.49330  0.85710  Biso   1.000  C
  H73      1.0000 0.15850  0.00690  0.35530  Biso   1.000  H
  H74      1.0000 0.84150  0.99310  0.85530  Biso   1.000  H
  H75      1.0000 0.84150  0.00690  0.35530  Biso   1.000  H
  H76      1.0000 0.15850  0.99310  0.85530  Biso   1.000  H
  H77      1.0000 0.65850  0.50690  0.35530  Biso   1.000  H
  H78      1.0000 0.34150  0.49310  0.85530  Biso   1.000  H
  H79      1.0000 0.34150  0.50690  0.35530  Biso   1.000  H
  H80      1.0000 0.65850  0.49310  0.85530  Biso   1.000  H
  C81      1.0000 0.28230  0.03980  0.33920  Biso   1.000  C
  C82      1.0000 0.71770  0.96020  0.83920  Biso   1.000  C
  C83      1.0000 0.71770  0.03980  0.33920  Biso   1.000  C
  C84      1.0000 0.28230  0.96020  0.83920  Biso   1.000  C
  C85      1.0000 0.78230  0.53980  0.33920  Biso   1.000  C
  C86      1.0000 0.21770  0.46020  0.83920  Biso   1.000  C
  C87      1.0000 0.21770  0.53980  0.33920  Biso   1.000  C
  C88      1.0000 0.78230  0.46020  0.83920  Biso   1.000  C
  H81      1.0000 0.30310  0.06090  0.32170  Biso   1.000  H
  H82      1.0000 0.69690  0.93910  0.82170  Biso   1.000  H
  H83      1.0000 0.69690  0.06090  0.32170  Biso   1.000  H
  H84      1.0000 0.30310  0.93910  0.82170  Biso   1.000  H
  H85      1.0000 0.80310  0.56090  0.32170  Biso   1.000  H
  H86      1.0000 0.19690  0.43910  0.82170  Biso   1.000  H
  H87      1.0000 0.19690  0.56090  0.32170  Biso   1.000  H
  H88      1.0000 0.80310  0.43910  0.82170  Biso   1.000  H
  C89      1.0000 0.22220  0.97140  0.38000  Biso   1.000  C
  C90      1.0000 0.77780  0.02860  0.88000  Biso   1.000  C
  C91      1.0000 0.77780  0.97140  0.38000  Biso   1.000  C
  C92      1.0000 0.22220  0.02860  0.88000  Biso   1.000  C
  C93      1.0000 0.72220  0.47140  0.38000  Biso   1.000  C
  C94      1.0000 0.27780  0.52860  0.88000  Biso   1.000  C
  C95      1.0000 0.27780  0.47140  0.38000  Biso   1.000  C
  C96      1.0000 0.72220  0.52860  0.88000  Biso   1.000  C
  C97      1.0000 0.30640  0.00500  0.36930  Biso   1.000  C
  C98      1.0000 0.69360  0.99500  0.86930  Biso   1.000  C
  C99      1.0000 0.69360  0.00500  0.36930  Biso   1.000  C
  C100     1.0000 0.30640  0.99500  0.86930  Biso   1.000  C
  C101     1.0000 0.80640  0.50500  0.36930  Biso   1.000  C
  C102     1.0000 0.19360  0.49500  0.86930  Biso   1.000  C
  C103     1.0000 0.19360  0.50500  0.36930  Biso   1.000  C
  C104     1.0000 0.80640  0.49500  0.86930  Biso   1.000  C
  C105     1.0000 0.36930  0.00560  0.35920  Biso   1.000  C
  C106     1.0000 0.63070  0.99440  0.85920  Biso   1.000  C
  C107     1.0000 0.63070  0.00560  0.35920  Biso   1.000  C
  C108     1.0000 0.36930  0.99440  0.85920  Biso   1.000  C
  C109     1.0000 0.86930  0.50560  0.35920  Biso   1.000  C
  C110     1.0000 0.13070  0.49440  0.85920  Biso   1.000  C
  C111     1.0000 0.13070  0.50560  0.35920  Biso   1.000  C
  C112     1.0000 0.86930  0.49440  0.85920  Biso   1.000  C
  H89      1.0000 0.38120  0.03270  0.35290  Biso   1.000  H
  H90      1.0000 0.61880  0.96730  0.85290  Biso   1.000  H
  H91      1.0000 0.61880  0.03270  0.35290  Biso   1.000  H
  H92      1.0000 0.38120  0.96730  0.85290  Biso   1.000  H
  H93      1.0000 0.88120  0.53270  0.35290  Biso   1.000  H
  H94      1.0000 0.11880  0.46730  0.85290  Biso   1.000  H
  H95      1.0000 0.11880  0.53270  0.35290  Biso   1.000  H
  H96      1.0000 0.88120  0.46730  0.85290  Biso   1.000  H
  H97      1.0000 0.38620  0.99440  0.40150  Biso   1.000  H
  H98      1.0000 0.61380  0.00560  0.90150  Biso   1.000  H
  H99      1.0000 0.61380  0.99440  0.40150  Biso   1.000  H
  H100     1.0000 0.38620  0.00560  0.90150  Biso   1.000  H
  H101     1.0000 0.88620  0.49440  0.40150  Biso   1.000  H
  H102     1.0000 0.11380  0.50560  0.90150  Biso   1.000  H
  H103     1.0000 0.11380  0.49440  0.40150  Biso   1.000  H
  H104     1.0000 0.88620  0.50560  0.90150  Biso   1.000  H
  H105     1.0000 0.37890  0.99020  0.31700  Biso   1.000  H
  H106     1.0000 0.62110  0.00980  0.81700  Biso   1.000  H
  H107     1.0000 0.62110  0.99020  0.31700  Biso   1.000  H
  H108     1.0000 0.37890  0.00980  0.81700  Biso   1.000  H
  H109     1.0000 0.87890  0.49020  0.31700  Biso   1.000  H
  H110     1.0000 0.12110  0.50980  0.81700  Biso   1.000  H
  H111     1.0000 0.12110  0.49020  0.31700  Biso   1.000  H
  H112     1.0000 0.87890  0.50980  0.81700  Biso   1.000  H
  C113     1.0000 0.27700  0.97130  0.37940  Biso   1.000  C
  C114     1.0000 0.72300  0.02870  0.87940  Biso   1.000  C
  C115     1.0000 0.72300  0.97130  0.37940  Biso   1.000  C
  C116     1.0000 0.27700  0.02870  0.87940  Biso   1.000  C
  C117     1.0000 0.77700  0.47130  0.37940  Biso   1.000  C
  C118     1.0000 0.22300  0.52870  0.87940  Biso   1.000  C
  C119     1.0000 0.22300  0.47130  0.37940  Biso   1.000  C
  C120     1.0000 0.77700  0.52870  0.87940  Biso   1.000  C
  H113     1.0000 0.29500  0.94720  0.38630  Biso   1.000  H
  H114     1.0000 0.70500  0.05280  0.88630  Biso   1.000  H
  H115     1.0000 0.70500  0.94720  0.38630  Biso   1.000  H
  H116     1.0000 0.29500  0.05280  0.88630  Biso   1.000  H
  H117     1.0000 0.79500  0.44720  0.38630  Biso   1.000  H
  H118     1.0000 0.20500  0.55280  0.88630  Biso   1.000  H
  H119     1.0000 0.20500  0.44720  0.38630  Biso   1.000  H
  H120     1.0000 0.79500  0.55280  0.88630  Biso   1.000  H
  C121     1.0000 0.19240  0.93500  0.39410  Biso   1.000  C
  C122     1.0000 0.80760  0.06500  0.89410  Biso   1.000  C
  C123     1.0000 0.80760  0.93500  0.39410  Biso   1.000  C
  C124     1.0000 0.19240  0.06500  0.89410  Biso   1.000  C
  C125     1.0000 0.69240  0.43500  0.39410  Biso   1.000  C
  C126     1.0000 0.30760  0.56500  0.89410  Biso   1.000  C
  C127     1.0000 0.30760  0.43500  0.39410  Biso   1.000  C
  C128     1.0000 0.69240  0.56500  0.89410  Biso   1.000  C
  C129     1.0000 0.14570  0.93810  0.43830  Biso   1.000  C
  C130     1.0000 0.85430  0.06190  0.93830  Biso   1.000  C
  C131     1.0000 0.85430  0.93810  0.43830  Biso   1.000  C
  C132     1.0000 0.14570  0.06190  0.93830  Biso   1.000  C
  C133     1.0000 0.64570  0.43810  0.43830  Biso   1.000  C
  C134     1.0000 0.35430  0.56190  0.93830  Biso   1.000  C
  C135     1.0000 0.35430  0.43810  0.43830  Biso   1.000  C
  C136     1.0000 0.64570  0.56190  0.93830  Biso   1.000  C
  H121     1.0000 0.13380  0.96300  0.45430  Biso   1.000  H
  H122     1.0000 0.86620  0.03700  0.95430  Biso   1.000  H
  H123     1.0000 0.86620  0.96300  0.45430  Biso   1.000  H
  H124     1.0000 0.13380  0.03700  0.95430  Biso   1.000  H
  H125     1.0000 0.63380  0.46300  0.45430  Biso   1.000  H
  H126     1.0000 0.36620  0.53700  0.95430  Biso   1.000  H
  H127     1.0000 0.36620  0.46300  0.45430  Biso   1.000  H
  H128     1.0000 0.63380  0.53700  0.95430  Biso   1.000  H
  C137     1.0000 0.11810  0.90380  0.45720  Biso   1.000  C
  C138     1.0000 0.88190  0.09620  0.95720  Biso   1.000  C
  C139     1.0000 0.88190  0.90380  0.45720  Biso   1.000  C
  C140     1.0000 0.11810  0.09620  0.95720  Biso   1.000  C
  C141     1.0000 0.61810  0.40380  0.45720  Biso   1.000  C
  C142     1.0000 0.38190  0.59620  0.95720  Biso   1.000  C
  C143     1.0000 0.38190  0.40380  0.45720  Biso   1.000  C
  C144     1.0000 0.61810  0.59620  0.95720  Biso   1.000  C
  C145     1.0000 0.07320  0.90400  0.50980  Biso   1.000  C
  C146     1.0000 0.92680  0.09600  0.00980  Biso   1.000  C
  C147     1.0000 0.92680  0.90400  0.50980  Biso   1.000  C
  C148     1.0000 0.07320  0.09600  0.00980  Biso   1.000  C
  C149     1.0000 0.57320  0.40400  0.50980  Biso   1.000  C
  C150     1.0000 0.42680  0.59600  0.00980  Biso   1.000  C
  C151     1.0000 0.42680  0.40400  0.50980  Biso   1.000  C
  C152     1.0000 0.57320  0.59600  0.00980  Biso   1.000  C
  C153     1.0000 0.13320  0.86620  0.42930  Biso   1.000  C
  C154     1.0000 0.86680  0.13380  0.92930  Biso   1.000  C
  C155     1.0000 0.86680  0.86620  0.42930  Biso   1.000  C
  C156     1.0000 0.13320  0.13380  0.92930  Biso   1.000  C
  C157     1.0000 0.63320  0.36620  0.42930  Biso   1.000  C
  C158     1.0000 0.36680  0.63380  0.92930  Biso   1.000  C
  C159     1.0000 0.36680  0.36620  0.42930  Biso   1.000  C
  C160     1.0000 0.63320  0.63380  0.92930  Biso   1.000  C
  H129     1.0000 0.11360  0.84310  0.43950  Biso   1.000  H
  H130     1.0000 0.88640  0.15690  0.93950  Biso   1.000  H
  H131     1.0000 0.88640  0.84310  0.43950  Biso   1.000  H
  H132     1.0000 0.11360  0.15690  0.93950  Biso   1.000  H
  H133     1.0000 0.61360  0.34310  0.43950  Biso   1.000  H
  H134     1.0000 0.38640  0.65690  0.93950  Biso   1.000  H
  H135     1.0000 0.38640  0.34310  0.43950  Biso   1.000  H
  H136     1.0000 0.61360  0.65690  0.93950  Biso   1.000  H
  C161     1.0000 0.20720  0.89840  0.36810  Biso   1.000  C
  C162     1.0000 0.79280  0.10160  0.86810  Biso   1.000  C
  C163     1.0000 0.79280  0.89840  0.36810  Biso   1.000  C
  C164     1.0000 0.20720  0.10160  0.86810  Biso   1.000  C
  C165     1.0000 0.70720  0.39840  0.36810  Biso   1.000  C
  C166     1.0000 0.29280  0.60160  0.86810  Biso   1.000  C
  C167     1.0000 0.29280  0.39840  0.36810  Biso   1.000  C
  C168     1.0000 0.70720  0.60160  0.86810  Biso   1.000  C
  H137     1.0000 0.23720  0.89680  0.33790  Biso   1.000  H
  H138     1.0000 0.76280  0.10320  0.83790  Biso   1.000  H
  H139     1.0000 0.76280  0.89680  0.33790  Biso   1.000  H
  H140     1.0000 0.23720  0.10320  0.83790  Biso   1.000  H
  H141     1.0000 0.73720  0.39680  0.33790  Biso   1.000  H
  H142     1.0000 0.26280  0.60320  0.83790  Biso   1.000  H
  H143     1.0000 0.26280  0.39680  0.33790  Biso   1.000  H
  H144     1.0000 0.73720  0.60320  0.83790  Biso   1.000  H
  C169     1.0000 0.18090  0.86530  0.38370  Biso   1.000  C
  C170     1.0000 0.81910  0.13470  0.88370  Biso   1.000  C
  C171     1.0000 0.81910  0.86530  0.38370  Biso   1.000  C
  C172     1.0000 0.18090  0.13470  0.88370  Biso   1.000  C
  C173     1.0000 0.68090  0.36530  0.38370  Biso   1.000  C
  C174     1.0000 0.31910  0.63470  0.88370  Biso   1.000  C
  C175     1.0000 0.31910  0.36530  0.38370  Biso   1.000  C
  C176     1.0000 0.68090  0.63470  0.88370  Biso   1.000  C
  C177     1.0000 0.19800  0.82440  0.36340  Biso   1.000  C
  C178     1.0000 0.80200  0.17560  0.86340  Biso   1.000  C
  C179     1.0000 0.80200  0.82440  0.36340  Biso   1.000  C
  C180     1.0000 0.19800  0.17560  0.86340  Biso   1.000  C
  C181     1.0000 0.69800  0.32440  0.36340  Biso   1.000  C
  C182     1.0000 0.30200  0.67560  0.86340  Biso   1.000  C
  C183     1.0000 0.30200  0.32440  0.36340  Biso   1.000  C
  C184     1.0000 0.69800  0.67560  0.86340  Biso   1.000  C
  C185     1.0000 0.30810  0.24420  0.22380  Biso   1.000  C
  C186     1.0000 0.69190  0.75580  0.72380  Biso   1.000  C
  C187     1.0000 0.69190  0.24420  0.22380  Biso   1.000  C
  C188     1.0000 0.30810  0.75580  0.72380  Biso   1.000  C
  C189     1.0000 0.80810  0.74420  0.22380  Biso   1.000  C
  C190     1.0000 0.19190  0.25580  0.72380  Biso   1.000  C
  C191     1.0000 0.19190  0.74420  0.22380  Biso   1.000  C
  C192     1.0000 0.80810  0.25580  0.72380  Biso   1.000  C
  C193     1.0000 0.33430  0.23090  0.15240  Biso   1.000  C
  C194     1.0000 0.66570  0.76910  0.65240  Biso   1.000  C
  C195     1.0000 0.66570  0.23090  0.15240  Biso   1.000  C
  C196     1.0000 0.33430  0.76910  0.65240  Biso   1.000  C
  C197     1.0000 0.83430  0.73090  0.15240  Biso   1.000  C
  C198     1.0000 0.16570  0.26910  0.65240  Biso   1.000  C
  C199     1.0000 0.16570  0.73090  0.15240  Biso   1.000  C
  C200     1.0000 0.83430  0.26910  0.65240  Biso   1.000  C
  C201     1.0000 0.38150  0.20900  0.15010  Biso   1.000  C
  C202     1.0000 0.61850  0.79100  0.65010  Biso   1.000  C
  C203     1.0000 0.61850  0.20900  0.15010  Biso   1.000  C
  C204     1.0000 0.38150  0.79100  0.65010  Biso   1.000  C
  C205     1.0000 0.88150  0.70900  0.15010  Biso   1.000  C
  C206     1.0000 0.11850  0.29100  0.65010  Biso   1.000  C
  C207     1.0000 0.11850  0.70900  0.15010  Biso   1.000  C
  C208     1.0000 0.88150  0.29100  0.65010  Biso   1.000  C
  H145     1.0000 0.40090  0.20470  0.19270  Biso   1.000  H
  H146     1.0000 0.59910  0.79530  0.69270  Biso   1.000  H
  H147     1.0000 0.59910  0.20470  0.19270  Biso   1.000  H
  H148     1.0000 0.40090  0.79530  0.69270  Biso   1.000  H
  H149     1.0000 0.90090  0.70470  0.19270  Biso   1.000  H
  H150     1.0000 0.09910  0.29530  0.69270  Biso   1.000  H
  H151     1.0000 0.09910  0.70470  0.19270  Biso   1.000  H
  H152     1.0000 0.90090  0.29530  0.69270  Biso   1.000  H
  C209     1.0000 0.30620  0.23870  0.08670  Biso   1.000  C
  C210     1.0000 0.69380  0.76130  0.58670  Biso   1.000  C
  C211     1.0000 0.69380  0.23870  0.08670  Biso   1.000  C
  C212     1.0000 0.30620  0.76130  0.58670  Biso   1.000  C
  C213     1.0000 0.80620  0.73870  0.08670  Biso   1.000  C
  C214     1.0000 0.19380  0.26130  0.58670  Biso   1.000  C
  C215     1.0000 0.19380  0.73870  0.08670  Biso   1.000  C
  C216     1.0000 0.80620  0.26130  0.58670  Biso   1.000  C
  H153     1.0000 0.27460  0.25370  0.08770  Biso   1.000  H
  H154     1.0000 0.72540  0.74630  0.58770  Biso   1.000  H
  H155     1.0000 0.72540  0.25370  0.08770  Biso   1.000  H
  H156     1.0000 0.27460  0.74630  0.58770  Biso   1.000  H
  H157     1.0000 0.77460  0.75370  0.08770  Biso   1.000  H
  H158     1.0000 0.22540  0.24630  0.58770  Biso   1.000  H
  H159     1.0000 0.22540  0.75370  0.08770  Biso   1.000  H
  H160     1.0000 0.77460  0.24630  0.58770  Biso   1.000  H
  C217     1.0000 0.32480  0.22490  0.02330  Biso   1.000  C
  C218     1.0000 0.67520  0.77510  0.52330  Biso   1.000  C
  C219     1.0000 0.67520  0.22490  0.02330  Biso   1.000  C
  C220     1.0000 0.32480  0.77510  0.52330  Biso   1.000  C
  C221     1.0000 0.82480  0.72490  0.02330  Biso   1.000  C
  C222     1.0000 0.17520  0.27510  0.52330  Biso   1.000  C
  C223     1.0000 0.17520  0.72490  0.02330  Biso   1.000  C
  C224     1.0000 0.82480  0.27510  0.52330  Biso   1.000  C
  C225     1.0000 0.40030  0.19310  0.08350  Biso   1.000  C
  C226     1.0000 0.59970  0.80690  0.58350  Biso   1.000  C
  C227     1.0000 0.59970  0.19310  0.08350  Biso   1.000  C
  C228     1.0000 0.40030  0.80690  0.58350  Biso   1.000  C
  C229     1.0000 0.90030  0.69310  0.08350  Biso   1.000  C
  C230     1.0000 0.09970  0.30690  0.58350  Biso   1.000  C
  C231     1.0000 0.09970  0.69310  0.08350  Biso   1.000  C
  C232     1.0000 0.90030  0.30690  0.58350  Biso   1.000  C
  C233     1.0000 0.37200  0.20180  0.01970  Biso   1.000  C
  C234     1.0000 0.62800  0.79820  0.51970  Biso   1.000  C
  C235     1.0000 0.62800  0.20180  0.01970  Biso   1.000  C
  C236     1.0000 0.37200  0.79820  0.51970  Biso   1.000  C
  C237     1.0000 0.87200  0.70180  0.01970  Biso   1.000  C
  C238     1.0000 0.12800  0.29820  0.51970  Biso   1.000  C
  C239     1.0000 0.12800  0.70180  0.01970  Biso   1.000  C
  C240     1.0000 0.87200  0.29820  0.51970  Biso   1.000  C
  H161     1.0000 0.38430  0.19230  0.97510  Biso   1.000  H
  H162     1.0000 0.61570  0.80770  0.47510  Biso   1.000  H
  H163     1.0000 0.61570  0.19230  0.97510  Biso   1.000  H
  H164     1.0000 0.38430  0.80770  0.47510  Biso   1.000  H
  H165     1.0000 0.88430  0.69230  0.97510  Biso   1.000  H
  H166     1.0000 0.11570  0.30770  0.47510  Biso   1.000  H
  H167     1.0000 0.11570  0.69230  0.97510  Biso   1.000  H
  H168     1.0000 0.88430  0.30770  0.47510  Biso   1.000  H
  C241     1.0000 0.29580  0.23220  0.95720  Biso   1.000  C
  C242     1.0000 0.70420  0.76780  0.45720  Biso   1.000  C
  C243     1.0000 0.70420  0.23220  0.95720  Biso   1.000  C
  C244     1.0000 0.29580  0.76780  0.45720  Biso   1.000  C
  C245     1.0000 0.79580  0.73220  0.95720  Biso   1.000  C
  C246     1.0000 0.20420  0.26780  0.45720  Biso   1.000  C
  C247     1.0000 0.20420  0.73220  0.95720  Biso   1.000  C
  C248     1.0000 0.79580  0.26780  0.45720  Biso   1.000  C
  C249     1.0000 0.45080  0.17070  0.07890  Biso   1.000  C
  C250     1.0000 0.54920  0.82930  0.57890  Biso   1.000  C
  C251     1.0000 0.54920  0.17070  0.07890  Biso   1.000  C
  C252     1.0000 0.45080  0.82930  0.57890  Biso   1.000  C
  C253     1.0000 0.95080  0.67070  0.07890  Biso   1.000  C
  C254     1.0000 0.04920  0.32930  0.57890  Biso   1.000  C
  C255     1.0000 0.04920  0.67070  0.07890  Biso   1.000  C
  C256     1.0000 0.95080  0.32930  0.57890  Biso   1.000  C
  C257     1.0000 0.50000  0.18730  0.09460  Biso   1.000  C
  C258     1.0000 0.50000  0.81270  0.59460  Biso   1.000  C
  C259     1.0000 0.00000  0.68730  0.09460  Biso   1.000  C
  C260     1.0000 0.00000  0.31270  0.59460  Biso   1.000  C
  H169     1.0000 0.50000  0.21200  0.11800  Biso   1.000  H
  H170     1.0000 0.50000  0.78800  0.61800  Biso   1.000  H
  H171     1.0000 0.00000  0.71200  0.11800  Biso   1.000  H
  H172     1.0000 0.00000  0.28800  0.61800  Biso   1.000  H
  C261     1.0000 0.45100  0.13380  0.04260  Biso   1.000  C
  C262     1.0000 0.54900  0.86620  0.54260  Biso   1.000  C
  C263     1.0000 0.54900  0.13380  0.04260  Biso   1.000  C
  C264     1.0000 0.45100  0.86620  0.54260  Biso   1.000  C
  C265     1.0000 0.95100  0.63380  0.04260  Biso   1.000  C
  C266     1.0000 0.04900  0.36620  0.54260  Biso   1.000  C
  C267     1.0000 0.04900  0.63380  0.04260  Biso   1.000  C
  C268     1.0000 0.95100  0.36620  0.54260  Biso   1.000  C
  H173     1.0000 0.41870  0.12210  0.02840  Biso   1.000  H
  H174     1.0000 0.58130  0.87790  0.52840  Biso   1.000  H
  H175     1.0000 0.58130  0.12210  0.02840  Biso   1.000  H
  H176     1.0000 0.41870  0.87790  0.52840  Biso   1.000  H
  H177     1.0000 0.91870  0.62210  0.02840  Biso   1.000  H
  H178     1.0000 0.08130  0.37790  0.52840  Biso   1.000  H
  H179     1.0000 0.08130  0.62210  0.02840  Biso   1.000  H
  H180     1.0000 0.91870  0.37790  0.52840  Biso   1.000  H
  C269     1.0000 0.50000  0.11420  0.02750  Biso   1.000  C
  C270     1.0000 0.50000  0.88580  0.52750  Biso   1.000  C
  C271     1.0000 0.00000  0.61420  0.02750  Biso   1.000  C
  C272     1.0000 0.00000  0.38580  0.52750  Biso   1.000  C
  C273     1.0000 0.50000  0.06760  0.00200  Biso   1.000  C
  C274     1.0000 0.50000  0.93240  0.50200  Biso   1.000  C
  C275     1.0000 0.00000  0.56760  0.00200  Biso   1.000  C
  C276     1.0000 0.00000  0.43240  0.50200  Biso   1.000  C
  H181     1.0000 0.46980  0.06380  0.97360  Biso   1.000  H
  H182     1.0000 0.53020  0.93620  0.47360  Biso   1.000  H
  H183     1.0000 0.53020  0.06380  0.97360  Biso   1.000  H
  H184     1.0000 0.46980  0.93620  0.47360  Biso   1.000  H
  H185     1.0000 0.96980  0.56380  0.97360  Biso   1.000  H
  H186     1.0000 0.03020  0.43620  0.47360  Biso   1.000  H
  H187     1.0000 0.03020  0.56380  0.97360  Biso   1.000  H
  H188     1.0000 0.96980  0.43620  0.47360  Biso   1.000  H
  H189     1.0000 0.50000  0.04840  0.03970  Biso   1.000  H
  H190     1.0000 0.50000  0.95160  0.53970  Biso   1.000  H
  H191     1.0000 0.00000  0.54840  0.03970  Biso   1.000  H
  H192     1.0000 0.00000  0.45160  0.53970  Biso   1.000  H
