data_image0
_cell_length_a       18.4999
_cell_length_b       18.4999
_cell_length_c       24.0168
_cell_angle_alpha    90
_cell_angle_beta     90
_cell_angle_gamma    120

_symmetry_space_group_name_H-M    "P 1"
_symmetry_int_tables_number       1

loop_
  _symmetry_equiv_pos_as_xyz
  'x, y, z'

loop_
  _atom_site_label
  _atom_site_occupancy
  _atom_site_fract_x
  _atom_site_fract_y
  _atom_site_fract_z
  _atom_site_thermal_displace_type
  _atom_site_B_iso_or_equiv
  _atom_site_type_symbol
  Cu1      1.0000 0.04820  0.52410  0.45521  Biso   1.000  Cu
  Cu2      1.0000 0.47590  0.52410  0.45521  Biso   1.000  Cu
  Cu3      1.0000 0.47590  0.95180  0.45521  Biso   1.000  Cu
  Cu4      1.0000 0.95180  0.47590  0.95521  Biso   1.000  Cu
  Cu5      1.0000 0.52410  0.47590  0.95521  Biso   1.000  Cu
  Cu6      1.0000 0.52410  0.04820  0.95521  Biso   1.000  Cu
  Cu7      1.0000 0.52410  0.04820  0.54479  Biso   1.000  Cu
  Cu8      1.0000 0.52410  0.47590  0.54479  Biso   1.000  Cu
  Cu9      1.0000 0.95180  0.47590  0.54479  Biso   1.000  Cu
  Cu10     1.0000 0.47590  0.95180  0.04479  Biso   1.000  Cu
  Cu11     1.0000 0.47590  0.52410  0.04479  Biso   1.000  Cu
  Cu12     1.0000 0.04820  0.52410  0.04479  Biso   1.000  Cu
  O1       1.0000 0.11008  0.62926  0.49624  Biso   1.000  O
  O2       1.0000 0.37074  0.48082  0.49624  Biso   1.000  O
  O3       1.0000 0.51918  0.88992  0.49624  Biso   1.000  O
  O4       1.0000 0.88992  0.37074  0.99624  Biso   1.000  O
  O5       1.0000 0.62926  0.51918  0.99624  Biso   1.000  O
  O6       1.0000 0.48082  0.11008  0.99624  Biso   1.000  O
  O7       1.0000 0.62926  0.11008  0.50376  Biso   1.000  O
  O8       1.0000 0.48082  0.37074  0.50376  Biso   1.000  O
  O9       1.0000 0.88992  0.51918  0.50376  Biso   1.000  O
  O10      1.0000 0.37074  0.88992  0.00376  Biso   1.000  O
  O11      1.0000 0.51918  0.62926  0.00376  Biso   1.000  O
  O12      1.0000 0.11008  0.48082  0.00376  Biso   1.000  O
  O13      1.0000 0.88992  0.37074  0.50376  Biso   1.000  O
  O14      1.0000 0.62926  0.51918  0.50376  Biso   1.000  O
  O15      1.0000 0.48082  0.11008  0.50376  Biso   1.000  O
  O16      1.0000 0.11008  0.62926  0.00376  Biso   1.000  O
  O17      1.0000 0.37074  0.48082  0.00376  Biso   1.000  O
  O18      1.0000 0.51918  0.88992  0.00376  Biso   1.000  O
  O19      1.0000 0.37074  0.88992  0.49624  Biso   1.000  O
  O20      1.0000 0.51918  0.62926  0.49624  Biso   1.000  O
  O21      1.0000 0.11008  0.48082  0.49624  Biso   1.000  O
  O22      1.0000 0.62926  0.11008  0.99624  Biso   1.000  O
  O23      1.0000 0.48082  0.37074  0.99624  Biso   1.000  O
  O24      1.0000 0.88992  0.51918  0.99624  Biso   1.000  O
  O25      1.0000 0.02806  0.58923  0.57180  Biso   1.000  O
  O26      1.0000 0.41077  0.43883  0.57180  Biso   1.000  O
  O27      1.0000 0.56117  0.97194  0.57180  Biso   1.000  O
  O28      1.0000 0.97194  0.41077  0.07180  Biso   1.000  O
  O29      1.0000 0.58923  0.56117  0.07180  Biso   1.000  O
  O30      1.0000 0.43883  0.02806  0.07180  Biso   1.000  O
  O31      1.0000 0.58923  0.02806  0.42820  Biso   1.000  O
  O32      1.0000 0.43883  0.41077  0.42820  Biso   1.000  O
  O33      1.0000 0.97194  0.56117  0.42820  Biso   1.000  O
  O34      1.0000 0.41077  0.97194  0.92820  Biso   1.000  O
  O35      1.0000 0.56117  0.58923  0.92820  Biso   1.000  O
  O36      1.0000 0.02806  0.43883  0.92820  Biso   1.000  O
  O37      1.0000 0.97194  0.41077  0.42820  Biso   1.000  O
  O38      1.0000 0.58923  0.56117  0.42820  Biso   1.000  O
  O39      1.0000 0.43883  0.02806  0.42820  Biso   1.000  O
  O40      1.0000 0.02806  0.58923  0.92820  Biso   1.000  O
  O41      1.0000 0.41077  0.43883  0.92820  Biso   1.000  O
  O42      1.0000 0.56117  0.97194  0.92820  Biso   1.000  O
  O43      1.0000 0.41077  0.97194  0.57180  Biso   1.000  O
  O44      1.0000 0.56117  0.58923  0.57180  Biso   1.000  O
  O45      1.0000 0.02806  0.43883  0.57180  Biso   1.000  O
  O46      1.0000 0.58923  0.02806  0.07180  Biso   1.000  O
  O47      1.0000 0.43883  0.41077  0.07180  Biso   1.000  O
  O48      1.0000 0.97194  0.56117  0.07180  Biso   1.000  O
  O49      1.0000 0.12670  0.56335  0.38238  Biso   1.000  O
  O50      1.0000 0.43665  0.56335  0.38238  Biso   1.000  O
  O51      1.0000 0.43665  0.87330  0.38238  Biso   1.000  O
  O52      1.0000 0.87330  0.43665  0.88238  Biso   1.000  O
  O53      1.0000 0.56335  0.43665  0.88238  Biso   1.000  O
  O54      1.0000 0.56335  0.12670  0.88238  Biso   1.000  O
  O55      1.0000 0.56335  0.12670  0.61762  Biso   1.000  O
  O56      1.0000 0.56335  0.43665  0.61762  Biso   1.000  O
  O57      1.0000 0.87330  0.43665  0.61762  Biso   1.000  O
  O58      1.0000 0.43665  0.87330  0.11762  Biso   1.000  O
  O59      1.0000 0.43665  0.56335  0.11762  Biso   1.000  O
  O60      1.0000 0.12670  0.56335  0.11762  Biso   1.000  O
  H1       1.0000 0.10790  0.52290  0.35920  Biso   1.000  H
  H2       1.0000 0.47710  0.58500  0.35920  Biso   1.000  H
  H3       1.0000 0.41500  0.89210  0.35920  Biso   1.000  H
  H4       1.0000 0.89210  0.47710  0.85920  Biso   1.000  H
  H5       1.0000 0.52290  0.41500  0.85920  Biso   1.000  H
  H6       1.0000 0.58500  0.10790  0.85920  Biso   1.000  H
  H7       1.0000 0.52290  0.10790  0.64080  Biso   1.000  H
  H8       1.0000 0.58500  0.47710  0.64080  Biso   1.000  H
  H9       1.0000 0.89210  0.41500  0.64080  Biso   1.000  H
  H10      1.0000 0.47710  0.89210  0.14080  Biso   1.000  H
  H11      1.0000 0.41500  0.52290  0.14080  Biso   1.000  H
  H12      1.0000 0.10790  0.58500  0.14080  Biso   1.000  H
  H13      1.0000 0.89210  0.47710  0.64080  Biso   1.000  H
  H14      1.0000 0.52290  0.41500  0.64080  Biso   1.000  H
  H15      1.0000 0.58500  0.10790  0.64080  Biso   1.000  H
  H16      1.0000 0.10790  0.52290  0.14080  Biso   1.000  H
  H17      1.0000 0.47710  0.58500  0.14080  Biso   1.000  H
  H18      1.0000 0.41500  0.89210  0.14080  Biso   1.000  H
  H19      1.0000 0.47710  0.89210  0.35920  Biso   1.000  H
  H20      1.0000 0.41500  0.52290  0.35920  Biso   1.000  H
  H21      1.0000 0.10790  0.58500  0.35920  Biso   1.000  H
  H22      1.0000 0.52290  0.10790  0.85920  Biso   1.000  H
  H23      1.0000 0.58500  0.47710  0.85920  Biso   1.000  H
  H24      1.0000 0.89210  0.41500  0.85920  Biso   1.000  H
  C1       1.0000 0.08973  0.64127  0.54340  Biso   1.000  C
  C2       1.0000 0.35873  0.44846  0.54340  Biso   1.000  C
  C3       1.0000 0.55154  0.91027  0.54340  Biso   1.000  C
  C4       1.0000 0.91027  0.35873  0.04340  Biso   1.000  C
  C5       1.0000 0.64127  0.55154  0.04340  Biso   1.000  C
  C6       1.0000 0.44846  0.08973  0.04340  Biso   1.000  C
  C7       1.0000 0.64127  0.08973  0.45660  Biso   1.000  C
  C8       1.0000 0.44846  0.35873  0.45660  Biso   1.000  C
  C9       1.0000 0.91027  0.55154  0.45660  Biso   1.000  C
  C10      1.0000 0.35873  0.91027  0.95660  Biso   1.000  C
  C11      1.0000 0.55154  0.64127  0.95660  Biso   1.000  C
  C12      1.0000 0.08973  0.44846  0.95660  Biso   1.000  C
  C13      1.0000 0.91027  0.35873  0.45660  Biso   1.000  C
  C14      1.0000 0.64127  0.55154  0.45660  Biso   1.000  C
  C15      1.0000 0.44846  0.08973  0.45660  Biso   1.000  C
  C16      1.0000 0.08973  0.64127  0.95660  Biso   1.000  C
  C17      1.0000 0.35873  0.44846  0.95660  Biso   1.000  C
  C18      1.0000 0.55154  0.91027  0.95660  Biso   1.000  C
  C19      1.0000 0.35873  0.91027  0.54340  Biso   1.000  C
  C20      1.0000 0.55154  0.64127  0.54340  Biso   1.000  C
  C21      1.0000 0.08973  0.44846  0.54340  Biso   1.000  C
  C22      1.0000 0.64127  0.08973  0.04340  Biso   1.000  C
  C23      1.0000 0.44846  0.35873  0.04340  Biso   1.000  C
  C24      1.0000 0.91027  0.55154  0.04340  Biso   1.000  C
  C25      1.0000 0.14532  0.72453  0.56966  Biso   1.000  C
  C26      1.0000 0.27547  0.42079  0.56966  Biso   1.000  C
  C27      1.0000 0.57921  0.85468  0.56966  Biso   1.000  C
  C28      1.0000 0.85468  0.27547  0.06966  Biso   1.000  C
  C29      1.0000 0.72453  0.57921  0.06966  Biso   1.000  C
  C30      1.0000 0.42079  0.14532  0.06966  Biso   1.000  C
  C31      1.0000 0.72453  0.14532  0.43034  Biso   1.000  C
  C32      1.0000 0.42079  0.27547  0.43034  Biso   1.000  C
  C33      1.0000 0.85468  0.57921  0.43034  Biso   1.000  C
  C34      1.0000 0.27547  0.85468  0.93034  Biso   1.000  C
  C35      1.0000 0.57921  0.72453  0.93034  Biso   1.000  C
  C36      1.0000 0.14532  0.42079  0.93034  Biso   1.000  C
  C37      1.0000 0.85468  0.27547  0.43034  Biso   1.000  C
  C38      1.0000 0.72453  0.57921  0.43034  Biso   1.000  C
  C39      1.0000 0.42079  0.14532  0.43034  Biso   1.000  C
  C40      1.0000 0.14532  0.72453  0.93034  Biso   1.000  C
  C41      1.0000 0.27547  0.42079  0.93034  Biso   1.000  C
  C42      1.0000 0.57921  0.85468  0.93034  Biso   1.000  C
  C43      1.0000 0.27547  0.85468  0.56966  Biso   1.000  C
  C44      1.0000 0.57921  0.72453  0.56966  Biso   1.000  C
  C45      1.0000 0.14532  0.42079  0.56966  Biso   1.000  C
  C46      1.0000 0.72453  0.14532  0.06966  Biso   1.000  C
  C47      1.0000 0.42079  0.27547  0.06966  Biso   1.000  C
  C48      1.0000 0.85468  0.57921  0.06966  Biso   1.000  C
  C49      1.0000 0.22110  0.77890  0.54424  Biso   1.000  C
  C50      1.0000 0.22110  0.44220  0.54424  Biso   1.000  C
  C51      1.0000 0.55780  0.77890  0.54424  Biso   1.000  C
  C52      1.0000 0.77890  0.22110  0.04424  Biso   1.000  C
  C53      1.0000 0.77890  0.55780  0.04424  Biso   1.000  C
  C54      1.0000 0.44220  0.22110  0.04424  Biso   1.000  C
  C55      1.0000 0.77890  0.22110  0.45576  Biso   1.000  C
  C56      1.0000 0.44220  0.22110  0.45576  Biso   1.000  C
  C57      1.0000 0.77890  0.55780  0.45576  Biso   1.000  C
  C58      1.0000 0.22110  0.77890  0.95576  Biso   1.000  C
  C59      1.0000 0.55780  0.77890  0.95576  Biso   1.000  C
  C60      1.0000 0.22110  0.44220  0.95576  Biso   1.000  C
  H25      1.0000 0.23530  0.76470  0.51050  Biso   1.000  H
  H26      1.0000 0.23530  0.47060  0.51050  Biso   1.000  H
  H27      1.0000 0.52940  0.76470  0.51050  Biso   1.000  H
  H28      1.0000 0.76470  0.23530  0.01050  Biso   1.000  H
  H29      1.0000 0.76470  0.52940  0.01050  Biso   1.000  H
  H30      1.0000 0.47060  0.23530  0.01050  Biso   1.000  H
  H31      1.0000 0.76470  0.23530  0.48950  Biso   1.000  H
  H32      1.0000 0.47060  0.23530  0.48950  Biso   1.000  H
  H33      1.0000 0.76470  0.52940  0.48950  Biso   1.000  H
  H34      1.0000 0.23530  0.76470  0.98950  Biso   1.000  H
  H35      1.0000 0.52940  0.76470  0.98950  Biso   1.000  H
  H36      1.0000 0.23530  0.47060  0.98950  Biso   1.000  H
  C61      1.0000 0.12377  0.74667  0.62045  Biso   1.000  C
  C62      1.0000 0.25333  0.37710  0.62045  Biso   1.000  C
  C63      1.0000 0.62290  0.87623  0.62045  Biso   1.000  C
  C64      1.0000 0.87623  0.25333  0.12045  Biso   1.000  C
  C65      1.0000 0.74667  0.62290  0.12045  Biso   1.000  C
  C66      1.0000 0.37710  0.12377  0.12045  Biso   1.000  C
  C67      1.0000 0.74667  0.12377  0.37955  Biso   1.000  C
  C68      1.0000 0.37710  0.25333  0.37955  Biso   1.000  C
  C69      1.0000 0.87623  0.62290  0.37955  Biso   1.000  C
  C70      1.0000 0.25333  0.87623  0.87955  Biso   1.000  C
  C71      1.0000 0.62290  0.74667  0.87955  Biso   1.000  C
  C72      1.0000 0.12377  0.37710  0.87955  Biso   1.000  C
  C73      1.0000 0.87623  0.25333  0.37955  Biso   1.000  C
  C74      1.0000 0.74667  0.62290  0.37955  Biso   1.000  C
  C75      1.0000 0.37710  0.12377  0.37955  Biso   1.000  C
  C76      1.0000 0.12377  0.74667  0.87955  Biso   1.000  C
  C77      1.0000 0.25333  0.37710  0.87955  Biso   1.000  C
  C78      1.0000 0.62290  0.87623  0.87955  Biso   1.000  C
  C79      1.0000 0.25333  0.87623  0.62045  Biso   1.000  C
  C80      1.0000 0.62290  0.74667  0.62045  Biso   1.000  C
  C81      1.0000 0.12377  0.37710  0.62045  Biso   1.000  C
  C82      1.0000 0.74667  0.12377  0.12045  Biso   1.000  C
  C83      1.0000 0.37710  0.25333  0.12045  Biso   1.000  C
  C84      1.0000 0.87623  0.62290  0.12045  Biso   1.000  C
  H37      1.0000 0.07330  0.71000  0.63750  Biso   1.000  H
  H38      1.0000 0.29000  0.36330  0.63750  Biso   1.000  H
  H39      1.0000 0.63670  0.92670  0.63750  Biso   1.000  H
  H40      1.0000 0.92670  0.29000  0.13750  Biso   1.000  H
  H41      1.0000 0.71000  0.63670  0.13750  Biso   1.000  H
  H42      1.0000 0.36330  0.07330  0.13750  Biso   1.000  H
  H43      1.0000 0.71000  0.07330  0.36250  Biso   1.000  H
  H44      1.0000 0.36330  0.29000  0.36250  Biso   1.000  H
  H45      1.0000 0.92670  0.63670  0.36250  Biso   1.000  H
  H46      1.0000 0.29000  0.92670  0.86250  Biso   1.000  H
  H47      1.0000 0.63670  0.71000  0.86250  Biso   1.000  H
  H48      1.0000 0.07330  0.36330  0.86250  Biso   1.000  H
  H49      1.0000 0.92670  0.29000  0.36250  Biso   1.000  H
  H50      1.0000 0.71000  0.63670  0.36250  Biso   1.000  H
  H51      1.0000 0.36330  0.07330  0.36250  Biso   1.000  H
  H52      1.0000 0.07330  0.71000  0.86250  Biso   1.000  H
  H53      1.0000 0.29000  0.36330  0.86250  Biso   1.000  H
  H54      1.0000 0.63670  0.92670  0.86250  Biso   1.000  H
  H55      1.0000 0.29000  0.92670  0.63750  Biso   1.000  H
  H56      1.0000 0.63670  0.71000  0.63750  Biso   1.000  H
  H57      1.0000 0.07330  0.36330  0.63750  Biso   1.000  H
  H58      1.0000 0.71000  0.07330  0.13750  Biso   1.000  H
  H59      1.0000 0.36330  0.29000  0.13750  Biso   1.000  H
  H60      1.0000 0.92670  0.63670  0.13750  Biso   1.000  H
  C85      1.0000 0.17722  0.82278  0.64530  Biso   1.000  C
  C86      1.0000 0.17722  0.35444  0.64530  Biso   1.000  C
  C87      1.0000 0.64556  0.82278  0.64530  Biso   1.000  C
  C88      1.0000 0.82278  0.17722  0.14530  Biso   1.000  C
  C89      1.0000 0.82278  0.64556  0.14530  Biso   1.000  C
  C90      1.0000 0.35444  0.17722  0.14530  Biso   1.000  C
  C91      1.0000 0.82278  0.17722  0.35470  Biso   1.000  C
  C92      1.0000 0.35444  0.17722  0.35470  Biso   1.000  C
  C93      1.0000 0.82278  0.64556  0.35470  Biso   1.000  C
  C94      1.0000 0.17722  0.82278  0.85470  Biso   1.000  C
  C95      1.0000 0.64556  0.82278  0.85470  Biso   1.000  C
  C96      1.0000 0.17722  0.35444  0.85470  Biso   1.000  C
  C97      1.0000 0.15456  0.84544  0.69971  Biso   1.000  C
  C98      1.0000 0.15456  0.30912  0.69971  Biso   1.000  C
  C99      1.0000 0.69088  0.84544  0.69971  Biso   1.000  C
  C100     1.0000 0.84544  0.15456  0.19971  Biso   1.000  C
  C101     1.0000 0.84544  0.69088  0.19971  Biso   1.000  C
  C102     1.0000 0.30912  0.15456  0.19971  Biso   1.000  C
  C103     1.0000 0.84544  0.15456  0.30029  Biso   1.000  C
  C104     1.0000 0.30912  0.15456  0.30029  Biso   1.000  C
  C105     1.0000 0.84544  0.69088  0.30029  Biso   1.000  C
  C106     1.0000 0.15456  0.84544  0.80029  Biso   1.000  C
  C107     1.0000 0.69088  0.84544  0.80029  Biso   1.000  C
  C108     1.0000 0.15456  0.30912  0.80029  Biso   1.000  C
  C109     1.0000 0.17632  0.82368  0.75000  Biso   1.000  C
  C110     1.0000 0.17632  0.35264  0.75000  Biso   1.000  C
  C111     1.0000 0.64736  0.82368  0.75000  Biso   1.000  C
  C112     1.0000 0.82368  0.17632  0.25000  Biso   1.000  C
  C113     1.0000 0.82368  0.64736  0.25000  Biso   1.000  C
  C114     1.0000 0.35264  0.17632  0.25000  Biso   1.000  C
  C115     1.0000 0.11238  0.88762  0.70035  Biso   1.000  C
  C116     1.0000 0.11238  0.22476  0.70035  Biso   1.000  C
  C117     1.0000 0.77524  0.88762  0.70035  Biso   1.000  C
  C118     1.0000 0.88762  0.11238  0.20035  Biso   1.000  C
  C119     1.0000 0.88762  0.77524  0.20035  Biso   1.000  C
  C120     1.0000 0.22476  0.11238  0.20035  Biso   1.000  C
  C121     1.0000 0.88762  0.11238  0.29965  Biso   1.000  C
  C122     1.0000 0.22476  0.11238  0.29965  Biso   1.000  C
  C123     1.0000 0.88762  0.77524  0.29965  Biso   1.000  C
  C124     1.0000 0.11238  0.88762  0.79965  Biso   1.000  C
  C125     1.0000 0.77524  0.88762  0.79965  Biso   1.000  C
  C126     1.0000 0.11238  0.22476  0.79965  Biso   1.000  C
  H61      1.0000 0.09780  0.90220  0.66690  Biso   1.000  H
  H62      1.0000 0.09780  0.19560  0.66690  Biso   1.000  H
  H63      1.0000 0.80440  0.90220  0.66690  Biso   1.000  H
  H64      1.0000 0.90220  0.09780  0.16690  Biso   1.000  H
  H65      1.0000 0.90220  0.80440  0.16690  Biso   1.000  H
  H66      1.0000 0.19560  0.09780  0.16690  Biso   1.000  H
  H67      1.0000 0.90220  0.09780  0.33310  Biso   1.000  H
  H68      1.0000 0.19560  0.09780  0.33310  Biso   1.000  H
  H69      1.0000 0.90220  0.80440  0.33310  Biso   1.000  H
  H70      1.0000 0.09780  0.90220  0.83310  Biso   1.000  H
  H71      1.0000 0.80440  0.90220  0.83310  Biso   1.000  H
  H72      1.0000 0.09780  0.19560  0.83310  Biso   1.000  H
  C127     1.0000 0.09070  0.90930  0.75000  Biso   1.000  C
  C128     1.0000 0.09070  0.18140  0.75000  Biso   1.000  C
  C129     1.0000 0.81860  0.90930  0.75000  Biso   1.000  C
  C130     1.0000 0.90930  0.09070  0.25000  Biso   1.000  C
  C131     1.0000 0.90930  0.81860  0.25000  Biso   1.000  C
  C132     1.0000 0.18140  0.09070  0.25000  Biso   1.000  C
  H73      1.0000 0.06170  0.93830  0.75000  Biso   1.000  H
  H74      1.0000 0.06170  0.12340  0.75000  Biso   1.000  H
  H75      1.0000 0.87660  0.93830  0.75000  Biso   1.000  H
  H76      1.0000 0.93830  0.06170  0.25000  Biso   1.000  H
  H77      1.0000 0.93830  0.87660  0.25000  Biso   1.000  H
  H78      1.0000 0.12340  0.06170  0.25000  Biso   1.000  H
  C133     1.0000 0.22310  0.77690  0.75000  Biso   1.000  C
  C134     1.0000 0.22310  0.44620  0.75000  Biso   1.000  C
  C135     1.0000 0.55380  0.77690  0.75000  Biso   1.000  C
  C136     1.0000 0.77690  0.22310  0.25000  Biso   1.000  C
  C137     1.0000 0.77690  0.55380  0.25000  Biso   1.000  C
  C138     1.0000 0.44620  0.22310  0.25000  Biso   1.000  C
  H79      1.0000 0.23310  0.76630  0.78770  Biso   1.000  H
  H80      1.0000 0.23370  0.46680  0.78770  Biso   1.000  H
  H81      1.0000 0.53320  0.76690  0.78770  Biso   1.000  H
  H82      1.0000 0.76690  0.23370  0.28770  Biso   1.000  H
  H83      1.0000 0.76630  0.53320  0.28770  Biso   1.000  H
  H84      1.0000 0.46680  0.23310  0.28770  Biso   1.000  H
  H85      1.0000 0.76630  0.23310  0.21230  Biso   1.000  H
  H86      1.0000 0.46680  0.23370  0.21230  Biso   1.000  H
  H87      1.0000 0.76690  0.53320  0.21230  Biso   1.000  H
  H88      1.0000 0.23370  0.76690  0.71230  Biso   1.000  H
  H89      1.0000 0.53320  0.76630  0.71230  Biso   1.000  H
  H90      1.0000 0.23310  0.46680  0.71230  Biso   1.000  H
  H91      1.0000 0.19070  0.72490  0.73120  Biso   1.000  H
  H92      1.0000 0.27510  0.46580  0.73120  Biso   1.000  H
  H93      1.0000 0.53420  0.80930  0.73120  Biso   1.000  H
  H94      1.0000 0.80930  0.27510  0.23120  Biso   1.000  H
  H95      1.0000 0.72490  0.53420  0.23120  Biso   1.000  H
  H96      1.0000 0.46580  0.19070  0.23120  Biso   1.000  H
  H97      1.0000 0.72490  0.19070  0.26880  Biso   1.000  H
  H98      1.0000 0.46580  0.27510  0.26880  Biso   1.000  H
  H99      1.0000 0.80930  0.53420  0.26880  Biso   1.000  H
  H100     1.0000 0.27510  0.80930  0.76880  Biso   1.000  H
  H101     1.0000 0.53420  0.72490  0.76880  Biso   1.000  H
  H102     1.0000 0.19070  0.46580  0.76880  Biso   1.000  H
  H103     1.0000 0.80930  0.27510  0.26880  Biso   1.000  H
  H104     1.0000 0.72490  0.53420  0.26880  Biso   1.000  H
  H105     1.0000 0.46580  0.19070  0.26880  Biso   1.000  H
  H106     1.0000 0.19070  0.72490  0.76880  Biso   1.000  H
  H107     1.0000 0.27510  0.46580  0.76880  Biso   1.000  H
  H108     1.0000 0.53420  0.80930  0.76880  Biso   1.000  H
  H109     1.0000 0.27510  0.80930  0.73120  Biso   1.000  H
  H110     1.0000 0.53420  0.72490  0.73120  Biso   1.000  H
  H111     1.0000 0.19070  0.46580  0.73120  Biso   1.000  H
  H112     1.0000 0.72490  0.19070  0.23120  Biso   1.000  H
  H113     1.0000 0.46580  0.27510  0.23120  Biso   1.000  H
  H114     1.0000 0.80930  0.53420  0.23120  Biso   1.000  H
