data_image0
_cell_length_a       18.4882
_cell_length_b       18.4882
_cell_length_c       23.4316
_cell_angle_alpha    90
_cell_angle_beta     90
_cell_angle_gamma    120

_symmetry_space_group_name_H-M    "P 1"
_symmetry_int_tables_number       1

loop_
  _symmetry_equiv_pos_as_xyz
  'x, y, z'

loop_
  _atom_site_label
  _atom_site_occupancy
  _atom_site_fract_x
  _atom_site_fract_y
  _atom_site_fract_z
  _atom_site_thermal_displace_type
  _atom_site_B_iso_or_equiv
  _atom_site_type_symbol
  Cu1      1.0000 0.52392  0.47608  0.04621  Biso   1.000  Cu
  Cu2      1.0000 0.04784  0.52392  0.54621  Biso   1.000  Cu
  Cu3      1.0000 0.52392  0.04784  0.04621  Biso   1.000  Cu
  Cu4      1.0000 0.47608  0.52392  0.54621  Biso   1.000  Cu
  Cu5      1.0000 0.95216  0.47608  0.04621  Biso   1.000  Cu
  Cu6      1.0000 0.47608  0.95216  0.54621  Biso   1.000  Cu
  Cu7      1.0000 0.52392  0.47608  0.45379  Biso   1.000  Cu
  Cu8      1.0000 0.04784  0.52392  0.95379  Biso   1.000  Cu
  Cu9      1.0000 0.52392  0.04784  0.45379  Biso   1.000  Cu
  Cu10     1.0000 0.47608  0.52392  0.95379  Biso   1.000  Cu
  Cu11     1.0000 0.95216  0.47608  0.45379  Biso   1.000  Cu
  Cu12     1.0000 0.47608  0.95216  0.95379  Biso   1.000  Cu
  O1       1.0000 0.41000  0.43903  0.07331  Biso   1.000  O
  O2       1.0000 0.97097  0.41000  0.57331  Biso   1.000  O
  O3       1.0000 0.56097  0.97097  0.07331  Biso   1.000  O
  O4       1.0000 0.59000  0.56097  0.57331  Biso   1.000  O
  O5       1.0000 0.02903  0.59000  0.07331  Biso   1.000  O
  O6       1.0000 0.43903  0.02903  0.57331  Biso   1.000  O
  O7       1.0000 0.56097  0.59000  0.42669  Biso   1.000  O
  O8       1.0000 0.97097  0.56097  0.92669  Biso   1.000  O
  O9       1.0000 0.41000  0.97097  0.42669  Biso   1.000  O
  O10      1.0000 0.43903  0.41000  0.92669  Biso   1.000  O
  O11      1.0000 0.02903  0.43903  0.42669  Biso   1.000  O
  O12      1.0000 0.59000  0.02903  0.92669  Biso   1.000  O
  O13      1.0000 0.59000  0.56097  0.92669  Biso   1.000  O
  O14      1.0000 0.02903  0.59000  0.42669  Biso   1.000  O
  O15      1.0000 0.43903  0.02903  0.92669  Biso   1.000  O
  O16      1.0000 0.41000  0.43903  0.42669  Biso   1.000  O
  O17      1.0000 0.97097  0.41000  0.92669  Biso   1.000  O
  O18      1.0000 0.56097  0.97097  0.42669  Biso   1.000  O
  O19      1.0000 0.43903  0.41000  0.57331  Biso   1.000  O
  O20      1.0000 0.02903  0.43903  0.07331  Biso   1.000  O
  O21      1.0000 0.59000  0.02903  0.57331  Biso   1.000  O
  O22      1.0000 0.56097  0.59000  0.07331  Biso   1.000  O
  O23      1.0000 0.97097  0.56097  0.57331  Biso   1.000  O
  O24      1.0000 0.41000  0.97097  0.07331  Biso   1.000  O
  O25      1.0000 0.37115  0.48093  0.99442  Biso   1.000  O
  O26      1.0000 0.89022  0.37115  0.49442  Biso   1.000  O
  O27      1.0000 0.51907  0.89022  0.99442  Biso   1.000  O
  O28      1.0000 0.62885  0.51907  0.49442  Biso   1.000  O
  O29      1.0000 0.10978  0.62885  0.99442  Biso   1.000  O
  O30      1.0000 0.48093  0.10978  0.49442  Biso   1.000  O
  O31      1.0000 0.51907  0.62885  0.50558  Biso   1.000  O
  O32      1.0000 0.89022  0.51907  0.00558  Biso   1.000  O
  O33      1.0000 0.37115  0.89022  0.50558  Biso   1.000  O
  O34      1.0000 0.48093  0.37115  0.00558  Biso   1.000  O
  O35      1.0000 0.10978  0.48093  0.50558  Biso   1.000  O
  O36      1.0000 0.62885  0.10978  0.00558  Biso   1.000  O
  O37      1.0000 0.62885  0.51907  0.00558  Biso   1.000  O
  O38      1.0000 0.10978  0.62885  0.50558  Biso   1.000  O
  O39      1.0000 0.48093  0.10978  0.00558  Biso   1.000  O
  O40      1.0000 0.37115  0.48093  0.50558  Biso   1.000  O
  O41      1.0000 0.89022  0.37115  0.00558  Biso   1.000  O
  O42      1.0000 0.51907  0.89022  0.50558  Biso   1.000  O
  O43      1.0000 0.48093  0.37115  0.49442  Biso   1.000  O
  O44      1.0000 0.10978  0.48093  0.99442  Biso   1.000  O
  O45      1.0000 0.62885  0.10978  0.49442  Biso   1.000  O
  O46      1.0000 0.51907  0.62885  0.99442  Biso   1.000  O
  O47      1.0000 0.89022  0.51907  0.49442  Biso   1.000  O
  O48      1.0000 0.37115  0.89022  0.99442  Biso   1.000  O
  O49      1.0000 0.56090  0.43910  0.12430  Biso   1.000  O
  O50      1.0000 0.12180  0.56090  0.62430  Biso   1.000  O
  O51      1.0000 0.56090  0.12180  0.12430  Biso   1.000  O
  O52      1.0000 0.43910  0.56090  0.62430  Biso   1.000  O
  O53      1.0000 0.87820  0.43910  0.12430  Biso   1.000  O
  O54      1.0000 0.43910  0.87820  0.62430  Biso   1.000  O
  O55      1.0000 0.56090  0.43910  0.37570  Biso   1.000  O
  O56      1.0000 0.12180  0.56090  0.87570  Biso   1.000  O
  O57      1.0000 0.56090  0.12180  0.37570  Biso   1.000  O
  O58      1.0000 0.43910  0.56090  0.87570  Biso   1.000  O
  O59      1.0000 0.87820  0.43910  0.37570  Biso   1.000  O
  O60      1.0000 0.43910  0.87820  0.87570  Biso   1.000  O
  H1       1.0000 0.61130  0.44980  0.12130  Biso   1.000  H
  H2       1.0000 0.16150  0.61130  0.62130  Biso   1.000  H
  H3       1.0000 0.55020  0.16150  0.12130  Biso   1.000  H
  H4       1.0000 0.38870  0.55020  0.62130  Biso   1.000  H
  H5       1.0000 0.83850  0.38870  0.12130  Biso   1.000  H
  H6       1.0000 0.44980  0.83850  0.62130  Biso   1.000  H
  H7       1.0000 0.55020  0.38870  0.37870  Biso   1.000  H
  H8       1.0000 0.16150  0.55020  0.87870  Biso   1.000  H
  H9       1.0000 0.61130  0.16150  0.37870  Biso   1.000  H
  H10      1.0000 0.44980  0.61130  0.87870  Biso   1.000  H
  H11      1.0000 0.83850  0.44980  0.37870  Biso   1.000  H
  H12      1.0000 0.38870  0.83850  0.87870  Biso   1.000  H
  H13      1.0000 0.38870  0.55020  0.87870  Biso   1.000  H
  H14      1.0000 0.83850  0.38870  0.37870  Biso   1.000  H
  H15      1.0000 0.44980  0.83850  0.87870  Biso   1.000  H
  H16      1.0000 0.61130  0.44980  0.37870  Biso   1.000  H
  H17      1.0000 0.16150  0.61130  0.87870  Biso   1.000  H
  H18      1.0000 0.55020  0.16150  0.37870  Biso   1.000  H
  H19      1.0000 0.44980  0.61130  0.62130  Biso   1.000  H
  H20      1.0000 0.83850  0.44980  0.12130  Biso   1.000  H
  H21      1.0000 0.38870  0.83850  0.62130  Biso   1.000  H
  H22      1.0000 0.55020  0.38870  0.12130  Biso   1.000  H
  H23      1.0000 0.16150  0.55020  0.62130  Biso   1.000  H
  H24      1.0000 0.61130  0.16150  0.12130  Biso   1.000  H
  C1       1.0000 0.36000  0.45050  0.04390  Biso   1.000  C
  C2       1.0000 0.90950  0.36000  0.54390  Biso   1.000  C
  C3       1.0000 0.54950  0.90950  0.04390  Biso   1.000  C
  C4       1.0000 0.64000  0.54950  0.54390  Biso   1.000  C
  C5       1.0000 0.09050  0.64000  0.04390  Biso   1.000  C
  C6       1.0000 0.45050  0.09050  0.54390  Biso   1.000  C
  C7       1.0000 0.54950  0.64000  0.45610  Biso   1.000  C
  C8       1.0000 0.90950  0.54950  0.95610  Biso   1.000  C
  C9       1.0000 0.36000  0.90950  0.45610  Biso   1.000  C
  C10      1.0000 0.45050  0.36000  0.95610  Biso   1.000  C
  C11      1.0000 0.09050  0.45050  0.45610  Biso   1.000  C
  C12      1.0000 0.64000  0.09050  0.95610  Biso   1.000  C
  C13      1.0000 0.64000  0.54950  0.95610  Biso   1.000  C
  C14      1.0000 0.09050  0.64000  0.45610  Biso   1.000  C
  C15      1.0000 0.45050  0.09050  0.95610  Biso   1.000  C
  C16      1.0000 0.36000  0.45050  0.45610  Biso   1.000  C
  C17      1.0000 0.90950  0.36000  0.95610  Biso   1.000  C
  C18      1.0000 0.54950  0.90950  0.45610  Biso   1.000  C
  C19      1.0000 0.45050  0.36000  0.54390  Biso   1.000  C
  C20      1.0000 0.09050  0.45050  0.04390  Biso   1.000  C
  C21      1.0000 0.64000  0.09050  0.54390  Biso   1.000  C
  C22      1.0000 0.54950  0.64000  0.04390  Biso   1.000  C
  C23      1.0000 0.90950  0.54950  0.54390  Biso   1.000  C
  C24      1.0000 0.36000  0.90950  0.04390  Biso   1.000  C
  C25      1.0000 0.27460  0.41990  0.06988  Biso   1.000  C
  C26      1.0000 0.85470  0.27460  0.56988  Biso   1.000  C
  C27      1.0000 0.58010  0.85470  0.06988  Biso   1.000  C
  C28      1.0000 0.72540  0.58010  0.56988  Biso   1.000  C
  C29      1.0000 0.14530  0.72540  0.06988  Biso   1.000  C
  C30      1.0000 0.41990  0.14530  0.56988  Biso   1.000  C
  C31      1.0000 0.58010  0.72540  0.43012  Biso   1.000  C
  C32      1.0000 0.85470  0.58010  0.93012  Biso   1.000  C
  C33      1.0000 0.27460  0.85470  0.43012  Biso   1.000  C
  C34      1.0000 0.41990  0.27460  0.93012  Biso   1.000  C
  C35      1.0000 0.14530  0.41990  0.43012  Biso   1.000  C
  C36      1.0000 0.72540  0.14530  0.93012  Biso   1.000  C
  C37      1.0000 0.72540  0.58010  0.93012  Biso   1.000  C
  C38      1.0000 0.14530  0.72540  0.43012  Biso   1.000  C
  C39      1.0000 0.41990  0.14530  0.93012  Biso   1.000  C
  C40      1.0000 0.27460  0.41990  0.43012  Biso   1.000  C
  C41      1.0000 0.85470  0.27460  0.93012  Biso   1.000  C
  C42      1.0000 0.58010  0.85470  0.43012  Biso   1.000  C
  C43      1.0000 0.41990  0.27460  0.56988  Biso   1.000  C
  C44      1.0000 0.14530  0.41990  0.06988  Biso   1.000  C
  C45      1.0000 0.72540  0.14530  0.56988  Biso   1.000  C
  C46      1.0000 0.58010  0.72540  0.06988  Biso   1.000  C
  C47      1.0000 0.85470  0.58010  0.56988  Biso   1.000  C
  C48      1.0000 0.27460  0.85470  0.06988  Biso   1.000  C
  C49      1.0000 0.25130  0.37280  0.11885  Biso   1.000  C
  C50      1.0000 0.87850  0.25130  0.61885  Biso   1.000  C
  C51      1.0000 0.62720  0.87850  0.11885  Biso   1.000  C
  C52      1.0000 0.74870  0.62720  0.61885  Biso   1.000  C
  C53      1.0000 0.12150  0.74870  0.11885  Biso   1.000  C
  C54      1.0000 0.37280  0.12150  0.61885  Biso   1.000  C
  C55      1.0000 0.62720  0.74870  0.38115  Biso   1.000  C
  C56      1.0000 0.87850  0.62720  0.88115  Biso   1.000  C
  C57      1.0000 0.25130  0.87850  0.38115  Biso   1.000  C
  C58      1.0000 0.37280  0.25130  0.88115  Biso   1.000  C
  C59      1.0000 0.12150  0.37280  0.38115  Biso   1.000  C
  C60      1.0000 0.74870  0.12150  0.88115  Biso   1.000  C
  C61      1.0000 0.74870  0.62720  0.88115  Biso   1.000  C
  C62      1.0000 0.12150  0.74870  0.38115  Biso   1.000  C
  C63      1.0000 0.37280  0.12150  0.88115  Biso   1.000  C
  C64      1.0000 0.25130  0.37280  0.38115  Biso   1.000  C
  C65      1.0000 0.87850  0.25130  0.88115  Biso   1.000  C
  C66      1.0000 0.62720  0.87850  0.38115  Biso   1.000  C
  C67      1.0000 0.37280  0.25130  0.61885  Biso   1.000  C
  C68      1.0000 0.12150  0.37280  0.11885  Biso   1.000  C
  C69      1.0000 0.74870  0.12150  0.61885  Biso   1.000  C
  C70      1.0000 0.62720  0.74870  0.11885  Biso   1.000  C
  C71      1.0000 0.87850  0.62720  0.61885  Biso   1.000  C
  C72      1.0000 0.25130  0.87850  0.11885  Biso   1.000  C
  H25      1.0000 0.28840  0.35750  0.13580  Biso   1.000  H
  H26      1.0000 0.93090  0.28840  0.63580  Biso   1.000  H
  H27      1.0000 0.64250  0.93090  0.13580  Biso   1.000  H
  H28      1.0000 0.71160  0.64250  0.63580  Biso   1.000  H
  H29      1.0000 0.06910  0.71160  0.13580  Biso   1.000  H
  H30      1.0000 0.35750  0.06910  0.63580  Biso   1.000  H
  H31      1.0000 0.64250  0.71160  0.36420  Biso   1.000  H
  H32      1.0000 0.93090  0.64250  0.86420  Biso   1.000  H
  H33      1.0000 0.28840  0.93090  0.36420  Biso   1.000  H
  H34      1.0000 0.35750  0.28840  0.86420  Biso   1.000  H
  H35      1.0000 0.06910  0.35750  0.36420  Biso   1.000  H
  H36      1.0000 0.71160  0.06910  0.86420  Biso   1.000  H
  H37      1.0000 0.71160  0.64250  0.86420  Biso   1.000  H
  H38      1.0000 0.06910  0.71160  0.36420  Biso   1.000  H
  H39      1.0000 0.35750  0.06910  0.86420  Biso   1.000  H
  H40      1.0000 0.28840  0.35750  0.36420  Biso   1.000  H
  H41      1.0000 0.93090  0.28840  0.86420  Biso   1.000  H
  H42      1.0000 0.64250  0.93090  0.36420  Biso   1.000  H
  H43      1.0000 0.35750  0.28840  0.63580  Biso   1.000  H
  H44      1.0000 0.06910  0.35750  0.13580  Biso   1.000  H
  H45      1.0000 0.71160  0.06910  0.63580  Biso   1.000  H
  H46      1.0000 0.64250  0.71160  0.13580  Biso   1.000  H
  H47      1.0000 0.93090  0.64250  0.63580  Biso   1.000  H
  H48      1.0000 0.28840  0.93090  0.13580  Biso   1.000  H
  C73      1.0000 0.22171  0.44340  0.04410  Biso   1.000  C
  C74      1.0000 0.77831  0.22171  0.54410  Biso   1.000  C
  C75      1.0000 0.55660  0.77831  0.04410  Biso   1.000  C
  C76      1.0000 0.77829  0.55660  0.54410  Biso   1.000  C
  C77      1.0000 0.22169  0.77829  0.04410  Biso   1.000  C
  C78      1.0000 0.44340  0.22169  0.54410  Biso   1.000  C
  C79      1.0000 0.55660  0.77829  0.45590  Biso   1.000  C
  C80      1.0000 0.77831  0.55660  0.95590  Biso   1.000  C
  C81      1.0000 0.22171  0.77831  0.45590  Biso   1.000  C
  C82      1.0000 0.44340  0.22171  0.95590  Biso   1.000  C
  C83      1.0000 0.22169  0.44340  0.45590  Biso   1.000  C
  C84      1.0000 0.77829  0.22169  0.95590  Biso   1.000  C
  H49      1.0000 0.23740  0.47490  0.00980  Biso   1.000  H
  H50      1.0000 0.76250  0.23740  0.50980  Biso   1.000  H
  H51      1.0000 0.52510  0.76250  0.00980  Biso   1.000  H
  H52      1.0000 0.76260  0.52510  0.50980  Biso   1.000  H
  H53      1.0000 0.23750  0.76260  0.00980  Biso   1.000  H
  H54      1.0000 0.47490  0.23750  0.50980  Biso   1.000  H
  H55      1.0000 0.52510  0.76260  0.49020  Biso   1.000  H
  H56      1.0000 0.76250  0.52510  0.99020  Biso   1.000  H
  H57      1.0000 0.23740  0.76250  0.49020  Biso   1.000  H
  H58      1.0000 0.47490  0.23740  0.99020  Biso   1.000  H
  H59      1.0000 0.23750  0.47490  0.49020  Biso   1.000  H
  H60      1.0000 0.76260  0.23750  0.99020  Biso   1.000  H
  C85      1.0000 0.17347  0.34690  0.14400  Biso   1.000  C
  C86      1.0000 0.82657  0.17347  0.64400  Biso   1.000  C
  C87      1.0000 0.65310  0.82657  0.14400  Biso   1.000  C
  C88      1.0000 0.82653  0.65310  0.64400  Biso   1.000  C
  C89      1.0000 0.17343  0.82653  0.14400  Biso   1.000  C
  C90      1.0000 0.34690  0.17343  0.64400  Biso   1.000  C
  C91      1.0000 0.65310  0.82653  0.35600  Biso   1.000  C
  C92      1.0000 0.82657  0.65310  0.85600  Biso   1.000  C
  C93      1.0000 0.17347  0.82657  0.35600  Biso   1.000  C
  C94      1.0000 0.34690  0.17347  0.85600  Biso   1.000  C
  C95      1.0000 0.17343  0.34690  0.35600  Biso   1.000  C
  C96      1.0000 0.82653  0.17343  0.85600  Biso   1.000  C
  C97      1.0000 0.16890  0.33780  0.25000  Biso   1.000  C
  C98      1.0000 0.83110  0.16890  0.75000  Biso   1.000  C
  C99      1.0000 0.66220  0.83110  0.25000  Biso   1.000  C
  C100     1.0000 0.83110  0.66220  0.75000  Biso   1.000  C
  C101     1.0000 0.16890  0.83110  0.25000  Biso   1.000  C
  C102     1.0000 0.33780  0.16890  0.75000  Biso   1.000  C
  H61      1.0000 0.19860  0.39710  0.25000  Biso   1.000  H
  H62      1.0000 0.80150  0.19860  0.75000  Biso   1.000  H
  H63      1.0000 0.60290  0.80150  0.25000  Biso   1.000  H
  H64      1.0000 0.80140  0.60290  0.75000  Biso   1.000  H
  H65      1.0000 0.19850  0.80140  0.25000  Biso   1.000  H
  H66      1.0000 0.39710  0.19850  0.75000  Biso   1.000  H
  C103     1.0000 0.14879  0.29760  0.19900  Biso   1.000  C
  C104     1.0000 0.85119  0.14879  0.69900  Biso   1.000  C
  C105     1.0000 0.70240  0.85119  0.19900  Biso   1.000  C
  C106     1.0000 0.85121  0.70240  0.69900  Biso   1.000  C
  C107     1.0000 0.14881  0.85121  0.19900  Biso   1.000  C
  C108     1.0000 0.29760  0.14881  0.69900  Biso   1.000  C
  C109     1.0000 0.70240  0.85121  0.30100  Biso   1.000  C
  C110     1.0000 0.85119  0.70240  0.80100  Biso   1.000  C
  C111     1.0000 0.14879  0.85119  0.30100  Biso   1.000  C
  C112     1.0000 0.29760  0.14879  0.80100  Biso   1.000  C
  C113     1.0000 0.14881  0.29760  0.30100  Biso   1.000  C
  C114     1.0000 0.85121  0.14881  0.80100  Biso   1.000  C
  C115     1.0000 0.10650  0.21290  0.19950  Biso   1.000  C
  C116     1.0000 0.89360  0.10650  0.69950  Biso   1.000  C
  C117     1.0000 0.78710  0.89360  0.19950  Biso   1.000  C
  C118     1.0000 0.89350  0.78710  0.69950  Biso   1.000  C
  C119     1.0000 0.10640  0.89350  0.19950  Biso   1.000  C
  C120     1.0000 0.21290  0.10640  0.69950  Biso   1.000  C
  C121     1.0000 0.78710  0.89350  0.30050  Biso   1.000  C
  C122     1.0000 0.89360  0.78710  0.80050  Biso   1.000  C
  C123     1.0000 0.10650  0.89360  0.30050  Biso   1.000  C
  C124     1.0000 0.21290  0.10650  0.80050  Biso   1.000  C
  C125     1.0000 0.10640  0.21290  0.30050  Biso   1.000  C
  C126     1.0000 0.89350  0.10640  0.80050  Biso   1.000  C
  C127     1.0000 0.08530  0.17060  0.14280  Biso   1.000  C
  C128     1.0000 0.91470  0.08530  0.64280  Biso   1.000  C
  C129     1.0000 0.82940  0.91470  0.14280  Biso   1.000  C
  C130     1.0000 0.91470  0.82940  0.64280  Biso   1.000  C
  C131     1.0000 0.08530  0.91470  0.14280  Biso   1.000  C
  C132     1.0000 0.17060  0.08530  0.64280  Biso   1.000  C
  C133     1.0000 0.82940  0.91470  0.35720  Biso   1.000  C
  C134     1.0000 0.91470  0.82940  0.85720  Biso   1.000  C
  C135     1.0000 0.08530  0.91470  0.35720  Biso   1.000  C
  C136     1.0000 0.17060  0.08530  0.85720  Biso   1.000  C
  C137     1.0000 0.08530  0.17060  0.35720  Biso   1.000  C
  C138     1.0000 0.91470  0.08530  0.85720  Biso   1.000  C
  H67      1.0000 0.05570  0.11120  0.14920  Biso   1.000  H
  H68      1.0000 0.94450  0.05570  0.64920  Biso   1.000  H
  H69      1.0000 0.88880  0.94450  0.14920  Biso   1.000  H
  H70      1.0000 0.94430  0.88880  0.64920  Biso   1.000  H
  H71      1.0000 0.05550  0.94430  0.14920  Biso   1.000  H
  H72      1.0000 0.11120  0.05550  0.64920  Biso   1.000  H
  H73      1.0000 0.88880  0.94430  0.35080  Biso   1.000  H
  H74      1.0000 0.94450  0.88880  0.85080  Biso   1.000  H
  H75      1.0000 0.05570  0.94450  0.35080  Biso   1.000  H
  H76      1.0000 0.11120  0.05570  0.85080  Biso   1.000  H
  H77      1.0000 0.05550  0.11120  0.35080  Biso   1.000  H
  H78      1.0000 0.94430  0.05550  0.85080  Biso   1.000  H
  H79      1.0000 0.05050  0.18200  0.12160  Biso   1.000  H
  H80      1.0000 0.86850  0.05050  0.62160  Biso   1.000  H
  H81      1.0000 0.81800  0.86850  0.12160  Biso   1.000  H
  H82      1.0000 0.94950  0.81800  0.62160  Biso   1.000  H
  H83      1.0000 0.13150  0.94950  0.12160  Biso   1.000  H
  H84      1.0000 0.18200  0.13150  0.62160  Biso   1.000  H
  H85      1.0000 0.81800  0.94950  0.37840  Biso   1.000  H
  H86      1.0000 0.86850  0.81800  0.87840  Biso   1.000  H
  H87      1.0000 0.05050  0.86850  0.37840  Biso   1.000  H
  H88      1.0000 0.18200  0.05050  0.87840  Biso   1.000  H
  H89      1.0000 0.13150  0.18200  0.37840  Biso   1.000  H
  H90      1.0000 0.94950  0.13150  0.87840  Biso   1.000  H
  H91      1.0000 0.94950  0.81800  0.87840  Biso   1.000  H
  H92      1.0000 0.13150  0.94950  0.37840  Biso   1.000  H
  H93      1.0000 0.18200  0.13150  0.87840  Biso   1.000  H
  H94      1.0000 0.05050  0.18200  0.37840  Biso   1.000  H
  H95      1.0000 0.86850  0.05050  0.87840  Biso   1.000  H
  H96      1.0000 0.81800  0.86850  0.37840  Biso   1.000  H
  H97      1.0000 0.18200  0.05050  0.62160  Biso   1.000  H
  H98      1.0000 0.13150  0.18200  0.12160  Biso   1.000  H
  H99      1.0000 0.94950  0.13150  0.62160  Biso   1.000  H
  H100     1.0000 0.81800  0.94950  0.12160  Biso   1.000  H
  H101     1.0000 0.86850  0.81800  0.62160  Biso   1.000  H
  H102     1.0000 0.05050  0.86850  0.12160  Biso   1.000  H
  C139     1.0000 0.08600  0.17210  0.25000  Biso   1.000  C
  C140     1.0000 0.91390  0.08600  0.75000  Biso   1.000  C
  C141     1.0000 0.82790  0.91390  0.25000  Biso   1.000  C
  C142     1.0000 0.91400  0.82790  0.75000  Biso   1.000  C
  C143     1.0000 0.08610  0.91400  0.25000  Biso   1.000  C
  C144     1.0000 0.17210  0.08610  0.75000  Biso   1.000  C
  H103     1.0000 0.05640  0.11280  0.25000  Biso   1.000  H
  H104     1.0000 0.94360  0.05640  0.75000  Biso   1.000  H
  H105     1.0000 0.88720  0.94360  0.25000  Biso   1.000  H
  H106     1.0000 0.94360  0.88720  0.75000  Biso   1.000  H
  H107     1.0000 0.05640  0.94360  0.25000  Biso   1.000  H
  H108     1.0000 0.11280  0.05640  0.75000  Biso   1.000  H
  H109     1.0000 0.09270  0.18530  0.16320  Biso   1.000  H
  H110     1.0000 0.90740  0.09270  0.66320  Biso   1.000  H
  H111     1.0000 0.81470  0.90740  0.16320  Biso   1.000  H
  H112     1.0000 0.90730  0.81470  0.66320  Biso   1.000  H
  H113     1.0000 0.09260  0.90730  0.16320  Biso   1.000  H
  H114     1.0000 0.18530  0.09260  0.66320  Biso   1.000  H
  H115     1.0000 0.81470  0.90730  0.33680  Biso   1.000  H
  H116     1.0000 0.90740  0.81470  0.83680  Biso   1.000  H
  H117     1.0000 0.09270  0.90740  0.33680  Biso   1.000  H
  H118     1.0000 0.18530  0.09270  0.83680  Biso   1.000  H
  H119     1.0000 0.09260  0.18530  0.33680  Biso   1.000  H
  H120     1.0000 0.90730  0.09260  0.83680  Biso   1.000  H
