data_image0
_cell_length_a       12.008
_cell_length_b       13.034
_cell_length_c       16.872
_cell_angle_alpha    90
_cell_angle_beta     108.57
_cell_angle_gamma    90

_symmetry_space_group_name_H-M    "P 1"
_symmetry_int_tables_number       1

loop_
  _symmetry_equiv_pos_as_xyz
  'x, y, z'

loop_
  _atom_site_label
  _atom_site_occupancy
  _atom_site_fract_x
  _atom_site_fract_y
  _atom_site_fract_z
  _atom_site_thermal_displace_type
  _atom_site_B_iso_or_equiv
  _atom_site_type_symbol
  Cu1      1.0000 0.79156  0.26518  0.11127  Biso   1.000  Cu
  Cu2      1.0000 0.70844  0.76518  0.38873  Biso   1.000  Cu
  Cu3      1.0000 0.20844  0.73482  0.88873  Biso   1.000  Cu
  Cu4      1.0000 0.29156  0.23482  0.61127  Biso   1.000  Cu
  N1       1.0000 0.76670  0.23990  0.98700  Biso   1.000  N
  N2       1.0000 0.73330  0.73990  0.51300  Biso   1.000  N
  N3       1.0000 0.23330  0.76010  0.01300  Biso   1.000  N
  N4       1.0000 0.26670  0.26010  0.48700  Biso   1.000  N
  N5       1.0000 0.75000  0.11620  0.10275  Biso   1.000  N
  N6       1.0000 0.75000  0.61620  0.39725  Biso   1.000  N
  N7       1.0000 0.25000  0.88380  0.89725  Biso   1.000  N
  N8       1.0000 0.25000  0.38380  0.60275  Biso   1.000  N
  N9       1.0000 0.73020  0.04220  0.15488  Biso   1.000  N
  N10      1.0000 0.76980  0.54220  0.34512  Biso   1.000  N
  N11      1.0000 0.26980  0.95780  0.84512  Biso   1.000  N
  N12      1.0000 0.23020  0.45780  0.65488  Biso   1.000  N
  N13      1.0000 0.68660  0.97940  0.02690  Biso   1.000  N
  N14      1.0000 0.81340  0.47940  0.47310  Biso   1.000  N
  N15      1.0000 0.31340  0.02060  0.97310  Biso   1.000  N
  N16      1.0000 0.18660  0.52060  0.52690  Biso   1.000  N
  N17      1.0000 0.66290  0.77090  0.26310  Biso   1.000  N
  N18      1.0000 0.83710  0.27090  0.23690  Biso   1.000  N
  N19      1.0000 0.33710  0.22910  0.73690  Biso   1.000  N
  N20      1.0000 0.16290  0.72910  0.76310  Biso   1.000  N
  N21      1.0000 0.54660  0.92930  0.90130  Biso   1.000  N
  N22      1.0000 0.95340  0.42930  0.59870  Biso   1.000  N
  N23      1.0000 0.45340  0.07070  0.09870  Biso   1.000  N
  N24      1.0000 0.04660  0.57070  0.40130  Biso   1.000  N
  N25      1.0000 0.61830  0.33630  0.08650  Biso   1.000  N
  N26      1.0000 0.88170  0.83630  0.41350  Biso   1.000  N
  N27      1.0000 0.38170  0.66370  0.91350  Biso   1.000  N
  N28      1.0000 0.11830  0.16370  0.58650  Biso   1.000  N
  N29      1.0000 0.44930  0.44300  0.08160  Biso   1.000  N
  N30      1.0000 0.05070  0.94300  0.41840  Biso   1.000  N
  N31      1.0000 0.55070  0.55700  0.91840  Biso   1.000  N
  N32      1.0000 0.94930  0.05700  0.58160  Biso   1.000  N
  N33      1.0000 0.38550  0.48360  0.20190  Biso   1.000  N
  N34      1.0000 0.11450  0.98360  0.29810  Biso   1.000  N
  N35      1.0000 0.61450  0.51640  0.79810  Biso   1.000  N
  N36      1.0000 0.88550  0.01640  0.70190  Biso   1.000  N
  O1       1.0000 0.87710  0.39380  0.11159  Biso   1.000  O
  O2       1.0000 0.62290  0.89380  0.38841  Biso   1.000  O
  O3       1.0000 0.12290  0.60620  0.88841  Biso   1.000  O
  O4       1.0000 0.37710  0.10620  0.61159  Biso   1.000  O
  O5       1.0000 0.03130  0.29320  0.13460  Biso   1.000  O
  O6       1.0000 0.46870  0.79320  0.36540  Biso   1.000  O
  O7       1.0000 0.96870  0.70680  0.86540  Biso   1.000  O
  O8       1.0000 0.53130  0.20680  0.63460  Biso   1.000  O
  C1       1.0000 0.77770  0.31000  0.93210  Biso   1.000  C
  C2       1.0000 0.72230  0.81000  0.56790  Biso   1.000  C
  C3       1.0000 0.22230  0.69000  0.06790  Biso   1.000  C
  C4       1.0000 0.27770  0.19000  0.43210  Biso   1.000  C
  H1       1.0000 0.79420  0.37750  0.95000  Biso   1.000  H
  H2       1.0000 0.70580  0.87750  0.55000  Biso   1.000  H
  H3       1.0000 0.20580  0.62250  0.05000  Biso   1.000  H
  H4       1.0000 0.29420  0.12250  0.45000  Biso   1.000  H
  C5       1.0000 0.76530  0.28630  0.85000  Biso   1.000  C
  C6       1.0000 0.73470  0.78630  0.65000  Biso   1.000  C
  C7       1.0000 0.23470  0.71370  0.15000  Biso   1.000  C
  C8       1.0000 0.26530  0.21370  0.35000  Biso   1.000  C
  H5       1.0000 0.77230  0.33680  0.81300  Biso   1.000  H
  H6       1.0000 0.72770  0.83680  0.68700  Biso   1.000  H
  H7       1.0000 0.22770  0.66320  0.18700  Biso   1.000  H
  H8       1.0000 0.27230  0.16320  0.31300  Biso   1.000  H
  C9       1.0000 0.74250  0.18680  0.82420  Biso   1.000  C
  C10      1.0000 0.75750  0.68680  0.67580  Biso   1.000  C
  C11      1.0000 0.25750  0.81320  0.17580  Biso   1.000  C
  C12      1.0000 0.24250  0.31320  0.32420  Biso   1.000  C
  H9       1.0000 0.73700  0.16850  0.76980  Biso   1.000  H
  H10      1.0000 0.76300  0.66850  0.73020  Biso   1.000  H
  H11      1.0000 0.26300  0.83150  0.23020  Biso   1.000  H
  H12      1.0000 0.23700  0.33150  0.26980  Biso   1.000  H
  C13      1.0000 0.72770  0.11310  0.87950  Biso   1.000  C
  C14      1.0000 0.77230  0.61310  0.62050  Biso   1.000  C
  C15      1.0000 0.27230  0.88690  0.12050  Biso   1.000  C
  C16      1.0000 0.22770  0.38690  0.37950  Biso   1.000  C
  H13      1.0000 0.71030  0.04550  0.86230  Biso   1.000  H
  H14      1.0000 0.78970  0.54550  0.63770  Biso   1.000  H
  H15      1.0000 0.28970  0.95450  0.13770  Biso   1.000  H
  H16      1.0000 0.21030  0.45450  0.36230  Biso   1.000  H
  C17      1.0000 0.73910  0.14180  0.95960  Biso   1.000  C
  C18      1.0000 0.76090  0.64180  0.54040  Biso   1.000  C
  C19      1.0000 0.26090  0.85820  0.04040  Biso   1.000  C
  C20      1.0000 0.23910  0.35820  0.45960  Biso   1.000  C
  C21      1.0000 0.72490  0.07800  0.02650  Biso   1.000  C
  C22      1.0000 0.77510  0.57800  0.47350  Biso   1.000  C
  C23      1.0000 0.27510  0.92200  0.97350  Biso   1.000  C
  C24      1.0000 0.22490  0.42200  0.52650  Biso   1.000  C
  C25      1.0000 0.69090  0.96080  0.10780  Biso   1.000  C
  C26      1.0000 0.80910  0.46080  0.39220  Biso   1.000  C
  C27      1.0000 0.30910  0.03920  0.89220  Biso   1.000  C
  C28      1.0000 0.19090  0.53920  0.60780  Biso   1.000  C
  C29      1.0000 0.65410  0.86670  0.14020  Biso   1.000  C
  C30      1.0000 0.84590  0.36670  0.35980  Biso   1.000  C
  C31      1.0000 0.34590  0.13330  0.85980  Biso   1.000  C
  C32      1.0000 0.15410  0.63330  0.64020  Biso   1.000  C
  C33      1.0000 0.57690  0.79460  0.09080  Biso   1.000  C
  C34      1.0000 0.92310  0.29460  0.40920  Biso   1.000  C
  C35      1.0000 0.42310  0.20540  0.90920  Biso   1.000  C
  C36      1.0000 0.07690  0.70540  0.59080  Biso   1.000  C
  H17      1.0000 0.54620  0.80340  0.03320  Biso   1.000  H
  H18      1.0000 0.95380  0.30340  0.46680  Biso   1.000  H
  H19      1.0000 0.45380  0.19660  0.96680  Biso   1.000  H
  H20      1.0000 0.04620  0.69660  0.53320  Biso   1.000  H
  C37      1.0000 0.54690  0.70990  0.12880  Biso   1.000  C
  C38      1.0000 0.95310  0.20990  0.37120  Biso   1.000  C
  C39      1.0000 0.45310  0.29010  0.87120  Biso   1.000  C
  C40      1.0000 0.04690  0.79010  0.62880  Biso   1.000  C
  H21      1.0000 0.49710  0.65990  0.09700  Biso   1.000  H
  H22      1.0000 0.00290  0.15990  0.40300  Biso   1.000  H
  H23      1.0000 0.50290  0.34010  0.90300  Biso   1.000  H
  H24      1.0000 0.99710  0.84010  0.59700  Biso   1.000  H
  C41      1.0000 0.59160  0.70020  0.21470  Biso   1.000  C
  C42      1.0000 0.90840  0.20020  0.28530  Biso   1.000  C
  C43      1.0000 0.40840  0.29980  0.78530  Biso   1.000  C
  C44      1.0000 0.09160  0.79980  0.71470  Biso   1.000  C
  H25      1.0000 0.57170  0.64270  0.23990  Biso   1.000  H
  H26      1.0000 0.92830  0.14270  0.26010  Biso   1.000  H
  H27      1.0000 0.42830  0.35730  0.76010  Biso   1.000  H
  H28      1.0000 0.07170  0.85730  0.73990  Biso   1.000  H
  C45      1.0000 0.69290  0.85240  0.22600  Biso   1.000  C
  C46      1.0000 0.80710  0.35240  0.27400  Biso   1.000  C
  C47      1.0000 0.30710  0.14760  0.77400  Biso   1.000  C
  C48      1.0000 0.19290  0.64760  0.72600  Biso   1.000  C
  H29      1.0000 0.74190  0.90170  0.25930  Biso   1.000  H
  H30      1.0000 0.75810  0.40170  0.24070  Biso   1.000  H
  H31      1.0000 0.25810  0.09830  0.74070  Biso   1.000  H
  H32      1.0000 0.24190  0.59830  0.75930  Biso   1.000  H
  C49      1.0000 0.65280  0.91150  0.95470  Biso   1.000  C
  C50      1.0000 0.84720  0.41150  0.54530  Biso   1.000  C
  C51      1.0000 0.34720  0.08850  0.04530  Biso   1.000  C
  C52      1.0000 0.15280  0.58850  0.45470  Biso   1.000  C
  C53      1.0000 0.73020  0.83840  0.94600  Biso   1.000  C
  C54      1.0000 0.76980  0.33840  0.55400  Biso   1.000  C
  C55      1.0000 0.26980  0.16160  0.05400  Biso   1.000  C
  C56      1.0000 0.23020  0.66160  0.44600  Biso   1.000  C
  H33      1.0000 0.80360  0.82990  0.98600  Biso   1.000  H
  H34      1.0000 0.69640  0.32990  0.51400  Biso   1.000  H
  H35      1.0000 0.19640  0.17010  0.01400  Biso   1.000  H
  H36      1.0000 0.30360  0.67010  0.48600  Biso   1.000  H
  C57      1.0000 0.69410  0.77840  0.87540  Biso   1.000  C
  C58      1.0000 0.80590  0.27840  0.62460  Biso   1.000  C
  C59      1.0000 0.30590  0.22160  0.12460  Biso   1.000  C
  C60      1.0000 0.19410  0.72160  0.37540  Biso   1.000  C
  H37      1.0000 0.74270  0.72690  0.86690  Biso   1.000  H
  H38      1.0000 0.75730  0.22690  0.63310  Biso   1.000  H
  H39      1.0000 0.25730  0.27310  0.13310  Biso   1.000  H
  H40      1.0000 0.24270  0.77310  0.36690  Biso   1.000  H
  C61      1.0000 0.58540  0.79510  0.81730  Biso   1.000  C
  C62      1.0000 0.91460  0.29510  0.68270  Biso   1.000  C
  C63      1.0000 0.41460  0.20490  0.18270  Biso   1.000  C
  C64      1.0000 0.08540  0.70490  0.31730  Biso   1.000  C
  H41      1.0000 0.56030  0.75620  0.76860  Biso   1.000  H
  H42      1.0000 0.93970  0.25620  0.73140  Biso   1.000  H
  H43      1.0000 0.43970  0.24380  0.23140  Biso   1.000  H
  H44      1.0000 0.06030  0.74380  0.26860  Biso   1.000  H
  C65      1.0000 0.51480  0.87030  0.83270  Biso   1.000  C
  C66      1.0000 0.98520  0.37030  0.66730  Biso   1.000  C
  C67      1.0000 0.48520  0.12970  0.16730  Biso   1.000  C
  C68      1.0000 0.01480  0.62970  0.33270  Biso   1.000  C
  H45      1.0000 0.44110  0.88070  0.79350  Biso   1.000  H
  H46      1.0000 0.05890  0.38070  0.70650  Biso   1.000  H
  H47      1.0000 0.55890  0.11930  0.20650  Biso   1.000  H
  H48      1.0000 0.94110  0.61930  0.29350  Biso   1.000  H
  C69      1.0000 0.54130  0.38590  0.08820  Biso   1.000  C
  C70      1.0000 0.95870  0.88590  0.41180  Biso   1.000  C
  C71      1.0000 0.45870  0.61410  0.91180  Biso   1.000  C
  C72      1.0000 0.04130  0.11410  0.58820  Biso   1.000  C
  C73      1.0000 0.42100  0.46230  0.14760  Biso   1.000  C
  C74      1.0000 0.07900  0.96230  0.35240  Biso   1.000  C
  C75      1.0000 0.57900  0.53770  0.85240  Biso   1.000  C
  C76      1.0000 0.92100  0.03770  0.64760  Biso   1.000  C
  C77      1.0000 0.98560  0.37870  0.12450  Biso   1.000  C
  C78      1.0000 0.51440  0.87870  0.37550  Biso   1.000  C
  C79      1.0000 0.01440  0.62130  0.87550  Biso   1.000  C
  C80      1.0000 0.48560  0.12130  0.62450  Biso   1.000  C
  C81      1.0000 0.06130  0.47400  0.12910  Biso   1.000  C
  C82      1.0000 0.43870  0.97400  0.37090  Biso   1.000  C
  C83      1.0000 0.93870  0.52600  0.87090  Biso   1.000  C
  C84      1.0000 0.56130  0.02600  0.62910  Biso   1.000  C
  H49      1.0000 0.13940  0.46100  0.16570  Biso   1.000  H
  H50      1.0000 0.36060  0.96100  0.33430  Biso   1.000  H
  H51      1.0000 0.86060  0.53900  0.83430  Biso   1.000  H
  H52      1.0000 0.63940  0.03900  0.66570  Biso   1.000  H
  H53      1.0000 0.02810  0.53060  0.15030  Biso   1.000  H
  H54      1.0000 0.47190  0.03060  0.34970  Biso   1.000  H
  H55      1.0000 0.97190  0.46940  0.84970  Biso   1.000  H
  H56      1.0000 0.52810  0.96940  0.65030  Biso   1.000  H
  H57      1.0000 0.06390  0.49040  0.07430  Biso   1.000  H
  H58      1.0000 0.43610  0.99040  0.42570  Biso   1.000  H
  H59      1.0000 0.93610  0.50960  0.92570  Biso   1.000  H
  H60      1.0000 0.56390  0.00960  0.57430  Biso   1.000  H
  O9       1.0000 0.78030  0.58980  0.06140  Biso   1.000  O
  O10      1.0000 0.71970  0.08980  0.43860  Biso   1.000  O
  O11      1.0000 0.21970  0.41020  0.93860  Biso   1.000  O
  O12      1.0000 0.28030  0.91020  0.56140  Biso   1.000  O
  H61      1.0000 0.76260  0.59190  0.10700  Biso   1.000  H
  H62      1.0000 0.73740  0.09190  0.39300  Biso   1.000  H
  H63      1.0000 0.23740  0.40810  0.89300  Biso   1.000  H
  H64      1.0000 0.26260  0.90810  0.60700  Biso   1.000  H
  H65      1.0000 0.82690  0.54240  0.05760  Biso   1.000  H
  H66      1.0000 0.67310  0.04240  0.44240  Biso   1.000  H
  H67      1.0000 0.17310  0.45760  0.94240  Biso   1.000  H
  H68      1.0000 0.32690  0.95760  0.55760  Biso   1.000  H
  O13      1.0000 0.42220  0.58270  0.35340  Biso   1.000  O
  O14      1.0000 0.07780  0.08270  0.14660  Biso   1.000  O
  O15      1.0000 0.57780  0.41730  0.64660  Biso   1.000  O
  O16      1.0000 0.92220  0.91730  0.85340  Biso   1.000  O
