data_image0
_cell_length_a       8.3033
_cell_length_b       13.728
_cell_length_c       18.252
_cell_angle_alpha    68.282
_cell_angle_beta     84.708
_cell_angle_gamma    82.05

_symmetry_space_group_name_H-M    "P 1"
_symmetry_int_tables_number       1

loop_
  _symmetry_equiv_pos_as_xyz
  'x, y, z'

loop_
  _atom_site_label
  _atom_site_occupancy
  _atom_site_fract_x
  _atom_site_fract_y
  _atom_site_fract_z
  _atom_site_thermal_displace_type
  _atom_site_B_iso_or_equiv
  _atom_site_type_symbol
  Cu1      1.0000 0.83922  0.08554  0.29493  Biso   1.000  Cu
  Cu2      1.0000 0.16078  0.91446  0.70507  Biso   1.000  Cu
  Cu3      1.0000 0.28400  0.41343  0.20550  Biso   1.000  Cu
  Cu4      1.0000 0.71600  0.58657  0.79450  Biso   1.000  Cu
  Cl1      1.0000 0.48068  0.73205  0.00230  Biso   1.000  Cl
  Cl2      1.0000 0.51932  0.26795  0.99770  Biso   1.000  Cl
  Cl3      1.0000 0.08934  0.76515  0.49657  Biso   1.000  Cl
  Cl4      1.0000 0.91066  0.23485  0.50343  Biso   1.000  Cl
  N1       1.0000 0.72760  0.97250  0.37853  Biso   1.000  N
  N2       1.0000 0.27240  0.02750  0.62147  Biso   1.000  N
  O1       1.0000 0.94270  0.19475  0.21014  Biso   1.000  O
  O2       1.0000 0.05730  0.80525  0.78986  Biso   1.000  O
  O3       1.0000 0.40080  0.30436  0.29154  Biso   1.000  O
  O4       1.0000 0.59920  0.69564  0.70846  Biso   1.000  O
  N3       1.0000 0.15830  0.52640  0.12058  Biso   1.000  N
  N4       1.0000 0.84170  0.47360  0.87942  Biso   1.000  N
  O5       1.0000 0.59320  0.79258  0.01670  Biso   1.000  O
  O6       1.0000 0.40680  0.20742  0.98330  Biso   1.000  O
  O7       1.0000 0.23560  0.70539  0.48138  Biso   1.000  O
  O8       1.0000 0.76440  0.29461  0.51862  Biso   1.000  O
  O9       1.0000 0.13780  0.30016  0.18393  Biso   1.000  O
  O10      1.0000 0.86220  0.69984  0.81607  Biso   1.000  O
  O11      1.0000 0.33150  0.73980  0.04653  Biso   1.000  O
  O12      1.0000 0.66850  0.26020  0.95347  Biso   1.000  O
  N5       1.0000 0.75730  0.02119  0.22637  Biso   1.000  N
  N6       1.0000 0.24270  0.97881  0.77363  Biso   1.000  N
  O13      1.0000 0.63320  0.19897  0.31893  Biso   1.000  O
  O14      1.0000 0.36680  0.80103  0.68107  Biso   1.000  O
  O15      1.0000 0.04420  0.72632  0.57958  Biso   1.000  O
  O16      1.0000 0.95580  0.27368  0.42042  Biso   1.000  O
  N7       1.0000 0.13930  0.47808  0.27281  Biso   1.000  N
  N8       1.0000 0.86070  0.52192  0.72719  Biso   1.000  N
  O17      1.0000 0.11790  0.87481  0.47439  Biso   1.000  O
  O18      1.0000 0.88210  0.12519  0.52561  Biso   1.000  O
  O19      1.0000 0.96140  0.75842  0.45195  Biso   1.000  O
  O20      1.0000 0.03860  0.24158  0.54805  Biso   1.000  O
  N9       1.0000 0.00930  0.09720  0.36061  Biso   1.000  N
  N10      1.0000 0.99070  0.90280  0.63939  Biso   1.000  N
  H1       1.0000 0.96540  0.13300  0.39150  Biso   1.000  H
  H2       1.0000 0.03460  0.86700  0.60850  Biso   1.000  H
  H3       1.0000 0.05060  0.03240  0.39190  Biso   1.000  H
  H4       1.0000 0.94940  0.96760  0.60810  Biso   1.000  H
  O21      1.0000 0.45290  0.76916  0.91927  Biso   1.000  O
  O22      1.0000 0.54710  0.23084  0.08073  Biso   1.000  O
  N11      1.0000 0.49000  0.40416  0.14215  Biso   1.000  N
  N12      1.0000 0.51000  0.59584  0.85785  Biso   1.000  N
  H5       1.0000 0.47840  0.36920  0.11020  Biso   1.000  H
  H6       1.0000 0.52160  0.63080  0.88980  Biso   1.000  H
  H7       1.0000 0.51430  0.46940  0.11200  Biso   1.000  H
  H8       1.0000 0.48570  0.53060  0.88800  Biso   1.000  H
  O23      1.0000 0.55070  0.62236  0.02569  Biso   1.000  O
  O24      1.0000 0.44930  0.37764  0.97431  Biso   1.000  O
  C1       1.0000 0.71950  0.42450  0.21247  Biso   1.000  C
  C2       1.0000 0.28050  0.57550  0.78753  Biso   1.000  C
  H9       1.0000 0.81540  0.38540  0.24060  Biso   1.000  H
  H10      1.0000 0.18460  0.61460  0.75940  Biso   1.000  H
  H11      1.0000 0.75610  0.47380  0.16210  Biso   1.000  H
  H12      1.0000 0.24390  0.52620  0.83790  Biso   1.000  H
  C3       1.0000 0.28220  0.07630  0.29444  Biso   1.000  C
  C4       1.0000 0.71780  0.92370  0.70556  Biso   1.000  C
  H13      1.0000 0.37370  0.11530  0.26920  Biso   1.000  H
  H14      1.0000 0.62630  0.88470  0.73080  Biso   1.000  H
  H15      1.0000 0.31550  0.02580  0.34550  Biso   1.000  H
  H16      1.0000 0.68450  0.97420  0.65450  Biso   1.000  H
  C5       1.0000 0.24200  0.01600  0.24412  Biso   1.000  C
  C6       1.0000 0.75800  0.98400  0.75588  Biso   1.000  C
  C7       1.0000 0.17180  0.54050  0.04402  Biso   1.000  C
  C8       1.0000 0.82820  0.45950  0.95598  Biso   1.000  C
  H17      1.0000 0.24910  0.49640  0.02720  Biso   1.000  H
  H18      1.0000 0.75090  0.50360  0.97280  Biso   1.000  H
  C9       1.0000 0.70990  0.95930  0.45474  Biso   1.000  C
  C10      1.0000 0.29010  0.04070  0.54526  Biso   1.000  C
  H19      1.0000 0.75740  0.00360  0.47250  Biso   1.000  H
  H20      1.0000 0.24260  0.99640  0.52750  Biso   1.000  H
  C11      1.0000 0.62540  0.48710  0.25958  Biso   1.000  C
  C12      1.0000 0.37460  0.51290  0.74042  Biso   1.000  C
  C13      1.0000 0.14060  0.15350  0.30728  Biso   1.000  C
  C14      1.0000 0.85940  0.84650  0.69272  Biso   1.000  C
  H21      1.0000 0.18170  0.19820  0.33090  Biso   1.000  H
  H22      1.0000 0.81830  0.80180  0.66910  Biso   1.000  H
  C15      1.0000 0.54870  0.27650  0.27482  Biso   1.000  C
  C16      1.0000 0.45130  0.72350  0.72518  Biso   1.000  C
  C17      1.0000 0.06970  0.22330  0.22834  Biso   1.000  C
  C18      1.0000 0.93030  0.77670  0.77166  Biso   1.000  C
  C19      1.0000 0.62340  0.34730  0.19715  Biso   1.000  C
  C20      1.0000 0.37660  0.65270  0.80285  Biso   1.000  C
  H23      1.0000 0.69740  0.30340  0.17380  Biso   1.000  H
  H24      1.0000 0.30260  0.69660  0.82620  Biso   1.000  H
  C21      1.0000 0.65820  0.90880  0.35165  Biso   1.000  C
  C22      1.0000 0.34180  0.09120  0.64835  Biso   1.000  C
  C23      1.0000 0.62810  0.45000  0.34100  Biso   1.000  C
  C24      1.0000 0.37190  0.55000  0.65900  Biso   1.000  C
  H25      1.0000 0.69080  0.38690  0.36720  Biso   1.000  H
  H26      1.0000 0.30920  0.61310  0.63280  Biso   1.000  H
  C25      1.0000 0.65500  0.90790  0.14540  Biso   1.000  C
  C26      1.0000 0.34500  0.09210  0.85460  Biso   1.000  C
  H27      1.0000 0.61920  0.87060  0.11780  Biso   1.000  H
  H28      1.0000 0.38080  0.12940  0.88220  Biso   1.000  H
  C27      1.0000 0.27010  0.05550  0.16320  Biso   1.000  C
  C28      1.0000 0.72990  0.94450  0.83680  Biso   1.000  C
  H29      1.0000 0.31360  0.11940  0.13950  Biso   1.000  H
  H30      1.0000 0.68640  0.88060  0.86050  Biso   1.000  H
  C29      1.0000 0.95580  0.59540  0.35080  Biso   1.000  C
  C30      1.0000 0.04420  0.40460  0.64920  Biso   1.000  C
  H31      1.0000 0.89380  0.63510  0.37720  Biso   1.000  H
  H32      1.0000 0.10620  0.36490  0.62280  Biso   1.000  H
  C31      1.0000 0.55280  0.81630  0.48200  Biso   1.000  C
  C32      1.0000 0.44720  0.18370  0.51800  Biso   1.000  C
  H33      1.0000 0.49470  0.76350  0.51700  Biso   1.000  H
  H34      1.0000 0.50530  0.23650  0.48300  Biso   1.000  H
  C33      1.0000 0.96030  0.68370  0.01390  Biso   1.000  C
  C34      1.0000 0.03970  0.31630  0.98610  Biso   1.000  C
  H35      1.0000 0.89460  0.73710  0.97800  Biso   1.000  H
  H36      1.0000 0.10540  0.26290  0.02200  Biso   1.000  H
  C35      1.0000 0.56970  0.83040  0.40260  Biso   1.000  C
  C36      1.0000 0.43030  0.16960  0.59740  Biso   1.000  C
  H37      1.0000 0.52190  0.78750  0.38360  Biso   1.000  H
  H38      1.0000 0.47810  0.21250  0.61640  Biso   1.000  H
  C37      1.0000 0.04590  0.58910  0.14618  Biso   1.000  C
  C38      1.0000 0.95410  0.41090  0.85382  Biso   1.000  C
  C39      1.0000 0.94470  0.66840  0.09320  Biso   1.000  C
  C40      1.0000 0.05530  0.33160  0.90680  Biso   1.000  C
  H39      1.0000 0.86690  0.71090  0.11120  Biso   1.000  H
  H40      1.0000 0.13310  0.28910  0.88880  Biso   1.000  H
  C41      1.0000 0.62360  0.88200  0.50840  Biso   1.000  C
  C42      1.0000 0.37640  0.11800  0.49160  Biso   1.000  C
  H41      1.0000 0.61320  0.87440  0.56140  Biso   1.000  H
  H42      1.0000 0.38680  0.12560  0.43860  Biso   1.000  H
  C43      1.0000 0.07480  0.61840  0.98860  Biso   1.000  C
  C44      1.0000 0.92520  0.38160  0.01140  Biso   1.000  C
  H43      1.0000 0.08670  0.62650  0.93550  Biso   1.000  H
  H44      1.0000 0.91330  0.37350  0.06450  Biso   1.000  H
  C45      1.0000 0.03960  0.56490  0.23220  Biso   1.000  C
  C46      1.0000 0.96040  0.43510  0.76780  Biso   1.000  C
  C47      1.0000 0.14820  0.45070  0.34980  Biso   1.000  C
  C48      1.0000 0.85180  0.54930  0.65020  Biso   1.000  C
  H45      1.0000 0.21690  0.39100  0.37710  Biso   1.000  H
  H46      1.0000 0.78310  0.60900  0.62290  Biso   1.000  H
  C49      1.0000 0.68090  0.93380  0.26580  Biso   1.000  C
  C50      1.0000 0.31910  0.06620  0.73420  Biso   1.000  C
  C51      1.0000 0.44420  0.59820  0.34610  Biso   1.000  C
  C52      1.0000 0.55580  0.40180  0.65390  Biso   1.000  C
  H47      1.0000 0.38320  0.63470  0.37510  Biso   1.000  H
  H48      1.0000 0.61680  0.36530  0.62490  Biso   1.000  H
  C53      1.0000 0.94590  0.62360  0.27080  Biso   1.000  C
  C54      1.0000 0.05410  0.37640  0.72920  Biso   1.000  C
  H49      1.0000 0.87610  0.68210  0.24270  Biso   1.000  H
  H50      1.0000 0.12390  0.31790  0.75730  Biso   1.000  H
  C55      1.0000 0.13980  0.86700  0.23130  Biso   1.000  C
  C56      1.0000 0.86020  0.13300  0.76870  Biso   1.000  C
  H51      1.0000 0.09520  0.80350  0.25460  Biso   1.000  H
  H52      1.0000 0.90480  0.19650  0.74540  Biso   1.000  H
  C57      1.0000 0.05820  0.50790  0.39160  Biso   1.000  C
  C58      1.0000 0.94180  0.49210  0.60840  Biso   1.000  C
  H53      1.0000 0.06710  0.48760  0.44580  Biso   1.000  H
  H54      1.0000 0.93290  0.51240  0.55420  Biso   1.000  H
  C59      1.0000 0.78470  0.05030  0.14850  Biso   1.000  C
  C60      1.0000 0.21530  0.94970  0.85150  Biso   1.000  C
  H55      1.0000 0.83940  0.10910  0.12200  Biso   1.000  H
  H56      1.0000 0.16060  0.89090  0.87800  Biso   1.000  H
  C61      1.0000 0.44040  0.63640  0.26530  Biso   1.000  C
  C62      1.0000 0.55960  0.36360  0.73470  Biso   1.000  C
  H57      1.0000 0.37650  0.69920  0.23960  Biso   1.000  H
  H58      1.0000 0.62350  0.30080  0.76040  Biso   1.000  H
  C63      1.0000 0.62930  0.87610  0.22580  Biso   1.000  C
  C64      1.0000 0.37070  0.12390  0.77420  Biso   1.000  C
  H59      1.0000 0.57760  0.81620  0.25330  Biso   1.000  H
  H60      1.0000 0.42240  0.18380  0.74670  Biso   1.000  H
  C65      1.0000 0.17570  0.92020  0.27820  Biso   1.000  C
  C66      1.0000 0.82430  0.07980  0.72180  Biso   1.000  C
  H61      1.0000 0.15570  0.89190  0.33250  Biso   1.000  H
  H62      1.0000 0.84430  0.10810  0.66750  Biso   1.000  H
  C67      1.0000 0.53060  0.58260  0.22150  Biso   1.000  C
  C68      1.0000 0.46940  0.41740  0.77850  Biso   1.000  C
  H63      1.0000 0.52830  0.60990  0.16670  Biso   1.000  H
  H64      1.0000 0.47170  0.39010  0.83330  Biso   1.000  H
  C69      1.0000 0.73450  0.99580  0.10580  Biso   1.000  C
  C70      1.0000 0.26550  0.00420  0.89420  Biso   1.000  C
  H65      1.0000 0.75400  0.01820  0.05140  Biso   1.000  H
  H66      1.0000 0.24600  0.98180  0.94860  Biso   1.000  H
  C71      1.0000 0.16870  0.90660  0.15130  Biso   1.000  C
  C72      1.0000 0.83130  0.09340  0.84870  Biso   1.000  C
  H67      1.0000 0.14460  0.87030  0.12030  Biso   1.000  H
  H68      1.0000 0.85540  0.12970  0.87970  Biso   1.000  H
  C73      1.0000 0.23470  0.00200  0.11680  Biso   1.000  C
  C74      1.0000 0.76530  0.99800  0.88320  Biso   1.000  C
  H69      1.0000 0.25510  0.02970  0.06240  Biso   1.000  H
  H70      1.0000 0.74490  0.97030  0.93760  Biso   1.000  H
  C75      1.0000 0.54020  0.50450  0.38400  Biso   1.000  C
  C76      1.0000 0.45980  0.49550  0.61600  Biso   1.000  C
  H71      1.0000 0.54500  0.47850  0.43870  Biso   1.000  H
  H72      1.0000 0.45500  0.52150  0.56130  Biso   1.000  H
