data_image0
_cell_length_a       11.432
_cell_length_b       18.484
_cell_length_c       7.4981
_cell_angle_alpha    90
_cell_angle_beta     94.8
_cell_angle_gamma    90

_symmetry_space_group_name_H-M    "P 1"
_symmetry_int_tables_number       1

loop_
  _symmetry_equiv_pos_as_xyz
  'x, y, z'

loop_
  _atom_site_label
  _atom_site_occupancy
  _atom_site_fract_x
  _atom_site_fract_y
  _atom_site_fract_z
  _atom_site_thermal_displace_type
  _atom_site_B_iso_or_equiv
  _atom_site_type_symbol
  Cu1      1.0000 0.50000  0.24370  0.00000  Biso   1.000  Cu
  Cu2      1.0000 0.00000  0.74370  0.00000  Biso   1.000  Cu
  Cu3      1.0000 0.50000  0.75630  0.00000  Biso   1.000  Cu
  Cu4      1.0000 0.00000  0.25630  0.00000  Biso   1.000  Cu
  O1       1.0000 0.38012  0.31920  0.98420  Biso   1.000  O
  O2       1.0000 0.88012  0.81920  0.98420  Biso   1.000  O
  O3       1.0000 0.61988  0.31920  0.01580  Biso   1.000  O
  O4       1.0000 0.11988  0.81920  0.01580  Biso   1.000  O
  O5       1.0000 0.61988  0.68080  0.01580  Biso   1.000  O
  O6       1.0000 0.11988  0.18080  0.01580  Biso   1.000  O
  O7       1.0000 0.38012  0.68080  0.98420  Biso   1.000  O
  O8       1.0000 0.88012  0.18080  0.98420  Biso   1.000  O
  O9       1.0000 0.43585  0.35615  0.26380  Biso   1.000  O
  O10      1.0000 0.93585  0.85615  0.26380  Biso   1.000  O
  O11      1.0000 0.56415  0.35615  0.73620  Biso   1.000  O
  O12      1.0000 0.06415  0.85615  0.73620  Biso   1.000  O
  O13      1.0000 0.56415  0.64385  0.73620  Biso   1.000  O
  O14      1.0000 0.06415  0.14385  0.73620  Biso   1.000  O
  O15      1.0000 0.43585  0.64385  0.26380  Biso   1.000  O
  O16      1.0000 0.93585  0.14385  0.26380  Biso   1.000  O
  O17      1.0000 0.11508  0.34645  0.76530  Biso   1.000  O
  O18      1.0000 0.61508  0.84645  0.76530  Biso   1.000  O
  O19      1.0000 0.88492  0.34645  0.23470  Biso   1.000  O
  O20      1.0000 0.38492  0.84645  0.23470  Biso   1.000  O
  O21      1.0000 0.88492  0.65355  0.23470  Biso   1.000  O
  O22      1.0000 0.38492  0.15355  0.23470  Biso   1.000  O
  O23      1.0000 0.11508  0.65355  0.76530  Biso   1.000  O
  O24      1.0000 0.61508  0.15355  0.76530  Biso   1.000  O
  O25      1.0000 0.11590  0.33154  0.06130  Biso   1.000  O
  O26      1.0000 0.61590  0.83154  0.06130  Biso   1.000  O
  O27      1.0000 0.88410  0.33154  0.93870  Biso   1.000  O
  O28      1.0000 0.38410  0.83154  0.93870  Biso   1.000  O
  O29      1.0000 0.88410  0.66846  0.93870  Biso   1.000  O
  O30      1.0000 0.38410  0.16846  0.93870  Biso   1.000  O
  O31      1.0000 0.11590  0.66846  0.06130  Biso   1.000  O
  O32      1.0000 0.61590  0.16846  0.06130  Biso   1.000  O
  C1       1.0000 0.31880  0.43453  0.06770  Biso   1.000  C
  C2       1.0000 0.81880  0.93453  0.06770  Biso   1.000  C
  C3       1.0000 0.68120  0.43453  0.93230  Biso   1.000  C
  C4       1.0000 0.18120  0.93453  0.93230  Biso   1.000  C
  C5       1.0000 0.68120  0.56547  0.93230  Biso   1.000  C
  C6       1.0000 0.18120  0.06547  0.93230  Biso   1.000  C
  C7       1.0000 0.31880  0.56547  0.06770  Biso   1.000  C
  C8       1.0000 0.81880  0.06547  0.06770  Biso   1.000  C
  C9       1.0000 0.37060  0.50000  0.12020  Biso   1.000  C
  C10      1.0000 0.87060  0.00000  0.12020  Biso   1.000  C
  C11      1.0000 0.62940  0.50000  0.87980  Biso   1.000  C
  C12      1.0000 0.12940  0.00000  0.87980  Biso   1.000  C
  H1       1.0000 0.44120  0.50000  0.19160  Biso   1.000  H
  H2       1.0000 0.94120  0.00000  0.19160  Biso   1.000  H
  H3       1.0000 0.55880  0.50000  0.80840  Biso   1.000  H
  H4       1.0000 0.05880  0.00000  0.80840  Biso   1.000  H
  C13      1.0000 0.21090  0.43458  0.96220  Biso   1.000  C
  C14      1.0000 0.71090  0.93458  0.96220  Biso   1.000  C
  C15      1.0000 0.78910  0.43458  0.03780  Biso   1.000  C
  C16      1.0000 0.28910  0.93458  0.03780  Biso   1.000  C
  C17      1.0000 0.78910  0.56542  0.03780  Biso   1.000  C
  C18      1.0000 0.28910  0.06542  0.03780  Biso   1.000  C
  C19      1.0000 0.21090  0.56542  0.96220  Biso   1.000  C
  C20      1.0000 0.71090  0.06542  0.96220  Biso   1.000  C
  C21      1.0000 0.15810  0.50000  0.91000  Biso   1.000  C
  C22      1.0000 0.65810  0.00000  0.91000  Biso   1.000  C
  C23      1.0000 0.84190  0.50000  0.09000  Biso   1.000  C
  C24      1.0000 0.34190  0.00000  0.09000  Biso   1.000  C
  H5       1.0000 0.08710  0.50000  0.83980  Biso   1.000  H
  H6       1.0000 0.58710  0.00000  0.83980  Biso   1.000  H
  H7       1.0000 0.91290  0.50000  0.16020  Biso   1.000  H
  H8       1.0000 0.41290  0.00000  0.16020  Biso   1.000  H
  C25      1.0000 0.38250  0.36478  0.11250  Biso   1.000  C
  C26      1.0000 0.88250  0.86478  0.11250  Biso   1.000  C
  C27      1.0000 0.61750  0.36478  0.88750  Biso   1.000  C
  C28      1.0000 0.11750  0.86478  0.88750  Biso   1.000  C
  C29      1.0000 0.61750  0.63522  0.88750  Biso   1.000  C
  C30      1.0000 0.11750  0.13522  0.88750  Biso   1.000  C
  C31      1.0000 0.38250  0.63522  0.11250  Biso   1.000  C
  C32      1.0000 0.88250  0.13522  0.11250  Biso   1.000  C
  C33      1.0000 0.14390  0.36512  0.92110  Biso   1.000  C
  C34      1.0000 0.64390  0.86512  0.92110  Biso   1.000  C
  C35      1.0000 0.85610  0.36512  0.07890  Biso   1.000  C
  C36      1.0000 0.35610  0.86512  0.07890  Biso   1.000  C
  C37      1.0000 0.85610  0.63488  0.07890  Biso   1.000  C
  C38      1.0000 0.35610  0.13488  0.07890  Biso   1.000  C
  C39      1.0000 0.14390  0.63488  0.92110  Biso   1.000  C
  C40      1.0000 0.64390  0.13488  0.92110  Biso   1.000  C
  N1       1.0000 0.32150  0.33719  0.58120  Biso   1.000  N
  N2       1.0000 0.82150  0.83719  0.58120  Biso   1.000  N
  N3       1.0000 0.67850  0.33719  0.41880  Biso   1.000  N
  N4       1.0000 0.17850  0.83719  0.41880  Biso   1.000  N
  N5       1.0000 0.67850  0.66281  0.41880  Biso   1.000  N
  N6       1.0000 0.17850  0.16281  0.41880  Biso   1.000  N
  N7       1.0000 0.32150  0.66281  0.58120  Biso   1.000  N
  N8       1.0000 0.82150  0.16281  0.58120  Biso   1.000  N
  H9       1.0000 0.38000  0.34610  0.66410  Biso   1.000  H
  H10      1.0000 0.88000  0.84610  0.66410  Biso   1.000  H
  H11      1.0000 0.62000  0.34610  0.33590  Biso   1.000  H
  H12      1.0000 0.12000  0.84610  0.33590  Biso   1.000  H
  H13      1.0000 0.62000  0.65390  0.33590  Biso   1.000  H
  H14      1.0000 0.12000  0.15390  0.33590  Biso   1.000  H
  H15      1.0000 0.38000  0.65390  0.66410  Biso   1.000  H
  H16      1.0000 0.88000  0.15390  0.66410  Biso   1.000  H
  H17      1.0000 0.25680  0.35950  0.61040  Biso   1.000  H
  H18      1.0000 0.75680  0.85950  0.61040  Biso   1.000  H
  H19      1.0000 0.74320  0.35950  0.38960  Biso   1.000  H
  H20      1.0000 0.24320  0.85950  0.38960  Biso   1.000  H
  H21      1.0000 0.74320  0.64050  0.38960  Biso   1.000  H
  H22      1.0000 0.24320  0.14050  0.38960  Biso   1.000  H
  H23      1.0000 0.25680  0.64050  0.61040  Biso   1.000  H
  H24      1.0000 0.75680  0.14050  0.61040  Biso   1.000  H
  H25      1.0000 0.34050  0.35340  0.47560  Biso   1.000  H
  H26      1.0000 0.84050  0.85340  0.47560  Biso   1.000  H
  H27      1.0000 0.65950  0.35340  0.52440  Biso   1.000  H
  H28      1.0000 0.15950  0.85340  0.52440  Biso   1.000  H
  H29      1.0000 0.65950  0.64660  0.52440  Biso   1.000  H
  H30      1.0000 0.15950  0.14660  0.52440  Biso   1.000  H
  H31      1.0000 0.34050  0.64660  0.47560  Biso   1.000  H
  H32      1.0000 0.84050  0.14660  0.47560  Biso   1.000  H
  C41      1.0000 0.30000  0.25815  0.57020  Biso   1.000  C
  C42      1.0000 0.80000  0.75815  0.57020  Biso   1.000  C
  C43      1.0000 0.70000  0.25815  0.42980  Biso   1.000  C
  C44      1.0000 0.20000  0.75815  0.42980  Biso   1.000  C
  C45      1.0000 0.70000  0.74185  0.42980  Biso   1.000  C
  C46      1.0000 0.20000  0.24185  0.42980  Biso   1.000  C
  C47      1.0000 0.30000  0.74185  0.57020  Biso   1.000  C
  C48      1.0000 0.80000  0.24185  0.57020  Biso   1.000  C
  H33      1.0000 0.28050  0.24030  0.68560  Biso   1.000  H
  H34      1.0000 0.78050  0.74030  0.68560  Biso   1.000  H
  H35      1.0000 0.71950  0.24030  0.31440  Biso   1.000  H
  H36      1.0000 0.21950  0.74030  0.31440  Biso   1.000  H
  H37      1.0000 0.71950  0.75970  0.31440  Biso   1.000  H
  H38      1.0000 0.21950  0.25970  0.31440  Biso   1.000  H
  H39      1.0000 0.28050  0.75970  0.68560  Biso   1.000  H
  H40      1.0000 0.78050  0.25970  0.68560  Biso   1.000  H
  H41      1.0000 0.37060  0.23370  0.53940  Biso   1.000  H
  H42      1.0000 0.87060  0.73370  0.53940  Biso   1.000  H
  H43      1.0000 0.62940  0.23370  0.46060  Biso   1.000  H
  H44      1.0000 0.12940  0.73370  0.46060  Biso   1.000  H
  H45      1.0000 0.62940  0.76630  0.46060  Biso   1.000  H
  H46      1.0000 0.12940  0.26630  0.46060  Biso   1.000  H
  H47      1.0000 0.37060  0.76630  0.53940  Biso   1.000  H
  H48      1.0000 0.87060  0.26630  0.53940  Biso   1.000  H
  O33      1.0000 0.11460  0.42380  0.39570  Biso   1.000  O
  O34      1.0000 0.61460  0.92380  0.39570  Biso   1.000  O
  O35      1.0000 0.88540  0.42380  0.60430  Biso   1.000  O
  O36      1.0000 0.38540  0.92380  0.60430  Biso   1.000  O
  O37      1.0000 0.88540  0.57620  0.60430  Biso   1.000  O
  O38      1.0000 0.38540  0.07620  0.60430  Biso   1.000  O
  O39      1.0000 0.11460  0.57620  0.39570  Biso   1.000  O
  O40      1.0000 0.61460  0.07620  0.39570  Biso   1.000  O
  H49      1.0000 0.07900  0.40800  0.30700  Biso   1.000  H
  H50      1.0000 0.57900  0.90800  0.30700  Biso   1.000  H
  H51      1.0000 0.92100  0.40800  0.69300  Biso   1.000  H
  H52      1.0000 0.42100  0.90800  0.69300  Biso   1.000  H
  H53      1.0000 0.92100  0.59200  0.69300  Biso   1.000  H
  H54      1.0000 0.42100  0.09200  0.69300  Biso   1.000  H
  H55      1.0000 0.07900  0.59200  0.30700  Biso   1.000  H
  H56      1.0000 0.57900  0.09200  0.30700  Biso   1.000  H
  H57      1.0000 0.09520  0.39920  0.47900  Biso   1.000  H
  H58      1.0000 0.59520  0.89920  0.47900  Biso   1.000  H
  H59      1.0000 0.90480  0.39920  0.52100  Biso   1.000  H
  H60      1.0000 0.40480  0.89920  0.52100  Biso   1.000  H
  H61      1.0000 0.90480  0.60080  0.52100  Biso   1.000  H
  H62      1.0000 0.40480  0.10080  0.52100  Biso   1.000  H
  H63      1.0000 0.09520  0.60080  0.47900  Biso   1.000  H
  H64      1.0000 0.59520  0.10080  0.47900  Biso   1.000  H
  O41      1.0000 0.36830  0.50000  0.56480  Biso   1.000  O
  O42      1.0000 0.86830  0.00000  0.56480  Biso   1.000  O
  O43      1.0000 0.63170  0.50000  0.43520  Biso   1.000  O
  O44      1.0000 0.13170  0.00000  0.43520  Biso   1.000  O
  H65      1.0000 0.32760  0.46400  0.57630  Biso   1.000  H
  H66      1.0000 0.82760  0.96400  0.57630  Biso   1.000  H
  H67      1.0000 0.67240  0.46400  0.42370  Biso   1.000  H
  H68      1.0000 0.17240  0.96400  0.42370  Biso   1.000  H
  H69      1.0000 0.67240  0.53600  0.42370  Biso   1.000  H
  H70      1.0000 0.17240  0.03600  0.42370  Biso   1.000  H
  H71      1.0000 0.32760  0.53600  0.57630  Biso   1.000  H
  H72      1.0000 0.82760  0.03600  0.57630  Biso   1.000  H
