data_image0
_cell_length_a       7.3937
_cell_length_b       18.4414
_cell_length_c       11.3607
_cell_angle_alpha    90
_cell_angle_beta     94.783
_cell_angle_gamma    90

_symmetry_space_group_name_H-M    "P 1"
_symmetry_int_tables_number       1

loop_
  _symmetry_equiv_pos_as_xyz
  'x, y, z'

loop_
  _atom_site_label
  _atom_site_occupancy
  _atom_site_fract_x
  _atom_site_fract_y
  _atom_site_fract_z
  _atom_site_thermal_displace_type
  _atom_site_B_iso_or_equiv
  _atom_site_type_symbol
  Cu1      1.0000 0.98260  0.74312  0.99904  Biso   1.000  Cu
  Cu2      1.0000 0.01740  0.24312  0.50096  Biso   1.000  Cu
  Cu3      1.0000 0.01740  0.25688  0.00096  Biso   1.000  Cu
  Cu4      1.0000 0.98260  0.75688  0.49904  Biso   1.000  Cu
  O1       1.0000 0.00080  0.81812  0.12002  Biso   1.000  O
  O2       1.0000 0.99920  0.31812  0.37998  Biso   1.000  O
  O3       1.0000 0.99920  0.18188  0.87998  Biso   1.000  O
  O4       1.0000 0.00080  0.68188  0.62002  Biso   1.000  O
  O5       1.0000 0.72149  0.85964  0.06384  Biso   1.000  O
  O6       1.0000 0.27851  0.35964  0.43616  Biso   1.000  O
  O7       1.0000 0.27851  0.14036  0.93616  Biso   1.000  O
  O8       1.0000 0.72149  0.64036  0.56384  Biso   1.000  O
  O9       1.0000 0.95242  0.16759  0.38554  Biso   1.000  O
  O10      1.0000 0.04758  0.66759  0.11446  Biso   1.000  O
  O11      1.0000 0.04758  0.83241  0.61446  Biso   1.000  O
  O12      1.0000 0.95242  0.33241  0.88554  Biso   1.000  O
  O13      1.0000 0.25174  0.15069  0.38605  Biso   1.000  O
  O14      1.0000 0.74826  0.65069  0.11395  Biso   1.000  O
  O15      1.0000 0.74826  0.84931  0.61395  Biso   1.000  O
  O16      1.0000 0.25174  0.34931  0.88605  Biso   1.000  O
  O17      1.0000 0.03538  0.18072  0.12061  Biso   1.000  O
  O18      1.0000 0.96462  0.68072  0.37939  Biso   1.000  O
  O19      1.0000 0.96462  0.81928  0.87939  Biso   1.000  O
  O20      1.0000 0.03538  0.31928  0.62061  Biso   1.000  O
  O21      1.0000 0.75133  0.14655  0.06256  Biso   1.000  O
  O22      1.0000 0.24867  0.64655  0.43744  Biso   1.000  O
  O23      1.0000 0.24867  0.85345  0.93744  Biso   1.000  O
  O24      1.0000 0.75133  0.35345  0.56256  Biso   1.000  O
  O25      1.0000 0.92059  0.83259  0.38281  Biso   1.000  O
  O26      1.0000 0.07941  0.33259  0.11719  Biso   1.000  O
  O27      1.0000 0.07941  0.16741  0.61719  Biso   1.000  O
  O28      1.0000 0.92059  0.66741  0.88281  Biso   1.000  O
  O29      1.0000 0.22206  0.84199  0.38507  Biso   1.000  O
  O30      1.0000 0.77794  0.34199  0.11493  Biso   1.000  O
  O31      1.0000 0.77794  0.15801  0.61493  Biso   1.000  O
  O32      1.0000 0.22206  0.65801  0.88507  Biso   1.000  O
  C1       1.0000 0.87520  0.86592  0.11718  Biso   1.000  C
  C2       1.0000 0.12480  0.36592  0.38282  Biso   1.000  C
  C3       1.0000 0.12480  0.13408  0.88282  Biso   1.000  C
  C4       1.0000 0.87520  0.63408  0.61718  Biso   1.000  C
  C5       1.0000 0.92770  0.93511  0.18051  Biso   1.000  C
  C6       1.0000 0.07230  0.43511  0.31949  Biso   1.000  C
  C7       1.0000 0.07230  0.06489  0.81949  Biso   1.000  C
  C8       1.0000 0.92770  0.56489  0.68051  Biso   1.000  C
  C9       1.0000 0.88110  0.00135  0.12768  Biso   1.000  C
  C10      1.0000 0.11890  0.50135  0.37232  Biso   1.000  C
  C11      1.0000 0.11890  0.99865  0.87232  Biso   1.000  C
  C12      1.0000 0.88110  0.49865  0.62768  Biso   1.000  C
  H1       1.0000 0.80760  0.00250  0.05500  Biso   1.000  H
  H2       1.0000 0.19240  0.50250  0.44500  Biso   1.000  H
  H3       1.0000 0.19240  0.99750  0.94500  Biso   1.000  H
  H4       1.0000 0.80760  0.49750  0.55500  Biso   1.000  H
  C13      1.0000 0.09340  0.13317  0.35678  Biso   1.000  C
  C14      1.0000 0.90660  0.63317  0.14322  Biso   1.000  C
  C15      1.0000 0.90660  0.86683  0.64322  Biso   1.000  C
  C16      1.0000 0.09340  0.36683  0.85678  Biso   1.000  C
  C17      1.0000 0.04780  0.06440  0.28902  Biso   1.000  C
  C18      1.0000 0.95220  0.56440  0.21098  Biso   1.000  C
  C19      1.0000 0.95220  0.93560  0.71098  Biso   1.000  C
  C20      1.0000 0.04780  0.43560  0.78902  Biso   1.000  C
  C21      1.0000 0.09520  0.99801  0.34200  Biso   1.000  C
  C22      1.0000 0.90480  0.49801  0.15800  Biso   1.000  C
  C23      1.0000 0.90480  0.00199  0.65800  Biso   1.000  C
  C24      1.0000 0.09520  0.50199  0.84200  Biso   1.000  C
  H5       1.0000 0.16930  0.99680  0.41440  Biso   1.000  H
  H6       1.0000 0.83070  0.49680  0.08560  Biso   1.000  H
  H7       1.0000 0.83070  0.00320  0.58560  Biso   1.000  H
  H8       1.0000 0.16930  0.50320  0.91440  Biso   1.000  H
  C25      1.0000 0.94200  0.06609  0.18101  Biso   1.000  C
  C26      1.0000 0.05800  0.56609  0.31899  Biso   1.000  C
  C27      1.0000 0.05800  0.93391  0.81899  Biso   1.000  C
  C28      1.0000 0.94200  0.43391  0.68101  Biso   1.000  C
  C29      1.0000 0.90250  0.13636  0.11720  Biso   1.000  C
  C30      1.0000 0.09750  0.63636  0.38280  Biso   1.000  C
  C31      1.0000 0.09750  0.86364  0.88280  Biso   1.000  C
  C32      1.0000 0.90250  0.36364  0.61720  Biso   1.000  C
  C33      1.0000 0.06680  0.86353  0.35520  Biso   1.000  C
  C34      1.0000 0.93320  0.36353  0.14480  Biso   1.000  C
  C35      1.0000 0.93320  0.13647  0.64480  Biso   1.000  C
  C36      1.0000 0.06680  0.63647  0.85520  Biso   1.000  C
  C37      1.0000 0.03380  0.93355  0.28862  Biso   1.000  C
  C38      1.0000 0.96620  0.43355  0.21138  Biso   1.000  C
  C39      1.0000 0.96620  0.06645  0.71138  Biso   1.000  C
  C40      1.0000 0.03380  0.56645  0.78862  Biso   1.000  C
  N1       1.0000 0.56600  0.65943  0.32091  Biso   1.000  N
  N2       1.0000 0.43400  0.15943  0.17909  Biso   1.000  N
  N3       1.0000 0.43400  0.34057  0.67909  Biso   1.000  N
  N4       1.0000 0.56600  0.84057  0.82091  Biso   1.000  N
  H9       1.0000 0.66290  0.64900  0.37290  Biso   1.000  H
  H10      1.0000 0.33710  0.14900  0.12710  Biso   1.000  H
  H11      1.0000 0.33710  0.35100  0.62710  Biso   1.000  H
  H12      1.0000 0.66290  0.85100  0.87290  Biso   1.000  H
  H13      1.0000 0.57740  0.63560  0.25180  Biso   1.000  H
  H14      1.0000 0.42260  0.13560  0.24820  Biso   1.000  H
  H15      1.0000 0.42260  0.36440  0.74820  Biso   1.000  H
  H16      1.0000 0.57740  0.86440  0.75180  Biso   1.000  H
  H17      1.0000 0.46210  0.64500  0.35180  Biso   1.000  H
  H18      1.0000 0.53790  0.14500  0.14820  Biso   1.000  H
  H19      1.0000 0.53790  0.35500  0.64820  Biso   1.000  H
  H20      1.0000 0.46210  0.85500  0.85180  Biso   1.000  H
  N5       1.0000 0.40520  0.83478  0.17836  Biso   1.000  N
  N6       1.0000 0.59480  0.33478  0.32164  Biso   1.000  N
  N7       1.0000 0.59480  0.16522  0.82164  Biso   1.000  N
  N8       1.0000 0.40520  0.66522  0.67836  Biso   1.000  N
  H21      1.0000 0.31080  0.84500  0.12430  Biso   1.000  H
  H22      1.0000 0.68920  0.34500  0.37570  Biso   1.000  H
  H23      1.0000 0.68920  0.15500  0.87570  Biso   1.000  H
  H24      1.0000 0.31080  0.65500  0.62430  Biso   1.000  H
  H25      1.0000 0.51070  0.85000  0.15060  Biso   1.000  H
  H26      1.0000 0.48930  0.35000  0.34940  Biso   1.000  H
  H27      1.0000 0.48930  0.15000  0.84940  Biso   1.000  H
  H28      1.0000 0.51070  0.65000  0.65060  Biso   1.000  H
  H29      1.0000 0.38870  0.85800  0.24730  Biso   1.000  H
  H30      1.0000 0.61130  0.35800  0.25270  Biso   1.000  H
  H31      1.0000 0.61130  0.14200  0.75270  Biso   1.000  H
  H32      1.0000 0.38870  0.64200  0.74730  Biso   1.000  H
  C41      1.0000 0.55870  0.73907  0.29853  Biso   1.000  C
  C42      1.0000 0.44130  0.23907  0.20147  Biso   1.000  C
  C43      1.0000 0.44130  0.26093  0.70147  Biso   1.000  C
  C44      1.0000 0.55870  0.76093  0.79853  Biso   1.000  C
  H33      1.0000 0.67810  0.75630  0.27640  Biso   1.000  H
  H34      1.0000 0.32190  0.25630  0.22360  Biso   1.000  H
  H35      1.0000 0.32190  0.24370  0.72360  Biso   1.000  H
  H36      1.0000 0.67810  0.74370  0.77640  Biso   1.000  H
  H37      1.0000 0.53030  0.76490  0.37110  Biso   1.000  H
  H38      1.0000 0.46970  0.26490  0.12890  Biso   1.000  H
  H39      1.0000 0.46970  0.23510  0.62890  Biso   1.000  H
  H40      1.0000 0.53030  0.73510  0.87110  Biso   1.000  H
  C45      1.0000 0.41390  0.75515  0.19949  Biso   1.000  C
  C46      1.0000 0.58610  0.25515  0.30051  Biso   1.000  C
  C47      1.0000 0.58610  0.24485  0.80051  Biso   1.000  C
  C48      1.0000 0.41390  0.74485  0.69949  Biso   1.000  C
  H41      1.0000 0.44320  0.72990  0.12660  Biso   1.000  H
  H42      1.0000 0.55680  0.22990  0.37340  Biso   1.000  H
  H43      1.0000 0.55680  0.27010  0.87340  Biso   1.000  H
  H44      1.0000 0.44320  0.77010  0.62660  Biso   1.000  H
  H45      1.0000 0.29480  0.73740  0.22110  Biso   1.000  H
  H46      1.0000 0.70520  0.23740  0.27890  Biso   1.000  H
  H47      1.0000 0.70520  0.26260  0.77890  Biso   1.000  H
  H48      1.0000 0.29480  0.76260  0.72110  Biso   1.000  H
  O33      1.0000 0.62010  0.42273  0.89555  Biso   1.000  O
  O34      1.0000 0.37990  0.92273  0.60445  Biso   1.000  O
  O35      1.0000 0.37990  0.57727  0.10445  Biso   1.000  O
  O36      1.0000 0.62010  0.07727  0.39555  Biso   1.000  O
  H49      1.0000 0.56290  0.41000  0.95400  Biso   1.000  H
  H50      1.0000 0.43710  0.91000  0.54600  Biso   1.000  H
  H51      1.0000 0.43710  0.59000  0.04600  Biso   1.000  H
  H52      1.0000 0.56290  0.09000  0.45400  Biso   1.000  H
  H53      1.0000 0.72440  0.40530  0.88610  Biso   1.000  H
  H54      1.0000 0.27560  0.90530  0.61390  Biso   1.000  H
  H55      1.0000 0.27560  0.59470  0.11390  Biso   1.000  H
  H56      1.0000 0.72440  0.09470  0.38610  Biso   1.000  H
  O37      1.0000 0.58920  0.57443  0.87753  Biso   1.000  O
  O38      1.0000 0.41080  0.07443  0.62247  Biso   1.000  O
  O39      1.0000 0.41080  0.42557  0.12247  Biso   1.000  O
  O40      1.0000 0.58920  0.92557  0.37753  Biso   1.000  O
  H57      1.0000 0.57580  0.52870  0.88010  Biso   1.000  H
  H58      1.0000 0.42420  0.02870  0.61990  Biso   1.000  H
  H59      1.0000 0.42420  0.47130  0.11990  Biso   1.000  H
  H60      1.0000 0.57580  0.97130  0.38010  Biso   1.000  H
  H61      1.0000 0.69510  0.59220  0.89090  Biso   1.000  H
  H62      1.0000 0.30490  0.09220  0.60910  Biso   1.000  H
  H63      1.0000 0.30490  0.40780  0.10910  Biso   1.000  H
  H64      1.0000 0.69510  0.90780  0.39090  Biso   1.000  H
  O41      1.0000 0.43350  0.99565  0.13050  Biso   1.000  O
  O42      1.0000 0.56650  0.49565  0.36950  Biso   1.000  O
  O43      1.0000 0.56650  0.00435  0.86950  Biso   1.000  O
  O44      1.0000 0.43350  0.50435  0.63050  Biso   1.000  O
  H65      1.0000 0.32680  0.00230  0.15100  Biso   1.000  H
  H66      1.0000 0.67320  0.50230  0.34900  Biso   1.000  H
  H67      1.0000 0.67320  0.99770  0.84900  Biso   1.000  H
  H68      1.0000 0.32680  0.49770  0.65100  Biso   1.000  H
  H69      1.0000 0.47550  0.01130  0.06790  Biso   1.000  H
  H70      1.0000 0.52450  0.51130  0.43210  Biso   1.000  H
  H71      1.0000 0.52450  0.98870  0.93210  Biso   1.000  H
  H72      1.0000 0.47550  0.48870  0.56790  Biso   1.000  H
