data_image0
_cell_length_a       8.314
_cell_length_b       6.968
_cell_length_c       19.46
_cell_angle_alpha    90
_cell_angle_beta     90.645
_cell_angle_gamma    90

_symmetry_space_group_name_H-M    "P 1"
_symmetry_int_tables_number       1

loop_
  _symmetry_equiv_pos_as_xyz
  'x, y, z'

loop_
  _atom_site_label
  _atom_site_occupancy
  _atom_site_fract_x
  _atom_site_fract_y
  _atom_site_fract_z
  _atom_site_thermal_displace_type
  _atom_site_B_iso_or_equiv
  _atom_site_type_symbol
  Cu1      1.0000 0.63472  0.91538  0.83887  Biso   1.000  Cu
  Cu2      1.0000 0.36528  0.41538  0.66113  Biso   1.000  Cu
  Cu3      1.0000 0.36528  0.08462  0.16113  Biso   1.000  Cu
  Cu4      1.0000 0.63472  0.58462  0.33887  Biso   1.000  Cu
  N1       1.0000 0.41720  0.86890  0.86740  Biso   1.000  N
  N2       1.0000 0.58280  0.36890  0.63260  Biso   1.000  N
  N3       1.0000 0.58280  0.13110  0.13260  Biso   1.000  N
  N4       1.0000 0.41720  0.63110  0.36740  Biso   1.000  N
  O1       1.0000 0.99070  0.71120  0.09350  Biso   1.000  O
  O2       1.0000 0.00930  0.21120  0.40650  Biso   1.000  O
  O3       1.0000 0.00930  0.28880  0.90650  Biso   1.000  O
  O4       1.0000 0.99070  0.78880  0.59350  Biso   1.000  O
  O5       1.0000 0.98230  0.76930  0.98300  Biso   1.000  O
  O6       1.0000 0.01770  0.26930  0.51700  Biso   1.000  O
  O7       1.0000 0.01770  0.23070  0.01700  Biso   1.000  O
  O8       1.0000 0.98230  0.73070  0.48300  Biso   1.000  O
  H1       1.0000 0.91440  0.79130  0.95310  Biso   1.000  H
  H2       1.0000 0.08560  0.29130  0.54690  Biso   1.000  H
  H3       1.0000 0.08560  0.20870  0.04690  Biso   1.000  H
  H4       1.0000 0.91440  0.70870  0.45310  Biso   1.000  H
  O9       1.0000 0.72170  0.81540  0.92365  Biso   1.000  O
  O10      1.0000 0.27830  0.31540  0.57635  Biso   1.000  O
  O11      1.0000 0.27830  0.18460  0.07635  Biso   1.000  O
  O12      1.0000 0.72170  0.68460  0.42365  Biso   1.000  O
  O13      1.0000 0.29530  0.16020  0.72553  Biso   1.000  O
  O14      1.0000 0.70470  0.66020  0.77447  Biso   1.000  O
  O15      1.0000 0.70470  0.83980  0.27447  Biso   1.000  O
  O16      1.0000 0.29530  0.33980  0.22553  Biso   1.000  O
  O17      1.0000 0.53340  0.06280  0.76454  Biso   1.000  O
  O18      1.0000 0.46660  0.56280  0.73546  Biso   1.000  O
  O19      1.0000 0.46660  0.93720  0.23546  Biso   1.000  O
  O20      1.0000 0.53340  0.43720  0.26454  Biso   1.000  O
  O21      1.0000 0.84650  0.02810  0.82090  Biso   1.000  O
  O22      1.0000 0.15350  0.52810  0.67910  Biso   1.000  O
  O23      1.0000 0.15350  0.97190  0.17910  Biso   1.000  O
  O24      1.0000 0.84650  0.47190  0.32090  Biso   1.000  O
  H5       1.0000 0.87600  0.10200  0.85300  Biso   1.000  H
  H6       1.0000 0.12400  0.60200  0.64700  Biso   1.000  H
  H7       1.0000 0.12400  0.89800  0.14700  Biso   1.000  H
  H8       1.0000 0.87600  0.39800  0.35300  Biso   1.000  H
  H9       1.0000 0.91900  0.03300  0.79100  Biso   1.000  H
  H10      1.0000 0.08100  0.53300  0.70900  Biso   1.000  H
  H11      1.0000 0.08100  0.96700  0.20900  Biso   1.000  H
  H12      1.0000 0.91900  0.46700  0.29100  Biso   1.000  H
  O25      1.0000 0.97780  0.06740  0.70000  Biso   1.000  O
  O26      1.0000 0.02220  0.56740  0.80000  Biso   1.000  O
  O27      1.0000 0.02220  0.93260  0.30000  Biso   1.000  O
  O28      1.0000 0.97780  0.43260  0.20000  Biso   1.000  O
  H13      1.0000 0.07400  0.10700  0.70200  Biso   1.000  H
  H14      1.0000 0.92600  0.60700  0.79800  Biso   1.000  H
  H15      1.0000 0.92600  0.89300  0.29800  Biso   1.000  H
  H16      1.0000 0.07400  0.39300  0.20200  Biso   1.000  H
  H17      1.0000 0.96200  0.03700  0.65800  Biso   1.000  H
  H18      1.0000 0.03800  0.53700  0.84200  Biso   1.000  H
  H19      1.0000 0.03800  0.96300  0.34200  Biso   1.000  H
  H20      1.0000 0.96200  0.46300  0.15800  Biso   1.000  H
  C1       1.0000 0.91100  0.73070  0.04070  Biso   1.000  C
  C2       1.0000 0.08900  0.23070  0.45930  Biso   1.000  C
  C3       1.0000 0.08900  0.26930  0.95930  Biso   1.000  C
  C4       1.0000 0.91100  0.76930  0.54070  Biso   1.000  C
  C5       1.0000 0.73360  0.71800  0.03990  Biso   1.000  C
  C6       1.0000 0.26640  0.21800  0.46010  Biso   1.000  C
  C7       1.0000 0.26640  0.28200  0.96010  Biso   1.000  C
  C8       1.0000 0.73360  0.78200  0.53990  Biso   1.000  C
  C9       1.0000 0.65540  0.65980  0.09800  Biso   1.000  C
  C10      1.0000 0.34460  0.15980  0.40200  Biso   1.000  C
  C11      1.0000 0.34460  0.34020  0.90200  Biso   1.000  C
  C12      1.0000 0.65540  0.84020  0.59800  Biso   1.000  C
  H21      1.0000 0.71550  0.62450  0.13660  Biso   1.000  H
  H22      1.0000 0.28450  0.12450  0.36340  Biso   1.000  H
  H23      1.0000 0.28450  0.37550  0.86340  Biso   1.000  H
  H24      1.0000 0.71550  0.87550  0.63660  Biso   1.000  H
  C13      1.0000 0.49100  0.65230  0.10060  Biso   1.000  C
  C14      1.0000 0.50900  0.15230  0.39940  Biso   1.000  C
  C15      1.0000 0.50900  0.34770  0.89940  Biso   1.000  C
  C16      1.0000 0.49100  0.84770  0.60060  Biso   1.000  C
  H25      1.0000 0.43980  0.61320  0.14040  Biso   1.000  H
  H26      1.0000 0.56020  0.11320  0.35960  Biso   1.000  H
  H27      1.0000 0.56020  0.38680  0.85960  Biso   1.000  H
  H28      1.0000 0.43980  0.88680  0.64040  Biso   1.000  H
  C17      1.0000 0.40200  0.70420  0.04260  Biso   1.000  C
  C18      1.0000 0.59800  0.20420  0.45740  Biso   1.000  C
  C19      1.0000 0.59800  0.29580  0.95740  Biso   1.000  C
  C20      1.0000 0.40200  0.79580  0.54260  Biso   1.000  C
  H29      1.0000 0.29030  0.69930  0.04400  Biso   1.000  H
  H30      1.0000 0.70970  0.19930  0.45600  Biso   1.000  H
  H31      1.0000 0.70970  0.30070  0.95600  Biso   1.000  H
  H32      1.0000 0.29030  0.80070  0.54400  Biso   1.000  H
  C21      1.0000 0.47630  0.76300  0.98290  Biso   1.000  C
  C22      1.0000 0.52370  0.26300  0.51710  Biso   1.000  C
  C23      1.0000 0.52370  0.23700  0.01710  Biso   1.000  C
  C24      1.0000 0.47630  0.73700  0.48290  Biso   1.000  C
  C25      1.0000 0.64490  0.76800  0.97950  Biso   1.000  C
  C26      1.0000 0.35510  0.26800  0.52050  Biso   1.000  C
  C27      1.0000 0.35510  0.23200  0.02050  Biso   1.000  C
  C28      1.0000 0.64490  0.73200  0.47950  Biso   1.000  C
  C29      1.0000 0.37190  0.81570  0.92560  Biso   1.000  C
  C30      1.0000 0.62810  0.31570  0.57440  Biso   1.000  C
  C31      1.0000 0.62810  0.18430  0.07440  Biso   1.000  C
  C32      1.0000 0.37190  0.68430  0.42560  Biso   1.000  C
  H33      1.0000 0.26160  0.80950  0.93280  Biso   1.000  H
  H34      1.0000 0.73840  0.30950  0.56720  Biso   1.000  H
  H35      1.0000 0.73840  0.19050  0.06720  Biso   1.000  H
  H36      1.0000 0.26160  0.69050  0.43280  Biso   1.000  H
  C33      1.0000 0.30020  0.92750  0.81460  Biso   1.000  C
  C34      1.0000 0.69980  0.42750  0.68540  Biso   1.000  C
  C35      1.0000 0.69980  0.07250  0.18540  Biso   1.000  C
  C36      1.0000 0.30020  0.57250  0.31460  Biso   1.000  C
  H37      1.0000 0.21000  0.99180  0.83580  Biso   1.000  H
  H38      1.0000 0.79000  0.49180  0.66420  Biso   1.000  H
  H39      1.0000 0.79000  0.00820  0.16420  Biso   1.000  H
  H40      1.0000 0.21000  0.50820  0.33580  Biso   1.000  H
  H41      1.0000 0.25990  0.81550  0.79030  Biso   1.000  H
  H42      1.0000 0.74010  0.31550  0.70970  Biso   1.000  H
  H43      1.0000 0.74010  0.18450  0.20970  Biso   1.000  H
  H44      1.0000 0.25990  0.68450  0.29030  Biso   1.000  H
  C37      1.0000 0.38120  0.06180  0.76470  Biso   1.000  C
  C38      1.0000 0.61880  0.56180  0.73530  Biso   1.000  C
  C39      1.0000 0.61880  0.93820  0.23530  Biso   1.000  C
  C40      1.0000 0.38120  0.43820  0.26470  Biso   1.000  C
