data_image0
_cell_length_a       9.2104
_cell_length_b       9.4058
_cell_length_c       10.225
_cell_angle_alpha    75
_cell_angle_beta     75.5
_cell_angle_gamma    75.15

_symmetry_space_group_name_H-M    "P 1"
_symmetry_int_tables_number       1

loop_
  _symmetry_equiv_pos_as_xyz
  'x, y, z'

loop_
  _atom_site_label
  _atom_site_occupancy
  _atom_site_fract_x
  _atom_site_fract_y
  _atom_site_fract_z
  _atom_site_thermal_displace_type
  _atom_site_B_iso_or_equiv
  _atom_site_type_symbol
  Cu1      1.0000 0.99060  0.28496  0.76066  Biso   1.000  Cu
  Cu2      1.0000 0.00940  0.71504  0.23934  Biso   1.000  Cu
  O1       1.0000 0.82828  0.39380  0.65881  Biso   1.000  O
  O2       1.0000 0.17172  0.60620  0.34119  Biso   1.000  O
  O3       1.0000 0.87040  0.23022  0.52356  Biso   1.000  O
  O4       1.0000 0.12960  0.76978  0.47644  Biso   1.000  O
  O5       1.0000 0.86216  0.62072  0.38431  Biso   1.000  O
  O6       1.0000 0.13784  0.37928  0.61569  Biso   1.000  O
  O7       1.0000 0.68800  0.81088  0.46090  Biso   1.000  O
  O8       1.0000 0.31200  0.18912  0.53910  Biso   1.000  O
  O9       1.0000 0.82726  0.19069  0.89632  Biso   1.000  O
  O10      1.0000 0.17274  0.80931  0.10368  Biso   1.000  O
  O11      1.0000 0.89454  0.97793  0.81841  Biso   1.000  O
  O12      1.0000 0.10546  0.02207  0.18159  Biso   1.000  O
  O13      1.0000 0.85090  0.83847  0.13541  Biso   1.000  O
  O14      1.0000 0.14910  0.16153  0.86459  Biso   1.000  O
  O15      1.0000 0.76112  0.64902  0.10985  Biso   1.000  O
  O16      1.0000 0.23888  0.35098  0.89015  Biso   1.000  O
  O17      1.0000 0.94149  0.47204  0.87716  Biso   1.000  O
  O18      1.0000 0.05851  0.52796  0.12284  Biso   1.000  O
  H1       1.0000 0.02860  0.45820  0.89060  Biso   1.000  H
  H2       1.0000 0.97140  0.54180  0.10940  Biso   1.000  H
  H3       1.0000 0.91940  0.55750  0.83190  Biso   1.000  H
  H4       1.0000 0.08060  0.44250  0.16810  Biso   1.000  H
  O19      1.0000 0.61525  0.58506  0.81357  Biso   1.000  O
  O20      1.0000 0.38475  0.41494  0.18643  Biso   1.000  O
  H5       1.0000 0.66150  0.52210  0.76710  Biso   1.000  H
  H6       1.0000 0.33850  0.47790  0.23290  Biso   1.000  H
  H7       1.0000 0.65520  0.65870  0.78560  Biso   1.000  H
  H8       1.0000 0.34480  0.34130  0.21440  Biso   1.000  H
  O21      1.0000 0.84307  0.75538  0.71957  Biso   1.000  O
  O22      1.0000 0.15693  0.24462  0.28043  Biso   1.000  O
  H9       1.0000 0.83980  0.82880  0.75020  Biso   1.000  H
  H10      1.0000 0.16020  0.17120  0.24980  Biso   1.000  H
  H11      1.0000 0.85080  0.77800  0.63550  Biso   1.000  H
  H12      1.0000 0.14920  0.22200  0.36450  Biso   1.000  H
  N1       1.0000 0.81960  0.05301  0.35928  Biso   1.000  N
  N2       1.0000 0.18040  0.94699  0.64072  Biso   1.000  N
  N3       1.0000 0.69130  0.38240  0.08747  Biso   1.000  N
  N4       1.0000 0.30870  0.61760  0.91253  Biso   1.000  N
  H13      1.0000 0.55800  0.24000  0.57700  Biso   1.000  H
  H14      1.0000 0.44200  0.76000  0.42300  Biso   1.000  H
  H15      1.0000 0.53300  0.22800  0.84900  Biso   1.000  H
  H16      1.0000 0.46700  0.77200  0.15100  Biso   1.000  H
  H17      1.0000 0.71000  0.34000  0.01900  Biso   1.000  H
  H18      1.0000 0.29000  0.66000  0.98100  Biso   1.000  H
  H19      1.0000 0.78300  0.97700  0.40100  Biso   1.000  H
  H20      1.0000 0.21700  0.02300  0.59900  Biso   1.000  H
  H21      1.0000 0.61600  0.17200  0.31700  Biso   1.000  H
  H22      1.0000 0.38400  0.82800  0.68300  Biso   1.000  H
  H23      1.0000 0.71100  0.09800  0.20100  Biso   1.000  H
  H24      1.0000 0.28900  0.90200  0.79900  Biso   1.000  H
  H25      1.0000 0.90900  0.03000  0.31500  Biso   1.000  H
  H26      1.0000 0.09100  0.97000  0.68500  Biso   1.000  H
  H27      1.0000 0.83400  0.10000  0.41500  Biso   1.000  H
  H28      1.0000 0.16600  0.90000  0.58500  Biso   1.000  H
  H29      1.0000 0.58200  0.39900  0.12000  Biso   1.000  H
  H30      1.0000 0.41800  0.60100  0.88000  Biso   1.000  H
  H31      1.0000 0.87600  0.26800  0.15200  Biso   1.000  H
  H32      1.0000 0.12400  0.73200  0.84800  Biso   1.000  H
  H33      1.0000 0.77600  0.35400  0.25700  Biso   1.000  H
  H34      1.0000 0.22400  0.64600  0.74300  Biso   1.000  H
  H35      1.0000 0.71300  0.46800  0.05200  Biso   1.000  H
  H36      1.0000 0.28700  0.53200  0.94800  Biso   1.000  H
  C1       1.0000 0.64694  0.42790  0.52429  Biso   1.000  C
  C2       1.0000 0.35306  0.57210  0.47571  Biso   1.000  C
  C3       1.0000 0.61244  0.58413  0.47858  Biso   1.000  C
  C4       1.0000 0.38756  0.41587  0.52142  Biso   1.000  C
  C5       1.0000 0.53356  0.34628  0.54472  Biso   1.000  C
  C6       1.0000 0.46644  0.65372  0.45528  Biso   1.000  C
  C7       1.0000 0.79612  0.34382  0.56803  Biso   1.000  C
  C8       1.0000 0.20388  0.65618  0.43197  Biso   1.000  C
  C9       1.0000 0.73080  0.68090  0.44002  Biso   1.000  C
  C10      1.0000 0.26920  0.31910  0.55998  Biso   1.000  C
  C11      1.0000 0.64671  0.03331  0.95351  Biso   1.000  C
  C12      1.0000 0.35329  0.96669  0.04649  Biso   1.000  C
  C13      1.0000 0.62665  0.89663  0.04381  Biso   1.000  C
  C14      1.0000 0.37335  0.10337  0.95619  Biso   1.000  C
  C15      1.0000 0.51940  0.13567  0.91228  Biso   1.000  C
  C16      1.0000 0.48060  0.86433  0.08772  Biso   1.000  C
  C17      1.0000 0.80334  0.06731  0.88627  Biso   1.000  C
  C18      1.0000 0.19666  0.93269  0.11373  Biso   1.000  C
  C19      1.0000 0.75727  0.78410  0.09961  Biso   1.000  C
  C20      1.0000 0.24273  0.21590  0.90039  Biso   1.000  C
  C21      1.0000 0.71890  0.15110  0.26520  Biso   1.000  C
  C22      1.0000 0.28110  0.84890  0.73480  Biso   1.000  C
  C23      1.0000 0.78020  0.29270  0.19390  Biso   1.000  C
  C24      1.0000 0.21980  0.70730  0.80610  Biso   1.000  C
