data_image0
_cell_length_a       15.1065
_cell_length_b       11.8885
_cell_length_c       11.0631
_cell_angle_alpha    90
_cell_angle_beta     90
_cell_angle_gamma    90

_symmetry_space_group_name_H-M    "P 1"
_symmetry_int_tables_number       1

loop_
  _symmetry_equiv_pos_as_xyz
  'x, y, z'

loop_
  _atom_site_label
  _atom_site_occupancy
  _atom_site_fract_x
  _atom_site_fract_y
  _atom_site_fract_z
  _atom_site_thermal_displace_type
  _atom_site_B_iso_or_equiv
  _atom_site_type_symbol
  Cu1      1.0000 0.00115  0.26314  0.00486  Biso   1.000  Cu
  Cu2      1.0000 0.99885  0.73686  0.50486  Biso   1.000  Cu
  Cu3      1.0000 0.50115  0.23686  0.00486  Biso   1.000  Cu
  Cu4      1.0000 0.49885  0.76314  0.50486  Biso   1.000  Cu
  S1       1.0000 0.02501  0.69959  0.00697  Biso   1.000  S
  S2       1.0000 0.97499  0.30041  0.50697  Biso   1.000  S
  S3       1.0000 0.52501  0.80041  0.00697  Biso   1.000  S
  S4       1.0000 0.47499  0.19959  0.50697  Biso   1.000  S
  S5       1.0000 0.10899  0.84273  0.99162  Biso   1.000  S
  S6       1.0000 0.89101  0.15727  0.49162  Biso   1.000  S
  S7       1.0000 0.60899  0.65727  0.99162  Biso   1.000  S
  S8       1.0000 0.39101  0.34273  0.49162  Biso   1.000  S
  O1       1.0000 0.98790  0.40040  0.86310  Biso   1.000  O
  O2       1.0000 0.01210  0.59960  0.36310  Biso   1.000  O
  O3       1.0000 0.48790  0.09960  0.86310  Biso   1.000  O
  O4       1.0000 0.51210  0.90040  0.36310  Biso   1.000  O
  H1       1.0000 0.99500  0.37580  0.79090  Biso   1.000  H
  H2       1.0000 0.00500  0.62420  0.29090  Biso   1.000  H
  H3       1.0000 0.49500  0.12420  0.79090  Biso   1.000  H
  H4       1.0000 0.50500  0.87580  0.29090  Biso   1.000  H
  H5       1.0000 0.02290  0.45560  0.87510  Biso   1.000  H
  H6       1.0000 0.97710  0.54440  0.37510  Biso   1.000  H
  H7       1.0000 0.52290  0.04440  0.87510  Biso   1.000  H
  H8       1.0000 0.47710  0.95560  0.37510  Biso   1.000  H
  O5       1.0000 0.01120  0.12080  0.16030  Biso   1.000  O
  O6       1.0000 0.98880  0.87920  0.66030  Biso   1.000  O
  O7       1.0000 0.51120  0.37920  0.16030  Biso   1.000  O
  O8       1.0000 0.48880  0.62080  0.66030  Biso   1.000  O
  H9       1.0000 0.01740  0.05480  0.13140  Biso   1.000  H
  H10      1.0000 0.98260  0.94520  0.63140  Biso   1.000  H
  H11      1.0000 0.51740  0.44520  0.13140  Biso   1.000  H
  H12      1.0000 0.48260  0.55480  0.63140  Biso   1.000  H
  H13      1.0000 0.96690  0.12180  0.20830  Biso   1.000  H
  H14      1.0000 0.03310  0.87820  0.70830  Biso   1.000  H
  H15      1.0000 0.46690  0.37820  0.20830  Biso   1.000  H
  H16      1.0000 0.53310  0.62180  0.70830  Biso   1.000  H
  O9       1.0000 0.93610  0.74480  0.99770  Biso   1.000  O
  O10      1.0000 0.06390  0.25520  0.49770  Biso   1.000  O
  O11      1.0000 0.43610  0.75520  0.99770  Biso   1.000  O
  O12      1.0000 0.56390  0.24480  0.49770  Biso   1.000  O
  O13      1.0000 0.05020  0.62730  0.90750  Biso   1.000  O
  O14      1.0000 0.94980  0.37270  0.40750  Biso   1.000  O
  O15      1.0000 0.55020  0.87270  0.90750  Biso   1.000  O
  O16      1.0000 0.44980  0.12730  0.40750  Biso   1.000  O
  O17      1.0000 0.04720  0.65520  0.12550  Biso   1.000  O
  O18      1.0000 0.95280  0.34480  0.62550  Biso   1.000  O
  O19      1.0000 0.54720  0.84480  0.12550  Biso   1.000  O
  O20      1.0000 0.45280  0.15520  0.62550  Biso   1.000  O
  O21      1.0000 0.08820  0.89000  0.87430  Biso   1.000  O
  O22      1.0000 0.91180  0.11000  0.37430  Biso   1.000  O
  O23      1.0000 0.58820  0.61000  0.87430  Biso   1.000  O
  O24      1.0000 0.41180  0.39000  0.37430  Biso   1.000  O
  O25      1.0000 0.19930  0.80140  0.00340  Biso   1.000  O
  O26      1.0000 0.80070  0.19860  0.50340  Biso   1.000  O
  O27      1.0000 0.69930  0.69860  0.00340  Biso   1.000  O
  O28      1.0000 0.30070  0.30140  0.50340  Biso   1.000  O
  O29      1.0000 0.08080  0.91350  0.09180  Biso   1.000  O
  O30      1.0000 0.91920  0.08650  0.59180  Biso   1.000  O
  O31      1.0000 0.58080  0.58650  0.09180  Biso   1.000  O
  O32      1.0000 0.41920  0.41350  0.59180  Biso   1.000  O
  N1       1.0000 0.90860  0.16020  0.92310  Biso   1.000  N
  N2       1.0000 0.09140  0.83980  0.42310  Biso   1.000  N
  N3       1.0000 0.40860  0.33980  0.92310  Biso   1.000  N
  N4       1.0000 0.59140  0.66020  0.42310  Biso   1.000  N
  N5       1.0000 0.84410  0.21040  0.86070  Biso   1.000  N
  N6       1.0000 0.15590  0.78960  0.36070  Biso   1.000  N
  N7       1.0000 0.34410  0.28960  0.86070  Biso   1.000  N
  N8       1.0000 0.65590  0.71040  0.36070  Biso   1.000  N
  N9       1.0000 0.59440  0.84160  0.60540  Biso   1.000  N
  N10      1.0000 0.40560  0.15840  0.10540  Biso   1.000  N
  N11      1.0000 0.09440  0.65840  0.60540  Biso   1.000  N
  N12      1.0000 0.90560  0.34160  0.10540  Biso   1.000  N
  N13      1.0000 0.59150  0.95370  0.60380  Biso   1.000  N
  N14      1.0000 0.40850  0.04630  0.10380  Biso   1.000  N
  N15      1.0000 0.09150  0.54630  0.60380  Biso   1.000  N
  N16      1.0000 0.90850  0.45370  0.10380  Biso   1.000  N
  N17      1.0000 0.09540  0.35380  0.09570  Biso   1.000  N
  N18      1.0000 0.90460  0.64620  0.59570  Biso   1.000  N
  N19      1.0000 0.59540  0.14620  0.09570  Biso   1.000  N
  N20      1.0000 0.40460  0.85380  0.59570  Biso   1.000  N
  N21      1.0000 0.14370  0.42690  0.03260  Biso   1.000  N
  N22      1.0000 0.85630  0.57310  0.53260  Biso   1.000  N
  N23      1.0000 0.64370  0.07310  0.03260  Biso   1.000  N
  N24      1.0000 0.35630  0.92690  0.53260  Biso   1.000  N
  N25      1.0000 0.40460  0.68340  0.40430  Biso   1.000  N
  N26      1.0000 0.59540  0.31660  0.90430  Biso   1.000  N
  N27      1.0000 0.90460  0.81660  0.40430  Biso   1.000  N
  N28      1.0000 0.09540  0.18340  0.90430  Biso   1.000  N
  N29      1.0000 0.33350  0.64480  0.46250  Biso   1.000  N
  N30      1.0000 0.66650  0.35520  0.96250  Biso   1.000  N
  N31      1.0000 0.83350  0.85520  0.46250  Biso   1.000  N
  N32      1.0000 0.16650  0.14480  0.96250  Biso   1.000  N
  C1       1.0000 0.91460  0.04930  0.92540  Biso   1.000  C
  C2       1.0000 0.08540  0.95070  0.42540  Biso   1.000  C
  C3       1.0000 0.41460  0.45070  0.92540  Biso   1.000  C
  C4       1.0000 0.58540  0.54930  0.42540  Biso   1.000  C
  H17      1.0000 0.96260  0.01550  0.96910  Biso   1.000  H
  H18      1.0000 0.03740  0.98450  0.46910  Biso   1.000  H
  H19      1.0000 0.46260  0.48450  0.96910  Biso   1.000  H
  H20      1.0000 0.53740  0.51550  0.46910  Biso   1.000  H
  C5       1.0000 0.85410  0.97940  0.86690  Biso   1.000  C
  C6       1.0000 0.14590  0.02060  0.36690  Biso   1.000  C
  C7       1.0000 0.35410  0.52060  0.86690  Biso   1.000  C
  C8       1.0000 0.64590  0.47940  0.36690  Biso   1.000  C
  H21      1.0000 0.85930  0.89900  0.87200  Biso   1.000  H
  H22      1.0000 0.14070  0.10100  0.37200  Biso   1.000  H
  H23      1.0000 0.35930  0.60100  0.87200  Biso   1.000  H
  H24      1.0000 0.64070  0.39900  0.37200  Biso   1.000  H
  C9       1.0000 0.78650  0.02860  0.80140  Biso   1.000  C
  C10      1.0000 0.21350  0.97140  0.30140  Biso   1.000  C
  C11      1.0000 0.28650  0.47140  0.80140  Biso   1.000  C
  C12      1.0000 0.71350  0.52860  0.30140  Biso   1.000  C
  C13      1.0000 0.78610  0.14720  0.80150  Biso   1.000  C
  C14      1.0000 0.21390  0.85280  0.30150  Biso   1.000  C
  C15      1.0000 0.28610  0.35280  0.80150  Biso   1.000  C
  C16      1.0000 0.71390  0.64720  0.30150  Biso   1.000  C
  H25      1.0000 0.74080  0.18470  0.75580  Biso   1.000  H
  H26      1.0000 0.25920  0.81530  0.25580  Biso   1.000  H
  H27      1.0000 0.24080  0.31530  0.75580  Biso   1.000  H
  H28      1.0000 0.75920  0.68470  0.25580  Biso   1.000  H
  C17      1.0000 0.65490  0.78970  0.66960  Biso   1.000  C
  C18      1.0000 0.34510  0.21030  0.16960  Biso   1.000  C
  C19      1.0000 0.15490  0.71030  0.66960  Biso   1.000  C
  C20      1.0000 0.84510  0.28970  0.16960  Biso   1.000  C
  H29      1.0000 0.65560  0.70890  0.66980  Biso   1.000  H
  H30      1.0000 0.34440  0.29110  0.16980  Biso   1.000  H
  H31      1.0000 0.15560  0.79110  0.66980  Biso   1.000  H
  H32      1.0000 0.84440  0.20890  0.16980  Biso   1.000  H
  C21      1.0000 0.71760  0.84650  0.73700  Biso   1.000  C
  C22      1.0000 0.28240  0.15350  0.23700  Biso   1.000  C
  C23      1.0000 0.21760  0.65350  0.73700  Biso   1.000  C
  C24      1.0000 0.78240  0.34650  0.23700  Biso   1.000  C
  H33      1.0000 0.75960  0.80580  0.78520  Biso   1.000  H
  H34      1.0000 0.24040  0.19420  0.28520  Biso   1.000  H
  H35      1.0000 0.25960  0.69420  0.78520  Biso   1.000  H
  H36      1.0000 0.74040  0.30580  0.28520  Biso   1.000  H
  C25      1.0000 0.71900  0.96310  0.73420  Biso   1.000  C
  C26      1.0000 0.28100  0.03690  0.23420  Biso   1.000  C
  C27      1.0000 0.21900  0.53690  0.73420  Biso   1.000  C
  C28      1.0000 0.78100  0.46310  0.23420  Biso   1.000  C
  C29      1.0000 0.65280  0.01370  0.66510  Biso   1.000  C
  C30      1.0000 0.34720  0.98630  0.16510  Biso   1.000  C
  C31      1.0000 0.15280  0.48630  0.66510  Biso   1.000  C
  C32      1.0000 0.84720  0.51370  0.16510  Biso   1.000  C
  H37      1.0000 0.65070  0.09430  0.66090  Biso   1.000  H
  H38      1.0000 0.34930  0.90570  0.16090  Biso   1.000  H
  H39      1.0000 0.15070  0.40570  0.66090  Biso   1.000  H
  H40      1.0000 0.84930  0.59430  0.16090  Biso   1.000  H
  C33      1.0000 0.10300  0.34730  0.21550  Biso   1.000  C
  C34      1.0000 0.89700  0.65270  0.71550  Biso   1.000  C
  C35      1.0000 0.60300  0.15270  0.21550  Biso   1.000  C
  C36      1.0000 0.39700  0.84730  0.71550  Biso   1.000  C
  H41      1.0000 0.06560  0.29600  0.25880  Biso   1.000  H
  H42      1.0000 0.93440  0.70400  0.75880  Biso   1.000  H
  H43      1.0000 0.56560  0.20400  0.25880  Biso   1.000  H
  H44      1.0000 0.43440  0.79600  0.75880  Biso   1.000  H
  C37      1.0000 0.16350  0.41270  0.28030  Biso   1.000  C
  C38      1.0000 0.83650  0.58730  0.78030  Biso   1.000  C
  C39      1.0000 0.66350  0.08730  0.28030  Biso   1.000  C
  C40      1.0000 0.33650  0.91270  0.78030  Biso   1.000  C
  H45      1.0000 0.17020  0.40400  0.36610  Biso   1.000  H
  H46      1.0000 0.82980  0.59600  0.86610  Biso   1.000  H
  H47      1.0000 0.67020  0.09600  0.36610  Biso   1.000  H
  H48      1.0000 0.32980  0.90400  0.86610  Biso   1.000  H
  C41      1.0000 0.21400  0.49100  0.21630  Biso   1.000  C
  C42      1.0000 0.78600  0.50900  0.71630  Biso   1.000  C
  C43      1.0000 0.71400  0.00900  0.21630  Biso   1.000  C
  C44      1.0000 0.28600  0.99100  0.71630  Biso   1.000  C
  C45      1.0000 0.19850  0.49490  0.09150  Biso   1.000  C
  C46      1.0000 0.80150  0.50510  0.59150  Biso   1.000  C
  C47      1.0000 0.69850  0.00510  0.09150  Biso   1.000  C
  C48      1.0000 0.30150  0.99490  0.59150  Biso   1.000  C
  H49      1.0000 0.22960  0.55070  0.04530  Biso   1.000  H
  H50      1.0000 0.77040  0.44930  0.54530  Biso   1.000  H
  H51      1.0000 0.72960  0.94930  0.04530  Biso   1.000  H
  H52      1.0000 0.27040  0.05070  0.54530  Biso   1.000  H
  C49      1.0000 0.41320  0.66980  0.28570  Biso   1.000  C
  C50      1.0000 0.58680  0.33020  0.78570  Biso   1.000  C
  C51      1.0000 0.91320  0.83020  0.28570  Biso   1.000  C
  C52      1.0000 0.08680  0.16980  0.78570  Biso   1.000  C
  H53      1.0000 0.46320  0.70260  0.24540  Biso   1.000  H
  H54      1.0000 0.53680  0.29740  0.74540  Biso   1.000  H
  H55      1.0000 0.96320  0.79740  0.24540  Biso   1.000  H
  H56      1.0000 0.03680  0.20260  0.74540  Biso   1.000  H
  C53      1.0000 0.35180  0.60930  0.21810  Biso   1.000  C
  C54      1.0000 0.64820  0.39070  0.71810  Biso   1.000  C
  C55      1.0000 0.85180  0.89070  0.21810  Biso   1.000  C
  C56      1.0000 0.14820  0.10930  0.71810  Biso   1.000  C
  H57      1.0000 0.35930  0.59980  0.13250  Biso   1.000  H
  H58      1.0000 0.64070  0.40020  0.63250  Biso   1.000  H
  H59      1.0000 0.85930  0.90020  0.13250  Biso   1.000  H
  H60      1.0000 0.14070  0.09980  0.63250  Biso   1.000  H
  C57      1.0000 0.28010  0.56340  0.27700  Biso   1.000  C
  C58      1.0000 0.71990  0.43660  0.77700  Biso   1.000  C
  C59      1.0000 0.78010  0.93660  0.27700  Biso   1.000  C
  C60      1.0000 0.21990  0.06340  0.77700  Biso   1.000  C
  C61      1.0000 0.27360  0.58690  0.40100  Biso   1.000  C
  C62      1.0000 0.72640  0.41310  0.90100  Biso   1.000  C
  C63      1.0000 0.77360  0.91310  0.40100  Biso   1.000  C
  C64      1.0000 0.22640  0.08690  0.90100  Biso   1.000  C
  H61      1.0000 0.22280  0.55930  0.44380  Biso   1.000  H
  H62      1.0000 0.77720  0.44070  0.94380  Biso   1.000  H
  H63      1.0000 0.72280  0.94070  0.44380  Biso   1.000  H
  H64      1.0000 0.27720  0.05930  0.94380  Biso   1.000  H
