data_image0
_cell_length_a       7.4144
_cell_length_b       8.2275
_cell_length_c       10.9023
_cell_angle_alpha    76.965
_cell_angle_beta     82.505
_cell_angle_gamma    63.267

_symmetry_space_group_name_H-M    "P 1"
_symmetry_int_tables_number       1

loop_
  _symmetry_equiv_pos_as_xyz
  'x, y, z'

loop_
  _atom_site_label
  _atom_site_occupancy
  _atom_site_fract_x
  _atom_site_fract_y
  _atom_site_fract_z
  _atom_site_thermal_displace_type
  _atom_site_B_iso_or_equiv
  _atom_site_type_symbol
  Cu1      1.0000 0.07768  0.49990  0.10176  Biso   1.000  Cu
  Cu2      1.0000 0.92232  0.50010  0.89824  Biso   1.000  Cu
  O1       1.0000 0.02540  0.28210  0.18107  Biso   1.000  O
  O2       1.0000 0.97460  0.71790  0.81893  Biso   1.000  O
  O3       1.0000 0.89540  0.28410  0.00717  Biso   1.000  O
  O4       1.0000 0.10460  0.71590  0.99283  Biso   1.000  O
  O5       1.0000 0.80220  0.66310  0.15231  Biso   1.000  O
  O6       1.0000 0.19780  0.33690  0.84769  Biso   1.000  O
  O7       1.0000 0.67170  0.66660  0.97753  Biso   1.000  O
  O8       1.0000 0.32830  0.33340  0.02247  Biso   1.000  O
  O9       1.0000 0.65320  0.84300  0.38480  Biso   1.000  O
  O10      1.0000 0.34680  0.15700  0.61520  Biso   1.000  O
  H1       1.0000 0.71350  0.84690  0.44520  Biso   1.000  H
  H2       1.0000 0.28650  0.15310  0.55480  Biso   1.000  H
  H3       1.0000 0.74510  0.79500  0.32990  Biso   1.000  H
  H4       1.0000 0.25490  0.20500  0.67010  Biso   1.000  H
  O11      1.0000 0.76220  0.94510  0.58420  Biso   1.000  O
  O12      1.0000 0.23780  0.05490  0.41580  Biso   1.000  O
  H5       1.0000 0.63470  0.00150  0.59690  Biso   1.000  H
  H6       1.0000 0.36530  0.99850  0.40310  Biso   1.000  H
  H7       1.0000 0.80930  0.85750  0.64780  Biso   1.000  H
  H8       1.0000 0.19070  0.14250  0.35220  Biso   1.000  H
  N1       1.0000 0.23870  0.49300  0.25782  Biso   1.000  N
  N2       1.0000 0.76130  0.50700  0.74218  Biso   1.000  N
  N3       1.0000 0.13770  0.58060  0.35010  Biso   1.000  N
  N4       1.0000 0.86230  0.41940  0.64990  Biso   1.000  N
  C1       1.0000 0.43670  0.41300  0.25710  Biso   1.000  C
  C2       1.0000 0.56330  0.58700  0.74290  Biso   1.000  C
  H9       1.0000 0.50680  0.35450  0.18930  Biso   1.000  H
  H10      1.0000 0.49320  0.64550  0.81070  Biso   1.000  H
  C3       1.0000 0.54860  0.40980  0.35100  Biso   1.000  C
  C4       1.0000 0.45140  0.59020  0.64900  Biso   1.000  C
  H11      1.0000 0.69050  0.34880  0.34750  Biso   1.000  H
  H12      1.0000 0.30950  0.65120  0.65250  Biso   1.000  H
  C5       1.0000 0.44840  0.49660  0.44769  Biso   1.000  C
  C6       1.0000 0.55160  0.50340  0.55231  Biso   1.000  C
  C7       1.0000 0.23950  0.58240  0.44050  Biso   1.000  C
  C8       1.0000 0.76050  0.41760  0.55950  Biso   1.000  C
  H13      1.0000 0.16450  0.64680  0.50490  Biso   1.000  H
  H14      1.0000 0.83550  0.35320  0.49510  Biso   1.000  H
  C9       1.0000 0.94820  0.21790  0.11929  Biso   1.000  C
  C10      1.0000 0.05180  0.78210  0.88071  Biso   1.000  C
  C11      1.0000 0.91770  0.04950  0.18390  Biso   1.000  C
  C12      1.0000 0.08230  0.95050  0.81610  Biso   1.000  C
  H15      1.0000 0.98610  0.95220  0.13490  Biso   1.000  H
  H16      1.0000 0.01390  0.04780  0.86510  Biso   1.000  H
  H17      1.0000 0.77440  0.08120  0.19110  Biso   1.000  H
  H18      1.0000 0.22560  0.91880  0.80890  Biso   1.000  H
  H19      1.0000 0.97290  0.00670  0.26720  Biso   1.000  H
  H20      1.0000 0.02710  0.99330  0.73280  Biso   1.000  H
  C13      1.0000 0.65740  0.71410  0.08128  Biso   1.000  C
  C14      1.0000 0.34260  0.28590  0.91872  Biso   1.000  C
  C15      1.0000 0.45020  0.84200  0.12480  Biso   1.000  C
  C16      1.0000 0.54980  0.15800  0.87520  Biso   1.000  C
  H21      1.0000 0.35300  0.87250  0.06190  Biso   1.000  H
  H22      1.0000 0.64700  0.12750  0.93810  Biso   1.000  H
  H23      1.0000 0.45190  0.95460  0.13670  Biso   1.000  H
  H24      1.0000 0.54810  0.04540  0.86330  Biso   1.000  H
  H25      1.0000 0.41230  0.78110  0.20390  Biso   1.000  H
  H26      1.0000 0.58770  0.21890  0.79610  Biso   1.000  H
