data_image0
_cell_length_a       10.494
_cell_length_b       10.9798
_cell_length_c       18.3058
_cell_angle_alpha    90
_cell_angle_beta     98.572
_cell_angle_gamma    90

_symmetry_space_group_name_H-M    "P 1"
_symmetry_int_tables_number       1

loop_
  _symmetry_equiv_pos_as_xyz
  'x, y, z'

loop_
  _atom_site_label
  _atom_site_occupancy
  _atom_site_fract_x
  _atom_site_fract_y
  _atom_site_fract_z
  _atom_site_thermal_displace_type
  _atom_site_B_iso_or_equiv
  _atom_site_type_symbol
  Cu1      1.0000 0.74529  0.84205  0.18877  Biso   1.000  Cu
  Cu2      1.0000 0.25471  0.34205  0.31123  Biso   1.000  Cu
  Cu3      1.0000 0.25471  0.15795  0.81123  Biso   1.000  Cu
  Cu4      1.0000 0.74529  0.65795  0.68877  Biso   1.000  Cu
  O1       1.0000 0.63380  0.83490  0.09447  Biso   1.000  O
  O2       1.0000 0.36620  0.33490  0.40553  Biso   1.000  O
  O3       1.0000 0.36620  0.16510  0.90553  Biso   1.000  O
  O4       1.0000 0.63380  0.66510  0.59447  Biso   1.000  O
  O5       1.0000 0.44190  0.85790  0.13207  Biso   1.000  O
  O6       1.0000 0.55810  0.35790  0.36793  Biso   1.000  O
  O7       1.0000 0.55810  0.14210  0.86793  Biso   1.000  O
  O8       1.0000 0.44190  0.64210  0.63207  Biso   1.000  O
  O9       1.0000 0.85321  0.84680  0.28777  Biso   1.000  O
  O10      1.0000 0.14679  0.34680  0.21223  Biso   1.000  O
  O11      1.0000 0.14679  0.15320  0.71223  Biso   1.000  O
  O12      1.0000 0.85321  0.65320  0.78777  Biso   1.000  O
  O13      1.0000 0.66262  0.86120  0.32690  Biso   1.000  O
  O14      1.0000 0.33738  0.36120  0.17310  Biso   1.000  O
  O15      1.0000 0.33738  0.13880  0.67310  Biso   1.000  O
  O16      1.0000 0.66262  0.63880  0.82690  Biso   1.000  O
  N1       1.0000 0.91850  0.84510  0.12320  Biso   1.000  N
  N2       1.0000 0.08150  0.34510  0.37680  Biso   1.000  N
  N3       1.0000 0.08150  0.15490  0.87680  Biso   1.000  N
  N4       1.0000 0.91850  0.65490  0.62320  Biso   1.000  N
  N5       1.0000 0.03390  0.80070  0.15184  Biso   1.000  N
  N6       1.0000 0.96610  0.30070  0.34816  Biso   1.000  N
  N7       1.0000 0.96610  0.19930  0.84816  Biso   1.000  N
  N8       1.0000 0.03390  0.69930  0.65184  Biso   1.000  N
  N9       1.0000 0.73056  0.02590  0.19248  Biso   1.000  N
  N10      1.0000 0.26944  0.52590  0.30752  Biso   1.000  N
  N11      1.0000 0.26944  0.97410  0.80752  Biso   1.000  N
  N12      1.0000 0.73056  0.47410  0.69248  Biso   1.000  N
  N13      1.0000 0.83910  0.08640  0.18443  Biso   1.000  N
  N14      1.0000 0.16090  0.58640  0.31557  Biso   1.000  N
  N15      1.0000 0.16090  0.91360  0.81557  Biso   1.000  N
  N16      1.0000 0.83910  0.41360  0.68443  Biso   1.000  N
  N17      1.0000 0.73936  0.65940  0.19436  Biso   1.000  N
  N18      1.0000 0.26064  0.15940  0.30564  Biso   1.000  N
  N19      1.0000 0.26064  0.34060  0.80564  Biso   1.000  N
  N20      1.0000 0.73936  0.84060  0.69436  Biso   1.000  N
  N21      1.0000 0.62510  0.60270  0.18048  Biso   1.000  N
  N22      1.0000 0.37490  0.10270  0.31952  Biso   1.000  N
  N23      1.0000 0.37490  0.39730  0.81952  Biso   1.000  N
  N24      1.0000 0.62510  0.89730  0.68048  Biso   1.000  N
  C1       1.0000 0.13480  0.83400  0.12089  Biso   1.000  C
  C2       1.0000 0.86520  0.33400  0.37911  Biso   1.000  C
  C3       1.0000 0.86520  0.16600  0.87911  Biso   1.000  C
  C4       1.0000 0.13480  0.66600  0.62089  Biso   1.000  C
  H1       1.0000 0.21760  0.80120  0.14060  Biso   1.000  H
  H2       1.0000 0.78240  0.30120  0.35940  Biso   1.000  H
  H3       1.0000 0.78240  0.19880  0.85940  Biso   1.000  H
  H4       1.0000 0.21760  0.69880  0.64060  Biso   1.000  H
  C5       1.0000 0.12760  0.91300  0.06225  Biso   1.000  C
  C6       1.0000 0.87240  0.41300  0.43775  Biso   1.000  C
  C7       1.0000 0.87240  0.08700  0.93775  Biso   1.000  C
  C8       1.0000 0.12760  0.58700  0.56225  Biso   1.000  C
  H5       1.0000 0.20420  0.93660  0.04300  Biso   1.000  H
  H6       1.0000 0.79580  0.43660  0.45700  Biso   1.000  H
  H7       1.0000 0.79580  0.06340  0.95700  Biso   1.000  H
  H8       1.0000 0.20420  0.56340  0.54300  Biso   1.000  H
  C9       1.0000 0.00960  0.95760  0.03151  Biso   1.000  C
  C10      1.0000 0.99040  0.45760  0.46849  Biso   1.000  C
  C11      1.0000 0.99040  0.04240  0.96849  Biso   1.000  C
  C12      1.0000 0.00960  0.54240  0.53151  Biso   1.000  C
  C13      1.0000 0.90690  0.91710  0.06539  Biso   1.000  C
  C14      1.0000 0.09310  0.41710  0.43461  Biso   1.000  C
  C15      1.0000 0.09310  0.08290  0.93461  Biso   1.000  C
  C16      1.0000 0.90690  0.58290  0.56539  Biso   1.000  C
  H9       1.0000 0.82190  0.94370  0.04500  Biso   1.000  H
  H10      1.0000 0.17810  0.44370  0.45500  Biso   1.000  H
  H11      1.0000 0.17810  0.05630  0.95500  Biso   1.000  H
  H12      1.0000 0.82190  0.55630  0.54500  Biso   1.000  H
  C17      1.0000 0.62520  0.08550  0.20212  Biso   1.000  C
  C18      1.0000 0.37480  0.58550  0.29788  Biso   1.000  C
  C19      1.0000 0.37480  0.91450  0.79788  Biso   1.000  C
  C20      1.0000 0.62520  0.41450  0.70212  Biso   1.000  C
  H13      1.0000 0.54960  0.03950  0.20790  Biso   1.000  H
  H14      1.0000 0.45040  0.53950  0.29210  Biso   1.000  H
  H15      1.0000 0.45040  0.96050  0.79210  Biso   1.000  H
  H16      1.0000 0.54960  0.46050  0.70790  Biso   1.000  H
  C21      1.0000 0.61900  0.21160  0.20423  Biso   1.000  C
  C22      1.0000 0.38100  0.71160  0.29577  Biso   1.000  C
  C23      1.0000 0.38100  0.78840  0.79577  Biso   1.000  C
  C24      1.0000 0.61900  0.28840  0.70423  Biso   1.000  C
  H17      1.0000 0.54160  0.25250  0.21260  Biso   1.000  H
  H18      1.0000 0.45840  0.75250  0.28740  Biso   1.000  H
  H19      1.0000 0.45840  0.74750  0.78740  Biso   1.000  H
  H20      1.0000 0.54160  0.24750  0.71260  Biso   1.000  H
  C25      1.0000 0.72730  0.27620  0.19395  Biso   1.000  C
  C26      1.0000 0.27270  0.77620  0.30605  Biso   1.000  C
  C27      1.0000 0.27270  0.72380  0.80605  Biso   1.000  C
  C28      1.0000 0.72730  0.22380  0.69395  Biso   1.000  C
  C29      1.0000 0.83510  0.20530  0.18463  Biso   1.000  C
  C30      1.0000 0.16490  0.70530  0.31537  Biso   1.000  C
  C31      1.0000 0.16490  0.79470  0.81537  Biso   1.000  C
  C32      1.0000 0.83510  0.29470  0.68463  Biso   1.000  C
  H21      1.0000 0.91240  0.24790  0.17780  Biso   1.000  H
  H22      1.0000 0.08760  0.74790  0.32220  Biso   1.000  H
  H23      1.0000 0.08760  0.75210  0.82220  Biso   1.000  H
  H24      1.0000 0.91240  0.25210  0.67780  Biso   1.000  H
  C33      1.0000 0.84800  0.59610  0.20701  Biso   1.000  C
  C34      1.0000 0.15200  0.09610  0.29299  Biso   1.000  C
  C35      1.0000 0.15200  0.40390  0.79299  Biso   1.000  C
  C36      1.0000 0.84800  0.90390  0.70701  Biso   1.000  C
  H25      1.0000 0.92820  0.63940  0.21660  Biso   1.000  H
  H26      1.0000 0.07180  0.13940  0.28340  Biso   1.000  H
  H27      1.0000 0.07180  0.36060  0.78340  Biso   1.000  H
  H28      1.0000 0.92820  0.86060  0.71660  Biso   1.000  H
  C37      1.0000 0.85010  0.47120  0.20687  Biso   1.000  C
  C38      1.0000 0.14990  0.97120  0.29313  Biso   1.000  C
  C39      1.0000 0.14990  0.52880  0.79313  Biso   1.000  C
  C40      1.0000 0.85010  0.02880  0.70687  Biso   1.000  C
  H29      1.0000 0.93030  0.42780  0.21560  Biso   1.000  H
  H30      1.0000 0.06970  0.92780  0.28440  Biso   1.000  H
  H31      1.0000 0.06970  0.57220  0.78440  Biso   1.000  H
  H32      1.0000 0.93030  0.07220  0.71560  Biso   1.000  H
  C41      1.0000 0.73460  0.40920  0.19395  Biso   1.000  C
  C42      1.0000 0.26540  0.90920  0.30605  Biso   1.000  C
  C43      1.0000 0.26540  0.59080  0.80605  Biso   1.000  C
  C44      1.0000 0.73460  0.09080  0.69395  Biso   1.000  C
  C45      1.0000 0.62410  0.48260  0.18011  Biso   1.000  C
  C46      1.0000 0.37590  0.98260  0.31989  Biso   1.000  C
  C47      1.0000 0.37590  0.51740  0.81989  Biso   1.000  C
  C48      1.0000 0.62410  0.01740  0.68011  Biso   1.000  C
  H33      1.0000 0.54200  0.44260  0.16970  Biso   1.000  H
  H34      1.0000 0.45800  0.94260  0.33030  Biso   1.000  H
  H35      1.0000 0.45800  0.55740  0.83030  Biso   1.000  H
  H36      1.0000 0.54200  0.05740  0.66970  Biso   1.000  H
  C49      1.0000 0.51300  0.83190  0.08798  Biso   1.000  C
  C50      1.0000 0.48700  0.33190  0.41202  Biso   1.000  C
  C51      1.0000 0.48700  0.16810  0.91202  Biso   1.000  C
  C52      1.0000 0.51300  0.66810  0.58798  Biso   1.000  C
  C53      1.0000 0.45140  0.79250  0.00990  Biso   1.000  C
  C54      1.0000 0.54860  0.29250  0.49010  Biso   1.000  C
  C55      1.0000 0.54860  0.20750  0.99010  Biso   1.000  C
  C56      1.0000 0.45140  0.70750  0.50990  Biso   1.000  C
  C57      1.0000 0.78010  0.85920  0.33641  Biso   1.000  C
  C58      1.0000 0.21990  0.35920  0.16359  Biso   1.000  C
  C59      1.0000 0.21990  0.14080  0.66359  Biso   1.000  C
  C60      1.0000 0.78010  0.64080  0.83641  Biso   1.000  C
  C61      1.0000 0.85300  0.87550  0.41400  Biso   1.000  C
  C62      1.0000 0.14700  0.37550  0.08600  Biso   1.000  C
  C63      1.0000 0.14700  0.12450  0.58600  Biso   1.000  C
  C64      1.0000 0.85300  0.62450  0.91400  Biso   1.000  C
  F1       1.0000 0.38450  0.88540  0.97550  Biso   1.000  F
  F2       1.0000 0.61550  0.38540  0.52450  Biso   1.000  F
  F3       1.0000 0.61550  0.11460  0.02450  Biso   1.000  F
  F4       1.0000 0.38450  0.61460  0.47550  Biso   1.000  F
  F5       1.0000 0.35480  0.71200  0.01720  Biso   1.000  F
  F6       1.0000 0.64520  0.21200  0.48280  Biso   1.000  F
  F7       1.0000 0.64520  0.28800  0.98280  Biso   1.000  F
  F8       1.0000 0.35480  0.78800  0.51720  Biso   1.000  F
  F9       1.0000 0.52170  0.74630  0.96780  Biso   1.000  F
  F10      1.0000 0.47830  0.24630  0.53220  Biso   1.000  F
  F11      1.0000 0.47830  0.25370  0.03220  Biso   1.000  F
  F12      1.0000 0.52170  0.75370  0.46780  Biso   1.000  F
  F13      1.0000 0.32960  0.79000  0.99580  Biso   1.000  F
  F14      1.0000 0.67040  0.29000  0.50420  Biso   1.000  F
  F15      1.0000 0.67040  0.21000  0.00420  Biso   1.000  F
  F16      1.0000 0.32960  0.71000  0.49580  Biso   1.000  F
  F17      1.0000 0.49850  0.68550  0.99810  Biso   1.000  F
  F18      1.0000 0.50150  0.18550  0.50190  Biso   1.000  F
  F19      1.0000 0.50150  0.31450  0.00190  Biso   1.000  F
  F20      1.0000 0.49850  0.81450  0.49810  Biso   1.000  F
  F21      1.0000 0.50000  0.86670  0.96110  Biso   1.000  F
  F22      1.0000 0.50000  0.36670  0.53890  Biso   1.000  F
  F23      1.0000 0.50000  0.13330  0.03890  Biso   1.000  F
  F24      1.0000 0.50000  0.63330  0.46110  Biso   1.000  F
  F25      1.0000 0.78650  0.84000  0.46460  Biso   1.000  F
  F26      1.0000 0.21350  0.34000  0.03540  Biso   1.000  F
  F27      1.0000 0.21350  0.16000  0.53540  Biso   1.000  F
  F28      1.0000 0.78650  0.66000  0.96460  Biso   1.000  F
  F29      1.0000 0.96250  0.82100  0.42840  Biso   1.000  F
  F30      1.0000 0.03750  0.32100  0.07160  Biso   1.000  F
  F31      1.0000 0.03750  0.17900  0.57160  Biso   1.000  F
  F32      1.0000 0.96250  0.67900  0.92840  Biso   1.000  F
  F33      1.0000 0.87530  0.99580  0.42300  Biso   1.000  F
  F34      1.0000 0.12470  0.49580  0.07700  Biso   1.000  F
  F35      1.0000 0.12470  0.00420  0.57700  Biso   1.000  F
  F36      1.0000 0.87530  0.50420  0.92300  Biso   1.000  F
  F37      1.0000 0.78220  0.91580  0.46020  Biso   1.000  F
  F38      1.0000 0.21780  0.41580  0.03980  Biso   1.000  F
  F39      1.0000 0.21780  0.08420  0.53980  Biso   1.000  F
  F40      1.0000 0.78220  0.58420  0.96020  Biso   1.000  F
  F41      1.0000 0.89000  0.76210  0.43520  Biso   1.000  F
  F42      1.0000 0.11000  0.26210  0.06480  Biso   1.000  F
  F43      1.0000 0.11000  0.23790  0.56480  Biso   1.000  F
  F44      1.0000 0.89000  0.73790  0.93520  Biso   1.000  F
  F45      1.0000 0.95530  0.94100  0.41790  Biso   1.000  F
  F46      1.0000 0.04470  0.44100  0.08210  Biso   1.000  F
  F47      1.0000 0.04470  0.05900  0.58210  Biso   1.000  F
  F48      1.0000 0.95530  0.55900  0.91790  Biso   1.000  F
