data_image0
_cell_length_a       15.4234
_cell_length_b       15.7761
_cell_length_c       19.1034
_cell_angle_alpha    90
_cell_angle_beta     108.591
_cell_angle_gamma    90

_symmetry_space_group_name_H-M    "P 1"
_symmetry_int_tables_number       1

loop_
  _symmetry_equiv_pos_as_xyz
  'x, y, z'

loop_
  _atom_site_label
  _atom_site_occupancy
  _atom_site_fract_x
  _atom_site_fract_y
  _atom_site_fract_z
  _atom_site_thermal_displace_type
  _atom_site_B_iso_or_equiv
  _atom_site_type_symbol
  Cu1      1.0000 0.25000  0.25000  0.50000  Biso   1.000  Cu
  Cu2      1.0000 0.75000  0.75000  0.50000  Biso   1.000  Cu
  Cu3      1.0000 0.75000  0.25000  0.00000  Biso   1.000  Cu
  Cu4      1.0000 0.25000  0.75000  0.00000  Biso   1.000  Cu
  Cu5      1.0000 0.09598  0.29100  0.57719  Biso   1.000  Cu
  Cu6      1.0000 0.59598  0.79100  0.57719  Biso   1.000  Cu
  Cu7      1.0000 0.90402  0.29100  0.92281  Biso   1.000  Cu
  Cu8      1.0000 0.40402  0.79100  0.92281  Biso   1.000  Cu
  Cu9      1.0000 0.90402  0.70900  0.42281  Biso   1.000  Cu
  Cu10     1.0000 0.40402  0.20900  0.42281  Biso   1.000  Cu
  Cu11     1.0000 0.09598  0.70900  0.07719  Biso   1.000  Cu
  Cu12     1.0000 0.59598  0.20900  0.07719  Biso   1.000  Cu
  O1       1.0000 0.18438  0.21623  0.56348  Biso   1.000  O
  O2       1.0000 0.68438  0.71623  0.56348  Biso   1.000  O
  O3       1.0000 0.81562  0.21623  0.93652  Biso   1.000  O
  O4       1.0000 0.31562  0.71623  0.93652  Biso   1.000  O
  O5       1.0000 0.81562  0.78377  0.43652  Biso   1.000  O
  O6       1.0000 0.31562  0.28377  0.43652  Biso   1.000  O
  O7       1.0000 0.18438  0.78377  0.06348  Biso   1.000  O
  O8       1.0000 0.68438  0.28377  0.06348  Biso   1.000  O
  H1       1.0000 0.18470  0.16850  0.58010  Biso   1.000  H
  H2       1.0000 0.68470  0.66850  0.58010  Biso   1.000  H
  H3       1.0000 0.81530  0.16850  0.91990  Biso   1.000  H
  H4       1.0000 0.31530  0.66850  0.91990  Biso   1.000  H
  H5       1.0000 0.81530  0.83150  0.41990  Biso   1.000  H
  H6       1.0000 0.31530  0.33150  0.41990  Biso   1.000  H
  H7       1.0000 0.18470  0.83150  0.08010  Biso   1.000  H
  H8       1.0000 0.68470  0.33150  0.08010  Biso   1.000  H
  O9       1.0000 0.01880  0.37492  0.60422  Biso   1.000  O
  O10      1.0000 0.51880  0.87492  0.60422  Biso   1.000  O
  O11      1.0000 0.98120  0.37492  0.89578  Biso   1.000  O
  O12      1.0000 0.48120  0.87492  0.89578  Biso   1.000  O
  O13      1.0000 0.98120  0.62508  0.39578  Biso   1.000  O
  O14      1.0000 0.48120  0.12508  0.39578  Biso   1.000  O
  O15      1.0000 0.01880  0.62508  0.10422  Biso   1.000  O
  O16      1.0000 0.51880  0.12508  0.10422  Biso   1.000  O
  O17      1.0000 0.87680  0.34680  0.53103  Biso   1.000  O
  O18      1.0000 0.37680  0.84680  0.53103  Biso   1.000  O
  O19      1.0000 0.12320  0.34680  0.96897  Biso   1.000  O
  O20      1.0000 0.62320  0.84680  0.96897  Biso   1.000  O
  O21      1.0000 0.12320  0.65320  0.46897  Biso   1.000  O
  O22      1.0000 0.62320  0.15320  0.46897  Biso   1.000  O
  O23      1.0000 0.87680  0.65320  0.03103  Biso   1.000  O
  O24      1.0000 0.37680  0.15320  0.03103  Biso   1.000  O
  O25      1.0000 0.65780  0.55288  0.61085  Biso   1.000  O
  O26      1.0000 0.15780  0.05288  0.61085  Biso   1.000  O
  O27      1.0000 0.34220  0.55288  0.88915  Biso   1.000  O
  O28      1.0000 0.84220  0.05288  0.88915  Biso   1.000  O
  O29      1.0000 0.34220  0.44712  0.38915  Biso   1.000  O
  O30      1.0000 0.84220  0.94712  0.38915  Biso   1.000  O
  O31      1.0000 0.65780  0.44712  0.11085  Biso   1.000  O
  O32      1.0000 0.15780  0.94712  0.11085  Biso   1.000  O
  O33      1.0000 0.69460  0.58890  0.72965  Biso   1.000  O
  O34      1.0000 0.19460  0.08890  0.72965  Biso   1.000  O
  O35      1.0000 0.30540  0.58890  0.77035  Biso   1.000  O
  O36      1.0000 0.80540  0.08890  0.77035  Biso   1.000  O
  O37      1.0000 0.30540  0.41110  0.27035  Biso   1.000  O
  O38      1.0000 0.80540  0.91110  0.27035  Biso   1.000  O
  O39      1.0000 0.69460  0.41110  0.22965  Biso   1.000  O
  O40      1.0000 0.19460  0.91110  0.22965  Biso   1.000  O
  O41      1.0000 0.18500  0.26260  0.71980  Biso   1.000  O
  O42      1.0000 0.68500  0.76260  0.71980  Biso   1.000  O
  O43      1.0000 0.81500  0.26260  0.78020  Biso   1.000  O
  O44      1.0000 0.31500  0.76260  0.78020  Biso   1.000  O
  O45      1.0000 0.81500  0.73740  0.28020  Biso   1.000  O
  O46      1.0000 0.31500  0.23740  0.28020  Biso   1.000  O
  O47      1.0000 0.18500  0.73740  0.21980  Biso   1.000  O
  O48      1.0000 0.68500  0.23740  0.21980  Biso   1.000  O
  H9       1.0000 0.18140  0.26410  0.76280  Biso   1.000  H
  H10      1.0000 0.68140  0.76410  0.76280  Biso   1.000  H
  H11      1.0000 0.81860  0.26410  0.73720  Biso   1.000  H
  H12      1.0000 0.31860  0.76410  0.73720  Biso   1.000  H
  H13      1.0000 0.81860  0.73590  0.23720  Biso   1.000  H
  H14      1.0000 0.31860  0.23590  0.23720  Biso   1.000  H
  H15      1.0000 0.18140  0.73590  0.26280  Biso   1.000  H
  H16      1.0000 0.68140  0.23590  0.26280  Biso   1.000  H
  H17      1.0000 0.20050  0.21230  0.71170  Biso   1.000  H
  H18      1.0000 0.70050  0.71230  0.71170  Biso   1.000  H
  H19      1.0000 0.79950  0.21230  0.78830  Biso   1.000  H
  H20      1.0000 0.29950  0.71230  0.78830  Biso   1.000  H
  H21      1.0000 0.79950  0.78770  0.28830  Biso   1.000  H
  H22      1.0000 0.29950  0.28770  0.28830  Biso   1.000  H
  H23      1.0000 0.20050  0.78770  0.21170  Biso   1.000  H
  H24      1.0000 0.70050  0.28770  0.21170  Biso   1.000  H
  O49      1.0000 0.75940  0.25140  0.41090  Biso   1.000  O
  O50      1.0000 0.25940  0.75140  0.41090  Biso   1.000  O
  O51      1.0000 0.24060  0.25140  0.08910  Biso   1.000  O
  O52      1.0000 0.74060  0.75140  0.08910  Biso   1.000  O
  O53      1.0000 0.24060  0.74860  0.58910  Biso   1.000  O
  O54      1.0000 0.74060  0.24860  0.58910  Biso   1.000  O
  O55      1.0000 0.75940  0.74860  0.91090  Biso   1.000  O
  O56      1.0000 0.25940  0.24860  0.91090  Biso   1.000  O
  H25      1.0000 0.79410  0.28000  0.44690  Biso   1.000  H
  H26      1.0000 0.29410  0.78000  0.44690  Biso   1.000  H
  H27      1.0000 0.20590  0.28000  0.05310  Biso   1.000  H
  H28      1.0000 0.70590  0.78000  0.05310  Biso   1.000  H
  H29      1.0000 0.20590  0.72000  0.55310  Biso   1.000  H
  H30      1.0000 0.70590  0.22000  0.55310  Biso   1.000  H
  H31      1.0000 0.79410  0.72000  0.94690  Biso   1.000  H
  H32      1.0000 0.29410  0.22000  0.94690  Biso   1.000  H
  H33      1.0000 0.72150  0.22420  0.42710  Biso   1.000  H
  H34      1.0000 0.22150  0.72420  0.42710  Biso   1.000  H
  H35      1.0000 0.27850  0.22420  0.07290  Biso   1.000  H
  H36      1.0000 0.77850  0.72420  0.07290  Biso   1.000  H
  H37      1.0000 0.27850  0.77580  0.57290  Biso   1.000  H
  H38      1.0000 0.77850  0.27580  0.57290  Biso   1.000  H
  H39      1.0000 0.72150  0.77580  0.92710  Biso   1.000  H
  H40      1.0000 0.22150  0.27580  0.92710  Biso   1.000  H
  N1       1.0000 0.39150  0.21530  0.58598  Biso   1.000  N
  N2       1.0000 0.89150  0.71530  0.58598  Biso   1.000  N
  N3       1.0000 0.60850  0.21530  0.91402  Biso   1.000  N
  N4       1.0000 0.10850  0.71530  0.91402  Biso   1.000  N
  N5       1.0000 0.60850  0.78470  0.41402  Biso   1.000  N
  N6       1.0000 0.10850  0.28470  0.41402  Biso   1.000  N
  N7       1.0000 0.39150  0.78470  0.08598  Biso   1.000  N
  N8       1.0000 0.89150  0.28470  0.08598  Biso   1.000  N
  N9       1.0000 0.45913  0.19799  0.55829  Biso   1.000  N
  N10      1.0000 0.95913  0.69799  0.55829  Biso   1.000  N
  N11      1.0000 0.54087  0.19799  0.94171  Biso   1.000  N
  N12      1.0000 0.04087  0.69799  0.94171  Biso   1.000  N
  N13      1.0000 0.54087  0.80201  0.44171  Biso   1.000  N
  N14      1.0000 0.04087  0.30201  0.44171  Biso   1.000  N
  N15      1.0000 0.45913  0.80201  0.05829  Biso   1.000  N
  N16      1.0000 0.95913  0.30201  0.05829  Biso   1.000  N
  N17      1.0000 0.25228  0.37269  0.54909  Biso   1.000  N
  N18      1.0000 0.75228  0.87269  0.54909  Biso   1.000  N
  N19      1.0000 0.74772  0.37269  0.95091  Biso   1.000  N
  N20      1.0000 0.24772  0.87269  0.95091  Biso   1.000  N
  N21      1.0000 0.74772  0.62731  0.45091  Biso   1.000  N
  N22      1.0000 0.24772  0.12731  0.45091  Biso   1.000  N
  N23      1.0000 0.25228  0.62731  0.04909  Biso   1.000  N
  N24      1.0000 0.75228  0.12731  0.04909  Biso   1.000  N
  N25      1.0000 0.18604  0.38876  0.57896  Biso   1.000  N
  N26      1.0000 0.68604  0.88876  0.57896  Biso   1.000  N
  N27      1.0000 0.81396  0.38876  0.92104  Biso   1.000  N
  N28      1.0000 0.31396  0.88876  0.92104  Biso   1.000  N
  N29      1.0000 0.81396  0.61124  0.42104  Biso   1.000  N
  N30      1.0000 0.31396  0.11124  0.42104  Biso   1.000  N
  N31      1.0000 0.18604  0.61124  0.07896  Biso   1.000  N
  N32      1.0000 0.68604  0.11124  0.07896  Biso   1.000  N
  N33      1.0000 0.51032  0.69717  0.58240  Biso   1.000  N
  N34      1.0000 0.01032  0.19717  0.58240  Biso   1.000  N
  N35      1.0000 0.48968  0.69717  0.91760  Biso   1.000  N
  N36      1.0000 0.98968  0.19717  0.91760  Biso   1.000  N
  N37      1.0000 0.48968  0.30283  0.41760  Biso   1.000  N
  N38      1.0000 0.98968  0.80283  0.41760  Biso   1.000  N
  N39      1.0000 0.51032  0.30283  0.08240  Biso   1.000  N
  N40      1.0000 0.01032  0.80283  0.08240  Biso   1.000  N
  N41      1.0000 0.48003  0.64559  0.52465  Biso   1.000  N
  N42      1.0000 0.98003  0.14559  0.52465  Biso   1.000  N
  N43      1.0000 0.51997  0.64559  0.97535  Biso   1.000  N
  N44      1.0000 0.01997  0.14559  0.97535  Biso   1.000  N
  N45      1.0000 0.51997  0.35441  0.47535  Biso   1.000  N
  N46      1.0000 0.01997  0.85441  0.47535  Biso   1.000  N
  N47      1.0000 0.48003  0.35441  0.02465  Biso   1.000  N
  N48      1.0000 0.98003  0.85441  0.02465  Biso   1.000  N
  C1       1.0000 0.40790  0.21658  0.65850  Biso   1.000  C
  C2       1.0000 0.90790  0.71658  0.65850  Biso   1.000  C
  C3       1.0000 0.59210  0.21658  0.84150  Biso   1.000  C
  C4       1.0000 0.09210  0.71658  0.84150  Biso   1.000  C
  C5       1.0000 0.59210  0.78342  0.34150  Biso   1.000  C
  C6       1.0000 0.09210  0.28342  0.34150  Biso   1.000  C
  C7       1.0000 0.40790  0.78342  0.15850  Biso   1.000  C
  C8       1.0000 0.90790  0.28342  0.15850  Biso   1.000  C
  H41      1.0000 0.35810  0.22980  0.67670  Biso   1.000  H
  H42      1.0000 0.85810  0.72980  0.67670  Biso   1.000  H
  H43      1.0000 0.64190  0.22980  0.82330  Biso   1.000  H
  H44      1.0000 0.14190  0.72980  0.82330  Biso   1.000  H
  H45      1.0000 0.64190  0.77020  0.32330  Biso   1.000  H
  H46      1.0000 0.14190  0.27020  0.32330  Biso   1.000  H
  H47      1.0000 0.35810  0.77020  0.17670  Biso   1.000  H
  H48      1.0000 0.85810  0.27020  0.17670  Biso   1.000  H
  C9       1.0000 0.49340  0.19978  0.70986  Biso   1.000  C
  C10      1.0000 0.99340  0.69978  0.70986  Biso   1.000  C
  C11      1.0000 0.50660  0.19978  0.79014  Biso   1.000  C
  C12      1.0000 0.00660  0.69978  0.79014  Biso   1.000  C
  C13      1.0000 0.50660  0.80022  0.29014  Biso   1.000  C
  C14      1.0000 0.00660  0.30022  0.29014  Biso   1.000  C
  C15      1.0000 0.49340  0.80022  0.20986  Biso   1.000  C
  C16      1.0000 0.99340  0.30022  0.20986  Biso   1.000  C
  C17      1.0000 0.56240  0.18270  0.68150  Biso   1.000  C
  C18      1.0000 0.06240  0.68270  0.68150  Biso   1.000  C
  C19      1.0000 0.43760  0.18270  0.81850  Biso   1.000  C
  C20      1.0000 0.93760  0.68270  0.81850  Biso   1.000  C
  C21      1.0000 0.43760  0.81730  0.31850  Biso   1.000  C
  C22      1.0000 0.93760  0.31730  0.31850  Biso   1.000  C
  C23      1.0000 0.56240  0.81730  0.18150  Biso   1.000  C
  C24      1.0000 0.06240  0.31730  0.18150  Biso   1.000  C
  H49      1.0000 0.62320  0.17080  0.71330  Biso   1.000  H
  H50      1.0000 0.12320  0.67080  0.71330  Biso   1.000  H
  H51      1.0000 0.37680  0.17080  0.78670  Biso   1.000  H
  H52      1.0000 0.87680  0.67080  0.78670  Biso   1.000  H
  H53      1.0000 0.37680  0.82920  0.28670  Biso   1.000  H
  H54      1.0000 0.87680  0.32920  0.28670  Biso   1.000  H
  H55      1.0000 0.62320  0.82920  0.21330  Biso   1.000  H
  H56      1.0000 0.12320  0.32920  0.21330  Biso   1.000  H
  C25      1.0000 0.54170  0.18290  0.60469  Biso   1.000  C
  C26      1.0000 0.04170  0.68290  0.60469  Biso   1.000  C
  C27      1.0000 0.45830  0.18290  0.89531  Biso   1.000  C
  C28      1.0000 0.95830  0.68290  0.89531  Biso   1.000  C
  C29      1.0000 0.45830  0.81710  0.39531  Biso   1.000  C
  C30      1.0000 0.95830  0.31710  0.39531  Biso   1.000  C
  C31      1.0000 0.54170  0.81710  0.10469  Biso   1.000  C
  C32      1.0000 0.04170  0.31710  0.10469  Biso   1.000  C
  H57      1.0000 0.59020  0.17150  0.58460  Biso   1.000  H
  H58      1.0000 0.09020  0.67150  0.58460  Biso   1.000  H
  H59      1.0000 0.40980  0.17150  0.91540  Biso   1.000  H
  H60      1.0000 0.90980  0.67150  0.91540  Biso   1.000  H
  H61      1.0000 0.40980  0.82850  0.41540  Biso   1.000  H
  H62      1.0000 0.90980  0.32850  0.41540  Biso   1.000  H
  H63      1.0000 0.59020  0.82850  0.08460  Biso   1.000  H
  H64      1.0000 0.09020  0.32850  0.08460  Biso   1.000  H
  C33      1.0000 0.31335  0.43136  0.55012  Biso   1.000  C
  C34      1.0000 0.81335  0.93136  0.55012  Biso   1.000  C
  C35      1.0000 0.68665  0.43136  0.94988  Biso   1.000  C
  C36      1.0000 0.18665  0.93136  0.94988  Biso   1.000  C
  C37      1.0000 0.68665  0.56864  0.44988  Biso   1.000  C
  C38      1.0000 0.18665  0.06864  0.44988  Biso   1.000  C
  C39      1.0000 0.31335  0.56864  0.05012  Biso   1.000  C
  C40      1.0000 0.81335  0.06864  0.05012  Biso   1.000  C
  H65      1.0000 0.36010  0.41860  0.52850  Biso   1.000  H
  H66      1.0000 0.86010  0.91860  0.52850  Biso   1.000  H
  H67      1.0000 0.63990  0.41860  0.97150  Biso   1.000  H
  H68      1.0000 0.13990  0.91860  0.97150  Biso   1.000  H
  H69      1.0000 0.63990  0.58140  0.47150  Biso   1.000  H
  H70      1.0000 0.13990  0.08140  0.47150  Biso   1.000  H
  H71      1.0000 0.36010  0.58140  0.02850  Biso   1.000  H
  H72      1.0000 0.86010  0.08140  0.02850  Biso   1.000  H
  C41      1.0000 0.31321  0.51230  0.58166  Biso   1.000  C
  C42      1.0000 0.81321  0.01230  0.58166  Biso   1.000  C
  C43      1.0000 0.68679  0.51230  0.91834  Biso   1.000  C
  C44      1.0000 0.18679  0.01230  0.91834  Biso   1.000  C
  C45      1.0000 0.68679  0.48770  0.41834  Biso   1.000  C
  C46      1.0000 0.18679  0.98770  0.41834  Biso   1.000  C
  C47      1.0000 0.31321  0.48770  0.08166  Biso   1.000  C
  C48      1.0000 0.81321  0.98770  0.08166  Biso   1.000  C
  C49      1.0000 0.24530  0.52810  0.61170  Biso   1.000  C
  C50      1.0000 0.74530  0.02810  0.61170  Biso   1.000  C
  C51      1.0000 0.75470  0.52810  0.88830  Biso   1.000  C
  C52      1.0000 0.25470  0.02810  0.88830  Biso   1.000  C
  C53      1.0000 0.75470  0.47190  0.38830  Biso   1.000  C
  C54      1.0000 0.25470  0.97190  0.38830  Biso   1.000  C
  C55      1.0000 0.24530  0.47190  0.11170  Biso   1.000  C
  C56      1.0000 0.74530  0.97190  0.11170  Biso   1.000  C
  H73      1.0000 0.24100  0.58200  0.63370  Biso   1.000  H
  H74      1.0000 0.74100  0.08200  0.63370  Biso   1.000  H
  H75      1.0000 0.75900  0.58200  0.86630  Biso   1.000  H
  H76      1.0000 0.25900  0.08200  0.86630  Biso   1.000  H
  H77      1.0000 0.75900  0.41800  0.36630  Biso   1.000  H
  H78      1.0000 0.25900  0.91800  0.36630  Biso   1.000  H
  H79      1.0000 0.24100  0.41800  0.13370  Biso   1.000  H
  H80      1.0000 0.74100  0.91800  0.13370  Biso   1.000  H
  C57      1.0000 0.18250  0.46367  0.60935  Biso   1.000  C
  C58      1.0000 0.68250  0.96367  0.60935  Biso   1.000  C
  C59      1.0000 0.81750  0.46367  0.89065  Biso   1.000  C
  C60      1.0000 0.31750  0.96367  0.89065  Biso   1.000  C
  C61      1.0000 0.81750  0.53633  0.39065  Biso   1.000  C
  C62      1.0000 0.31750  0.03633  0.39065  Biso   1.000  C
  C63      1.0000 0.18250  0.53633  0.10935  Biso   1.000  C
  C64      1.0000 0.68250  0.03633  0.10935  Biso   1.000  C
  H81      1.0000 0.13490  0.47400  0.63060  Biso   1.000  H
  H82      1.0000 0.63490  0.97400  0.63060  Biso   1.000  H
  H83      1.0000 0.86510  0.47400  0.86940  Biso   1.000  H
  H84      1.0000 0.36510  0.97400  0.86940  Biso   1.000  H
  H85      1.0000 0.86510  0.52600  0.36940  Biso   1.000  H
  H86      1.0000 0.36510  0.02600  0.36940  Biso   1.000  H
  H87      1.0000 0.13490  0.52600  0.13060  Biso   1.000  H
  H88      1.0000 0.63490  0.02600  0.13060  Biso   1.000  H
  C65      1.0000 0.41710  0.58563  0.52363  Biso   1.000  C
  C66      1.0000 0.91710  0.08563  0.52363  Biso   1.000  C
  C67      1.0000 0.58290  0.58563  0.97637  Biso   1.000  C
  C68      1.0000 0.08290  0.08563  0.97637  Biso   1.000  C
  C69      1.0000 0.58290  0.41437  0.47637  Biso   1.000  C
  C70      1.0000 0.08290  0.91437  0.47637  Biso   1.000  C
  C71      1.0000 0.41710  0.41437  0.02363  Biso   1.000  C
  C72      1.0000 0.91710  0.91437  0.02363  Biso   1.000  C
  H89      1.0000 0.39530  0.54910  0.48150  Biso   1.000  H
  H90      1.0000 0.89530  0.04910  0.48150  Biso   1.000  H
  H91      1.0000 0.60470  0.54910  0.01850  Biso   1.000  H
  H92      1.0000 0.10470  0.04910  0.01850  Biso   1.000  H
  H93      1.0000 0.60470  0.45090  0.51850  Biso   1.000  H
  H94      1.0000 0.10470  0.95090  0.51850  Biso   1.000  H
  H95      1.0000 0.39530  0.45090  0.98150  Biso   1.000  H
  H96      1.0000 0.89530  0.95090  0.98150  Biso   1.000  H
  C73      1.0000 0.38343  0.57597  0.58236  Biso   1.000  C
  C74      1.0000 0.88343  0.07597  0.58236  Biso   1.000  C
  C75      1.0000 0.61657  0.57597  0.91764  Biso   1.000  C
  C76      1.0000 0.11657  0.07597  0.91764  Biso   1.000  C
  C77      1.0000 0.61657  0.42403  0.41764  Biso   1.000  C
  C78      1.0000 0.11657  0.92403  0.41764  Biso   1.000  C
  C79      1.0000 0.38343  0.42403  0.08236  Biso   1.000  C
  C80      1.0000 0.88343  0.92403  0.08236  Biso   1.000  C
  C81      1.0000 0.41800  0.63015  0.64197  Biso   1.000  C
  C82      1.0000 0.91800  0.13015  0.64197  Biso   1.000  C
  C83      1.0000 0.58200  0.63015  0.85803  Biso   1.000  C
  C84      1.0000 0.08200  0.13015  0.85803  Biso   1.000  C
  C85      1.0000 0.58200  0.36985  0.35803  Biso   1.000  C
  C86      1.0000 0.08200  0.86985  0.35803  Biso   1.000  C
  C87      1.0000 0.41800  0.36985  0.14197  Biso   1.000  C
  C88      1.0000 0.91800  0.86985  0.14197  Biso   1.000  C
  H97      1.0000 0.39730  0.62550  0.68420  Biso   1.000  H
  H98      1.0000 0.89730  0.12550  0.68420  Biso   1.000  H
  H99      1.0000 0.60270  0.62550  0.81580  Biso   1.000  H
  H100     1.0000 0.10270  0.12550  0.81580  Biso   1.000  H
  H101     1.0000 0.60270  0.37450  0.31580  Biso   1.000  H
  H102     1.0000 0.10270  0.87450  0.31580  Biso   1.000  H
  H103     1.0000 0.39730  0.37450  0.18420  Biso   1.000  H
  H104     1.0000 0.89730  0.87450  0.18420  Biso   1.000  H
  C89      1.0000 0.48100  0.68970  0.64072  Biso   1.000  C
  C90      1.0000 0.98100  0.18970  0.64072  Biso   1.000  C
  C91      1.0000 0.51900  0.68970  0.85928  Biso   1.000  C
  C92      1.0000 0.01900  0.18970  0.85928  Biso   1.000  C
  C93      1.0000 0.51900  0.31030  0.35928  Biso   1.000  C
  C94      1.0000 0.01900  0.81030  0.35928  Biso   1.000  C
  C95      1.0000 0.48100  0.31030  0.14072  Biso   1.000  C
  C96      1.0000 0.98100  0.81030  0.14072  Biso   1.000  C
  H105     1.0000 0.50470  0.72680  0.68230  Biso   1.000  H
  H106     1.0000 0.00470  0.22680  0.68230  Biso   1.000  H
  H107     1.0000 0.49530  0.72680  0.81770  Biso   1.000  H
  H108     1.0000 0.99530  0.22680  0.81770  Biso   1.000  H
  H109     1.0000 0.49530  0.27320  0.31770  Biso   1.000  H
  H110     1.0000 0.99530  0.77320  0.31770  Biso   1.000  H
  H111     1.0000 0.50470  0.27320  0.18230  Biso   1.000  H
  H112     1.0000 0.00470  0.77320  0.18230  Biso   1.000  H
  C97      1.0000 0.93360  0.38300  0.58120  Biso   1.000  C
  C98      1.0000 0.43360  0.88300  0.58120  Biso   1.000  C
  C99      1.0000 0.06640  0.38300  0.91880  Biso   1.000  C
  C100     1.0000 0.56640  0.88300  0.91880  Biso   1.000  C
  C101     1.0000 0.06640  0.61700  0.41880  Biso   1.000  C
  C102     1.0000 0.56640  0.11700  0.41880  Biso   1.000  C
  C103     1.0000 0.93360  0.61700  0.08120  Biso   1.000  C
  C104     1.0000 0.43360  0.11700  0.08120  Biso   1.000  C
  C105     1.0000 0.89820  0.44820  0.62470  Biso   1.000  C
  C106     1.0000 0.39820  0.94820  0.62470  Biso   1.000  C
  C107     1.0000 0.10180  0.44820  0.87530  Biso   1.000  C
  C108     1.0000 0.60180  0.94820  0.87530  Biso   1.000  C
  C109     1.0000 0.10180  0.55180  0.37530  Biso   1.000  C
  C110     1.0000 0.60180  0.05180  0.37530  Biso   1.000  C
  C111     1.0000 0.89820  0.55180  0.12470  Biso   1.000  C
  C112     1.0000 0.39820  0.05180  0.12470  Biso   1.000  C
  C113     1.0000 0.66430  0.54160  0.67569  Biso   1.000  C
  C114     1.0000 0.16430  0.04160  0.67569  Biso   1.000  C
  C115     1.0000 0.33570  0.54160  0.82431  Biso   1.000  C
  C116     1.0000 0.83570  0.04160  0.82431  Biso   1.000  C
  C117     1.0000 0.33570  0.45840  0.32431  Biso   1.000  C
  C118     1.0000 0.83570  0.95840  0.32431  Biso   1.000  C
  C119     1.0000 0.66430  0.45840  0.17569  Biso   1.000  C
  C120     1.0000 0.16430  0.95840  0.17569  Biso   1.000  C
  C121     1.0000 0.62510  0.45520  0.69230  Biso   1.000  C
  C122     1.0000 0.12510  0.95520  0.69230  Biso   1.000  C
  C123     1.0000 0.37490  0.45520  0.80770  Biso   1.000  C
  C124     1.0000 0.87490  0.95520  0.80770  Biso   1.000  C
  C125     1.0000 0.37490  0.54480  0.30770  Biso   1.000  C
  C126     1.0000 0.87490  0.04480  0.30770  Biso   1.000  C
  C127     1.0000 0.62510  0.54480  0.19230  Biso   1.000  C
  C128     1.0000 0.12510  0.04480  0.19230  Biso   1.000  C
  F1       1.0000 0.95630  0.50860  0.65170  Biso   1.000  F
  F2       1.0000 0.45630  0.00860  0.65170  Biso   1.000  F
  F3       1.0000 0.04370  0.50860  0.84830  Biso   1.000  F
  F4       1.0000 0.54370  0.00860  0.84830  Biso   1.000  F
  F5       1.0000 0.04370  0.49140  0.34830  Biso   1.000  F
  F6       1.0000 0.54370  0.99140  0.34830  Biso   1.000  F
  F7       1.0000 0.95630  0.49140  0.15170  Biso   1.000  F
  F8       1.0000 0.45630  0.99140  0.15170  Biso   1.000  F
  F9       1.0000 0.89540  0.41090  0.68630  Biso   1.000  F
  F10      1.0000 0.39540  0.91090  0.68630  Biso   1.000  F
  F11      1.0000 0.10460  0.41090  0.81370  Biso   1.000  F
  F12      1.0000 0.60460  0.91090  0.81370  Biso   1.000  F
  F13      1.0000 0.10460  0.58910  0.31370  Biso   1.000  F
  F14      1.0000 0.60460  0.08910  0.31370  Biso   1.000  F
  F15      1.0000 0.89540  0.58910  0.18630  Biso   1.000  F
  F16      1.0000 0.39540  0.08910  0.18630  Biso   1.000  F
  F17      1.0000 0.81370  0.46830  0.59080  Biso   1.000  F
  F18      1.0000 0.31370  0.96830  0.59080  Biso   1.000  F
  F19      1.0000 0.18630  0.46830  0.90920  Biso   1.000  F
  F20      1.0000 0.68630  0.96830  0.90920  Biso   1.000  F
  F21      1.0000 0.18630  0.53170  0.40920  Biso   1.000  F
  F22      1.0000 0.68630  0.03170  0.40920  Biso   1.000  F
  F23      1.0000 0.81370  0.53170  0.09080  Biso   1.000  F
  F24      1.0000 0.31370  0.03170  0.09080  Biso   1.000  F
  F25      1.0000 0.95850  0.48840  0.67770  Biso   1.000  F
  F26      1.0000 0.45850  0.98840  0.67770  Biso   1.000  F
  F27      1.0000 0.04150  0.48840  0.82230  Biso   1.000  F
  F28      1.0000 0.54150  0.98840  0.82230  Biso   1.000  F
  F29      1.0000 0.04150  0.51160  0.32230  Biso   1.000  F
  F30      1.0000 0.54150  0.01160  0.32230  Biso   1.000  F
  F31      1.0000 0.95850  0.51160  0.17770  Biso   1.000  F
  F32      1.0000 0.45850  0.01160  0.17770  Biso   1.000  F
  F33      1.0000 0.83690  0.41730  0.65090  Biso   1.000  F
  F34      1.0000 0.33690  0.91730  0.65090  Biso   1.000  F
  F35      1.0000 0.16310  0.41730  0.84910  Biso   1.000  F
  F36      1.0000 0.66310  0.91730  0.84910  Biso   1.000  F
  F37      1.0000 0.16310  0.58270  0.34910  Biso   1.000  F
  F38      1.0000 0.66310  0.08270  0.34910  Biso   1.000  F
  F39      1.0000 0.83690  0.58270  0.15090  Biso   1.000  F
  F40      1.0000 0.33690  0.08270  0.15090  Biso   1.000  F
  F41      1.0000 0.86030  0.51350  0.58180  Biso   1.000  F
  F42      1.0000 0.36030  0.01350  0.58180  Biso   1.000  F
  F43      1.0000 0.13970  0.51350  0.91820  Biso   1.000  F
  F44      1.0000 0.63970  0.01350  0.91820  Biso   1.000  F
  F45      1.0000 0.13970  0.48650  0.41820  Biso   1.000  F
  F46      1.0000 0.63970  0.98650  0.41820  Biso   1.000  F
  F47      1.0000 0.86030  0.48650  0.08180  Biso   1.000  F
  F48      1.0000 0.36030  0.98650  0.08180  Biso   1.000  F
  F49      1.0000 0.53950  0.44100  0.64650  Biso   1.000  F
  F50      1.0000 0.03950  0.94100  0.64650  Biso   1.000  F
  F51      1.0000 0.46050  0.44100  0.85350  Biso   1.000  F
  F52      1.0000 0.96050  0.94100  0.85350  Biso   1.000  F
  F53      1.0000 0.46050  0.55900  0.35350  Biso   1.000  F
  F54      1.0000 0.96050  0.05900  0.35350  Biso   1.000  F
  F55      1.0000 0.53950  0.55900  0.14650  Biso   1.000  F
  F56      1.0000 0.03950  0.05900  0.14650  Biso   1.000  F
  F57      1.0000 0.66840  0.38900  0.66890  Biso   1.000  F
  F58      1.0000 0.16840  0.88900  0.66890  Biso   1.000  F
  F59      1.0000 0.33160  0.38900  0.83110  Biso   1.000  F
  F60      1.0000 0.83160  0.88900  0.83110  Biso   1.000  F
  F61      1.0000 0.33160  0.61100  0.33110  Biso   1.000  F
  F62      1.0000 0.83160  0.11100  0.33110  Biso   1.000  F
  F63      1.0000 0.66840  0.61100  0.16890  Biso   1.000  F
  F64      1.0000 0.16840  0.11100  0.16890  Biso   1.000  F
  F65      1.0000 0.62610  0.43290  0.75720  Biso   1.000  F
  F66      1.0000 0.12610  0.93290  0.75720  Biso   1.000  F
  F67      1.0000 0.37390  0.43290  0.74280  Biso   1.000  F
  F68      1.0000 0.87390  0.93290  0.74280  Biso   1.000  F
  F69      1.0000 0.37390  0.56710  0.24280  Biso   1.000  F
  F70      1.0000 0.87390  0.06710  0.24280  Biso   1.000  F
  F71      1.0000 0.62610  0.56710  0.25720  Biso   1.000  F
  F72      1.0000 0.12610  0.06710  0.25720  Biso   1.000  F
  F73      1.0000 0.57090  0.41810  0.63830  Biso   1.000  F
  F74      1.0000 0.07090  0.91810  0.63830  Biso   1.000  F
  F75      1.0000 0.42910  0.41810  0.86170  Biso   1.000  F
  F76      1.0000 0.92910  0.91810  0.86170  Biso   1.000  F
  F77      1.0000 0.42910  0.58190  0.36170  Biso   1.000  F
  F78      1.0000 0.92910  0.08190  0.36170  Biso   1.000  F
  F79      1.0000 0.57090  0.58190  0.13830  Biso   1.000  F
  F80      1.0000 0.07090  0.08190  0.13830  Biso   1.000  F
  F81      1.0000 0.69370  0.40910  0.73230  Biso   1.000  F
  F82      1.0000 0.19370  0.90910  0.73230  Biso   1.000  F
  F83      1.0000 0.30630  0.40910  0.76770  Biso   1.000  F
  F84      1.0000 0.80630  0.90910  0.76770  Biso   1.000  F
  F85      1.0000 0.30630  0.59090  0.26770  Biso   1.000  F
  F86      1.0000 0.80630  0.09090  0.26770  Biso   1.000  F
  F87      1.0000 0.69370  0.59090  0.23230  Biso   1.000  F
  F88      1.0000 0.19370  0.09090  0.23230  Biso   1.000  F
  F89      1.0000 0.58080  0.47770  0.74000  Biso   1.000  F
  F90      1.0000 0.08080  0.97770  0.74000  Biso   1.000  F
  F91      1.0000 0.41920  0.47770  0.76000  Biso   1.000  F
  F92      1.0000 0.91920  0.97770  0.76000  Biso   1.000  F
  F93      1.0000 0.41920  0.52230  0.26000  Biso   1.000  F
  F94      1.0000 0.91920  0.02230  0.26000  Biso   1.000  F
  F95      1.0000 0.58080  0.52230  0.24000  Biso   1.000  F
  F96      1.0000 0.08080  0.02230  0.24000  Biso   1.000  F
