data_image0
_cell_length_a       12.0861
_cell_length_b       14.6555
_cell_length_c       21.5673
_cell_angle_alpha    90
_cell_angle_beta     104.025
_cell_angle_gamma    90

_symmetry_space_group_name_H-M    "P 1"
_symmetry_int_tables_number       1

loop_
  _symmetry_equiv_pos_as_xyz
  'x, y, z'

loop_
  _atom_site_label
  _atom_site_occupancy
  _atom_site_fract_x
  _atom_site_fract_y
  _atom_site_fract_z
  _atom_site_thermal_displace_type
  _atom_site_B_iso_or_equiv
  _atom_site_type_symbol
  Cu1      1.0000 0.00000  0.00000  0.50000  Biso   1.000  Cu
  Cu2      1.0000 0.00000  0.00000  0.00000  Biso   1.000  Cu
  Cu3      1.0000 0.27473  0.25876  0.49523  Biso   1.000  Cu
  Cu4      1.0000 0.72527  0.25876  0.00477  Biso   1.000  Cu
  Cu5      1.0000 0.72527  0.74124  0.50477  Biso   1.000  Cu
  Cu6      1.0000 0.27473  0.74124  0.99523  Biso   1.000  Cu
  O1       1.0000 0.13979  0.12280  0.49626  Biso   1.000  O
  O2       1.0000 0.86021  0.12280  0.00374  Biso   1.000  O
  O3       1.0000 0.86021  0.87720  0.50374  Biso   1.000  O
  O4       1.0000 0.13979  0.87720  0.99626  Biso   1.000  O
  O5       1.0000 0.38030  0.38630  0.47740  Biso   1.000  O
  O6       1.0000 0.61970  0.38630  0.02260  Biso   1.000  O
  O7       1.0000 0.61970  0.61370  0.52260  Biso   1.000  O
  O8       1.0000 0.38030  0.61370  0.97740  Biso   1.000  O
  O9       1.0000 0.48790  0.71850  0.82910  Biso   1.000  O
  O10      1.0000 0.51210  0.71850  0.67090  Biso   1.000  O
  O11      1.0000 0.51210  0.28150  0.17090  Biso   1.000  O
  O12      1.0000 0.48790  0.28150  0.32910  Biso   1.000  O
  O13      1.0000 0.40090  0.53870  0.80750  Biso   1.000  O
  O14      1.0000 0.59910  0.53870  0.69250  Biso   1.000  O
  O15      1.0000 0.59910  0.46130  0.19250  Biso   1.000  O
  O16      1.0000 0.40090  0.46130  0.30750  Biso   1.000  O
  O17      1.0000 0.25010  0.50700  0.38830  Biso   1.000  O
  O18      1.0000 0.74990  0.50700  0.11170  Biso   1.000  O
  O19      1.0000 0.74990  0.49300  0.61170  Biso   1.000  O
  O20      1.0000 0.25010  0.49300  0.88830  Biso   1.000  O
  O21      1.0000 0.39640  0.59680  0.49240  Biso   1.000  O
  O22      1.0000 0.60360  0.59680  0.00760  Biso   1.000  O
  O23      1.0000 0.60360  0.40320  0.50760  Biso   1.000  O
  O24      1.0000 0.39640  0.40320  0.99240  Biso   1.000  O
  N1       1.0000 0.99090  0.96740  0.40885  Biso   1.000  N
  N2       1.0000 0.00910  0.96740  0.09115  Biso   1.000  N
  N3       1.0000 0.00910  0.03260  0.59115  Biso   1.000  N
  N4       1.0000 0.99090  0.03260  0.90885  Biso   1.000  N
  N5       1.0000 0.07460  0.00710  0.38720  Biso   1.000  N
  N6       1.0000 0.92540  0.00710  0.11280  Biso   1.000  N
  N7       1.0000 0.92540  0.99290  0.61280  Biso   1.000  N
  N8       1.0000 0.07460  0.99290  0.88720  Biso   1.000  N
  N9       1.0000 0.12990  0.90980  0.52560  Biso   1.000  N
  N10      1.0000 0.87010  0.90980  0.97440  Biso   1.000  N
  N11      1.0000 0.87010  0.09020  0.47440  Biso   1.000  N
  N12      1.0000 0.12990  0.09020  0.02560  Biso   1.000  N
  N13      1.0000 0.09130  0.82540  0.52950  Biso   1.000  N
  N14      1.0000 0.90870  0.82540  0.97050  Biso   1.000  N
  N15      1.0000 0.90870  0.17460  0.47050  Biso   1.000  N
  N16      1.0000 0.09130  0.17460  0.02950  Biso   1.000  N
  N17      1.0000 0.62110  0.83040  0.53398  Biso   1.000  N
  N18      1.0000 0.37890  0.83040  0.96602  Biso   1.000  N
  N19      1.0000 0.37890  0.16960  0.46602  Biso   1.000  N
  N20      1.0000 0.62110  0.16960  0.03398  Biso   1.000  N
  N21      1.0000 0.67260  0.90600  0.56226  Biso   1.000  N
  N22      1.0000 0.32740  0.90600  0.93774  Biso   1.000  N
  N23      1.0000 0.32740  0.09400  0.43774  Biso   1.000  N
  N24      1.0000 0.67260  0.09400  0.06226  Biso   1.000  N
  N25      1.0000 0.36580  0.25170  0.58740  Biso   1.000  N
  N26      1.0000 0.63420  0.25170  0.91260  Biso   1.000  N
  N27      1.0000 0.63420  0.74830  0.41260  Biso   1.000  N
  N28      1.0000 0.36580  0.74830  0.08740  Biso   1.000  N
  N29      1.0000 0.37680  0.17300  0.61850  Biso   1.000  N
  N30      1.0000 0.62320  0.17300  0.88150  Biso   1.000  N
  N31      1.0000 0.62320  0.82700  0.38150  Biso   1.000  N
  N32      1.0000 0.37680  0.82700  0.11850  Biso   1.000  N
  N33      1.0000 0.18190  0.27030  0.40238  Biso   1.000  N
  N34      1.0000 0.81810  0.27030  0.09762  Biso   1.000  N
  N35      1.0000 0.81810  0.72970  0.59762  Biso   1.000  N
  N36      1.0000 0.18190  0.72970  0.90238  Biso   1.000  N
  N37      1.0000 0.07020  0.25630  0.39533  Biso   1.000  N
  N38      1.0000 0.92980  0.25630  0.10467  Biso   1.000  N
  N39      1.0000 0.92980  0.74370  0.60467  Biso   1.000  N
  N40      1.0000 0.07020  0.74370  0.89533  Biso   1.000  N
  N41      1.0000 0.15610  0.33410  0.52498  Biso   1.000  N
  N42      1.0000 0.84390  0.33410  0.97502  Biso   1.000  N
  N43      1.0000 0.84390  0.66590  0.47502  Biso   1.000  N
  N44      1.0000 0.15610  0.66590  0.02498  Biso   1.000  N
  N45      1.0000 0.12160  0.29700  0.57400  Biso   1.000  N
  N46      1.0000 0.87840  0.29700  0.92600  Biso   1.000  N
  N47      1.0000 0.87840  0.70300  0.42600  Biso   1.000  N
  N48      1.0000 0.12160  0.70300  0.07400  Biso   1.000  N
  C1       1.0000 0.91320  0.91750  0.37020  Biso   1.000  C
  C2       1.0000 0.08680  0.91750  0.12980  Biso   1.000  C
  C3       1.0000 0.08680  0.08250  0.62980  Biso   1.000  C
  C4       1.0000 0.91320  0.08250  0.87020  Biso   1.000  C
  H1       1.0000 0.85570  0.89000  0.38630  Biso   1.000  H
  H2       1.0000 0.14430  0.89000  0.11370  Biso   1.000  H
  H3       1.0000 0.14430  0.11000  0.61370  Biso   1.000  H
  H4       1.0000 0.85570  0.11000  0.88630  Biso   1.000  H
  C5       1.0000 0.91330  0.90400  0.30630  Biso   1.000  C
  C6       1.0000 0.08670  0.90400  0.19370  Biso   1.000  C
  C7       1.0000 0.08670  0.09600  0.69370  Biso   1.000  C
  C8       1.0000 0.91330  0.09600  0.80630  Biso   1.000  C
  H5       1.0000 0.85670  0.86840  0.27950  Biso   1.000  H
  H6       1.0000 0.14330  0.86840  0.22050  Biso   1.000  H
  H7       1.0000 0.14330  0.13160  0.72050  Biso   1.000  H
  H8       1.0000 0.85670  0.13160  0.77950  Biso   1.000  H
  C9       1.0000 0.99790  0.94400  0.28380  Biso   1.000  C
  C10      1.0000 0.00210  0.94400  0.21620  Biso   1.000  C
  C11      1.0000 0.00210  0.05600  0.71620  Biso   1.000  C
  C12      1.0000 0.99790  0.05600  0.78380  Biso   1.000  C
  C13      1.0000 0.07800  0.99470  0.32750  Biso   1.000  C
  C14      1.0000 0.92200  0.99470  0.17250  Biso   1.000  C
  C15      1.0000 0.92200  0.00530  0.67250  Biso   1.000  C
  C16      1.0000 0.07800  0.00530  0.82750  Biso   1.000  C
  H9       1.0000 0.13800  0.02160  0.31330  Biso   1.000  H
  H10      1.0000 0.86200  0.02160  0.18670  Biso   1.000  H
  H11      1.0000 0.86200  0.97840  0.68670  Biso   1.000  H
  H12      1.0000 0.13800  0.97840  0.81330  Biso   1.000  H
  C17      1.0000 0.24030  0.92710  0.53470  Biso   1.000  C
  C18      1.0000 0.75970  0.92710  0.96530  Biso   1.000  C
  C19      1.0000 0.75970  0.07290  0.46530  Biso   1.000  C
  C20      1.0000 0.24030  0.07290  0.03470  Biso   1.000  C
  H13      1.0000 0.26460  0.98780  0.53290  Biso   1.000  H
  H14      1.0000 0.73540  0.98780  0.96710  Biso   1.000  H
  H15      1.0000 0.73540  0.01220  0.46710  Biso   1.000  H
  H16      1.0000 0.26460  0.01220  0.03290  Biso   1.000  H
  C21      1.0000 0.32140  0.85730  0.54680  Biso   1.000  C
  C22      1.0000 0.67860  0.85730  0.95320  Biso   1.000  C
  C23      1.0000 0.67860  0.14270  0.45320  Biso   1.000  C
  C24      1.0000 0.32140  0.14270  0.04680  Biso   1.000  C
  C25      1.0000 0.28230  0.77000  0.55120  Biso   1.000  C
  C26      1.0000 0.71770  0.77000  0.94880  Biso   1.000  C
  C27      1.0000 0.71770  0.23000  0.44880  Biso   1.000  C
  C28      1.0000 0.28230  0.23000  0.05120  Biso   1.000  C
  H17      1.0000 0.33260  0.72010  0.55930  Biso   1.000  H
  H18      1.0000 0.66740  0.72010  0.94070  Biso   1.000  H
  H19      1.0000 0.66740  0.27990  0.44070  Biso   1.000  H
  H20      1.0000 0.33260  0.27990  0.05930  Biso   1.000  H
  C29      1.0000 0.16540  0.75840  0.54310  Biso   1.000  C
  C30      1.0000 0.83460  0.75840  0.95690  Biso   1.000  C
  C31      1.0000 0.83460  0.24160  0.45690  Biso   1.000  C
  C32      1.0000 0.16540  0.24160  0.04310  Biso   1.000  C
  H21      1.0000 0.13800  0.69940  0.54770  Biso   1.000  H
  H22      1.0000 0.86200  0.69940  0.95230  Biso   1.000  H
  H23      1.0000 0.86200  0.30060  0.45230  Biso   1.000  H
  H24      1.0000 0.13800  0.30060  0.04770  Biso   1.000  H
  C33      1.0000 0.51050  0.81620  0.52890  Biso   1.000  C
  C34      1.0000 0.48950  0.81620  0.97110  Biso   1.000  C
  C35      1.0000 0.48950  0.18380  0.47110  Biso   1.000  C
  C36      1.0000 0.51050  0.18380  0.02890  Biso   1.000  C
  H25      1.0000 0.47660  0.76300  0.50850  Biso   1.000  H
  H26      1.0000 0.52340  0.76300  0.99150  Biso   1.000  H
  H27      1.0000 0.52340  0.23700  0.49150  Biso   1.000  H
  H28      1.0000 0.47660  0.23700  0.00850  Biso   1.000  H
  C37      1.0000 0.44320  0.87770  0.55300  Biso   1.000  C
  C38      1.0000 0.55680  0.87770  0.94700  Biso   1.000  C
  C39      1.0000 0.55680  0.12230  0.44700  Biso   1.000  C
  C40      1.0000 0.44320  0.12230  0.05300  Biso   1.000  C
  C41      1.0000 0.49520  0.95510  0.58200  Biso   1.000  C
  C42      1.0000 0.50480  0.95510  0.91800  Biso   1.000  C
  C43      1.0000 0.50480  0.04490  0.41800  Biso   1.000  C
  C44      1.0000 0.49520  0.04490  0.08200  Biso   1.000  C
  H29      1.0000 0.45420  0.99910  0.59900  Biso   1.000  H
  H30      1.0000 0.54580  0.99910  0.90100  Biso   1.000  H
  H31      1.0000 0.54580  0.00090  0.40100  Biso   1.000  H
  H32      1.0000 0.45420  0.00090  0.09900  Biso   1.000  H
  C45      1.0000 0.61150  0.96610  0.58540  Biso   1.000  C
  C46      1.0000 0.38850  0.96610  0.91460  Biso   1.000  C
  C47      1.0000 0.38850  0.03390  0.41460  Biso   1.000  C
  C48      1.0000 0.61150  0.03390  0.08540  Biso   1.000  C
  H33      1.0000 0.64810  0.01890  0.60510  Biso   1.000  H
  H34      1.0000 0.35190  0.01890  0.89490  Biso   1.000  H
  H35      1.0000 0.35190  0.98110  0.39490  Biso   1.000  H
  H36      1.0000 0.64810  0.98110  0.10510  Biso   1.000  H
  C49      1.0000 0.40820  0.32600  0.61620  Biso   1.000  C
  C50      1.0000 0.59180  0.32600  0.88380  Biso   1.000  C
  C51      1.0000 0.59180  0.67400  0.38380  Biso   1.000  C
  C52      1.0000 0.40820  0.67400  0.11620  Biso   1.000  C
  H37      1.0000 0.40120  0.38030  0.59250  Biso   1.000  H
  H38      1.0000 0.59880  0.38030  0.90750  Biso   1.000  H
  H39      1.0000 0.59880  0.61970  0.40750  Biso   1.000  H
  H40      1.0000 0.40120  0.61970  0.09250  Biso   1.000  H
  C53      1.0000 0.46320  0.32880  0.68000  Biso   1.000  C
  C54      1.0000 0.53680  0.32880  0.82000  Biso   1.000  C
  C55      1.0000 0.53680  0.67120  0.32000  Biso   1.000  C
  C56      1.0000 0.46320  0.67120  0.18000  Biso   1.000  C
  H41      1.0000 0.49400  0.38380  0.69920  Biso   1.000  H
  H42      1.0000 0.50600  0.38380  0.80080  Biso   1.000  H
  H43      1.0000 0.50600  0.61620  0.30080  Biso   1.000  H
  H44      1.0000 0.49400  0.61620  0.19920  Biso   1.000  H
  C57      1.0000 0.47220  0.24970  0.71530  Biso   1.000  C
  C58      1.0000 0.52780  0.24970  0.78470  Biso   1.000  C
  C59      1.0000 0.52780  0.75030  0.28470  Biso   1.000  C
  C60      1.0000 0.47220  0.75030  0.21530  Biso   1.000  C
  C61      1.0000 0.42720  0.17310  0.68110  Biso   1.000  C
  C62      1.0000 0.57280  0.17310  0.81890  Biso   1.000  C
  C63      1.0000 0.57280  0.82690  0.31890  Biso   1.000  C
  C64      1.0000 0.42720  0.82690  0.18110  Biso   1.000  C
  H45      1.0000 0.43230  0.11740  0.70320  Biso   1.000  H
  H46      1.0000 0.56770  0.11740  0.79680  Biso   1.000  H
  H47      1.0000 0.56770  0.88260  0.29680  Biso   1.000  H
  H48      1.0000 0.43230  0.88260  0.20320  Biso   1.000  H
  C65      1.0000 0.22390  0.28500  0.35240  Biso   1.000  C
  C66      1.0000 0.77610  0.28500  0.14760  Biso   1.000  C
  C67      1.0000 0.77610  0.71500  0.64760  Biso   1.000  C
  C68      1.0000 0.22390  0.71500  0.85240  Biso   1.000  C
  H49      1.0000 0.30290  0.29360  0.35890  Biso   1.000  H
  H50      1.0000 0.69710  0.29360  0.14110  Biso   1.000  H
  H51      1.0000 0.69710  0.70640  0.64110  Biso   1.000  H
  H52      1.0000 0.30290  0.70640  0.85890  Biso   1.000  H
  C69      1.0000 0.15580  0.28850  0.29020  Biso   1.000  C
  C70      1.0000 0.84420  0.28850  0.20980  Biso   1.000  C
  C71      1.0000 0.84420  0.71150  0.70980  Biso   1.000  C
  C72      1.0000 0.15580  0.71150  0.79020  Biso   1.000  C
  H53      1.0000 0.18750  0.30020  0.25530  Biso   1.000  H
  H54      1.0000 0.81250  0.30020  0.24470  Biso   1.000  H
  H55      1.0000 0.81250  0.69980  0.74470  Biso   1.000  H
  H56      1.0000 0.18750  0.69980  0.75530  Biso   1.000  H
  C73      1.0000 0.04030  0.27410  0.28180  Biso   1.000  C
  C74      1.0000 0.95970  0.27410  0.21820  Biso   1.000  C
  C75      1.0000 0.95970  0.72590  0.71820  Biso   1.000  C
  C76      1.0000 0.04030  0.72590  0.78180  Biso   1.000  C
  C77      1.0000 0.00320  0.25730  0.33680  Biso   1.000  C
  C78      1.0000 0.99680  0.25730  0.16320  Biso   1.000  C
  C79      1.0000 0.99680  0.74270  0.66320  Biso   1.000  C
  C80      1.0000 0.00320  0.74270  0.83680  Biso   1.000  C
  H57      1.0000 0.92510  0.24590  0.33220  Biso   1.000  H
  H58      1.0000 0.07490  0.24590  0.16780  Biso   1.000  H
  H59      1.0000 0.07490  0.75410  0.66780  Biso   1.000  H
  H60      1.0000 0.92510  0.75410  0.83220  Biso   1.000  H
  C81      1.0000 0.11100  0.40990  0.49770  Biso   1.000  C
  C82      1.0000 0.88900  0.40990  0.00230  Biso   1.000  C
  C83      1.0000 0.88900  0.59010  0.50230  Biso   1.000  C
  C84      1.0000 0.11100  0.59010  0.99770  Biso   1.000  C
  H61      1.0000 0.13900  0.43360  0.46400  Biso   1.000  H
  H62      1.0000 0.86100  0.43360  0.03600  Biso   1.000  H
  H63      1.0000 0.86100  0.56640  0.53600  Biso   1.000  H
  H64      1.0000 0.13900  0.56640  0.96400  Biso   1.000  H
  C85      1.0000 0.02320  0.45750  0.51600  Biso   1.000  C
  C86      1.0000 0.97680  0.45750  0.98400  Biso   1.000  C
  C87      1.0000 0.97680  0.54250  0.48400  Biso   1.000  C
  C88      1.0000 0.02320  0.54250  0.01600  Biso   1.000  C
  C89      1.0000 0.98680  0.41860  0.56540  Biso   1.000  C
  C90      1.0000 0.01320  0.41860  0.93460  Biso   1.000  C
  C91      1.0000 0.01320  0.58140  0.43460  Biso   1.000  C
  C92      1.0000 0.98680  0.58140  0.06540  Biso   1.000  C
  H65      1.0000 0.92780  0.44570  0.58050  Biso   1.000  H
  H66      1.0000 0.07220  0.44570  0.91950  Biso   1.000  H
  H67      1.0000 0.07220  0.55430  0.41950  Biso   1.000  H
  H68      1.0000 0.92780  0.55430  0.08050  Biso   1.000  H
  C93      1.0000 0.03830  0.33870  0.59300  Biso   1.000  C
  C94      1.0000 0.96170  0.33870  0.90700  Biso   1.000  C
  C95      1.0000 0.96170  0.66130  0.40700  Biso   1.000  C
  C96      1.0000 0.03830  0.66130  0.09300  Biso   1.000  C
  H69      1.0000 0.01260  0.31290  0.62690  Biso   1.000  H
  H70      1.0000 0.98740  0.31290  0.87310  Biso   1.000  H
  H71      1.0000 0.98740  0.68710  0.37310  Biso   1.000  H
  H72      1.0000 0.01260  0.68710  0.12690  Biso   1.000  H
  B1       1.0000 0.23690  0.56040  0.64480  Biso   1.000  B
  B2       1.0000 0.76310  0.56040  0.85520  Biso   1.000  B
  B3       1.0000 0.76310  0.43960  0.35520  Biso   1.000  B
  B4       1.0000 0.23690  0.43960  0.14480  Biso   1.000  B
  B5       1.0000 0.29650  0.91020  0.72180  Biso   1.000  B
  B6       1.0000 0.70350  0.91020  0.77820  Biso   1.000  B
  B7       1.0000 0.70350  0.08980  0.27820  Biso   1.000  B
  B8       1.0000 0.29650  0.08980  0.22180  Biso   1.000  B
  B9       1.0000 0.25960  0.76930  0.36860  Biso   1.000  B
  B10      1.0000 0.74040  0.76930  0.13140  Biso   1.000  B
  B11      1.0000 0.74040  0.23070  0.63140  Biso   1.000  B
  B12      1.0000 0.25960  0.23070  0.86860  Biso   1.000  B
  F1       1.0000 0.26140  0.55150  0.58530  Biso   1.000  F
  F2       1.0000 0.73860  0.55150  0.91470  Biso   1.000  F
  F3       1.0000 0.73860  0.44850  0.41470  Biso   1.000  F
  F4       1.0000 0.26140  0.44850  0.08530  Biso   1.000  F
  F5       1.0000 0.29390  0.63210  0.67750  Biso   1.000  F
  F6       1.0000 0.70610  0.63210  0.82250  Biso   1.000  F
  F7       1.0000 0.70610  0.36790  0.32250  Biso   1.000  F
  F8       1.0000 0.29390  0.36790  0.17750  Biso   1.000  F
  F9       1.0000 0.12270  0.57870  0.63500  Biso   1.000  F
  F10      1.0000 0.87730  0.57870  0.86500  Biso   1.000  F
  F11      1.0000 0.87730  0.42130  0.36500  Biso   1.000  F
  F12      1.0000 0.12270  0.42130  0.13500  Biso   1.000  F
  F13      1.0000 0.26280  0.47970  0.67590  Biso   1.000  F
  F14      1.0000 0.73720  0.47970  0.82410  Biso   1.000  F
  F15      1.0000 0.73720  0.52030  0.32410  Biso   1.000  F
  F16      1.0000 0.26280  0.52030  0.17590  Biso   1.000  F
  F17      1.0000 0.18510  0.89260  0.69930  Biso   1.000  F
  F18      1.0000 0.81490  0.89260  0.80070  Biso   1.000  F
  F19      1.0000 0.81490  0.10740  0.30070  Biso   1.000  F
  F20      1.0000 0.18510  0.10740  0.19930  Biso   1.000  F
  F21      1.0000 0.33270  0.96410  0.68040  Biso   1.000  F
  F22      1.0000 0.66730  0.96410  0.81960  Biso   1.000  F
  F23      1.0000 0.66730  0.03590  0.31960  Biso   1.000  F
  F24      1.0000 0.33270  0.03590  0.18040  Biso   1.000  F
  F25      1.0000 0.35520  0.83430  0.73210  Biso   1.000  F
  F26      1.0000 0.64480  0.83430  0.76790  Biso   1.000  F
  F27      1.0000 0.64480  0.16570  0.26790  Biso   1.000  F
  F28      1.0000 0.35520  0.16570  0.23210  Biso   1.000  F
  F29      1.0000 0.30990  0.96110  0.77170  Biso   1.000  F
  F30      1.0000 0.69010  0.96110  0.72830  Biso   1.000  F
  F31      1.0000 0.69010  0.03890  0.22830  Biso   1.000  F
  F32      1.0000 0.30990  0.03890  0.27170  Biso   1.000  F
  F33      1.0000 0.17890  0.81150  0.39130  Biso   1.000  F
  F34      1.0000 0.82110  0.81150  0.10870  Biso   1.000  F
  F35      1.0000 0.82110  0.18850  0.60870  Biso   1.000  F
  F36      1.0000 0.17890  0.18850  0.89130  Biso   1.000  F
  F37      1.0000 0.24250  0.75920  0.30900  Biso   1.000  F
  F38      1.0000 0.75750  0.75920  0.19100  Biso   1.000  F
  F39      1.0000 0.75750  0.24080  0.69100  Biso   1.000  F
  F40      1.0000 0.24250  0.24080  0.80900  Biso   1.000  F
  F41      1.0000 0.35340  0.81350  0.39490  Biso   1.000  F
  F42      1.0000 0.64660  0.81350  0.10510  Biso   1.000  F
  F43      1.0000 0.64660  0.18650  0.60510  Biso   1.000  F
  F44      1.0000 0.35340  0.18650  0.89490  Biso   1.000  F
  F45      1.0000 0.29130  0.69510  0.40460  Biso   1.000  F
  F46      1.0000 0.70870  0.69510  0.09540  Biso   1.000  F
  F47      1.0000 0.70870  0.30490  0.59540  Biso   1.000  F
  F48      1.0000 0.29130  0.30490  0.90460  Biso   1.000  F
