data_image0
_cell_length_a       6.584
_cell_length_b       31.9132
_cell_length_c       7.3312
_cell_angle_alpha    90
_cell_angle_beta     96.756
_cell_angle_gamma    90

_symmetry_space_group_name_H-M    "P 1"
_symmetry_int_tables_number       1

loop_
  _symmetry_equiv_pos_as_xyz
  'x, y, z'

loop_
  _atom_site_label
  _atom_site_occupancy
  _atom_site_fract_x
  _atom_site_fract_y
  _atom_site_fract_z
  _atom_site_thermal_displace_type
  _atom_site_B_iso_or_equiv
  _atom_site_type_symbol
  Cu1      1.0000 0.05321  0.11267  0.84824  Biso   1.000  Cu
  Cu2      1.0000 0.94679  0.61267  0.65176  Biso   1.000  Cu
  Cu3      1.0000 0.94679  0.88733  0.15176  Biso   1.000  Cu
  Cu4      1.0000 0.05321  0.38733  0.34824  Biso   1.000  Cu
  O1       1.0000 0.86190  0.13664  0.01060  Biso   1.000  O
  O2       1.0000 0.13810  0.63664  0.48940  Biso   1.000  O
  O3       1.0000 0.13810  0.86336  0.98940  Biso   1.000  O
  O4       1.0000 0.86190  0.36336  0.51060  Biso   1.000  O
  O5       1.0000 0.85520  0.06796  0.78300  Biso   1.000  O
  O6       1.0000 0.14480  0.56796  0.71700  Biso   1.000  O
  O7       1.0000 0.14480  0.93204  0.21700  Biso   1.000  O
  O8       1.0000 0.85520  0.43204  0.28300  Biso   1.000  O
  O9       1.0000 0.26770  0.08560  0.72770  Biso   1.000  O
  O10      1.0000 0.73230  0.58560  0.77230  Biso   1.000  O
  O11      1.0000 0.73230  0.91440  0.27230  Biso   1.000  O
  O12      1.0000 0.26770  0.41440  0.22770  Biso   1.000  O
  O13      1.0000 0.67990  0.10766  0.57020  Biso   1.000  O
  O14      1.0000 0.32010  0.60766  0.92980  Biso   1.000  O
  O15      1.0000 0.32010  0.89234  0.42980  Biso   1.000  O
  O16      1.0000 0.67990  0.39234  0.07020  Biso   1.000  O
  O17      1.0000 0.11150  0.08307  0.44200  Biso   1.000  O
  O18      1.0000 0.88850  0.58307  0.05800  Biso   1.000  O
  O19      1.0000 0.88850  0.91693  0.55800  Biso   1.000  O
  O20      1.0000 0.11150  0.41693  0.94200  Biso   1.000  O
  O21      1.0000 0.21180  0.07734  0.09200  Biso   1.000  O
  O22      1.0000 0.78820  0.57734  0.40800  Biso   1.000  O
  O23      1.0000 0.78820  0.92266  0.90800  Biso   1.000  O
  O24      1.0000 0.21180  0.42266  0.59200  Biso   1.000  O
  O25      1.0000 0.71580  0.28136  0.97130  Biso   1.000  O
  O26      1.0000 0.28420  0.78136  0.52870  Biso   1.000  O
  O27      1.0000 0.28420  0.71864  0.02870  Biso   1.000  O
  O28      1.0000 0.71580  0.21864  0.47130  Biso   1.000  O
  N1       1.0000 0.19870  0.16796  0.85840  Biso   1.000  N
  N2       1.0000 0.80130  0.66796  0.64160  Biso   1.000  N
  N3       1.0000 0.80130  0.83204  0.14160  Biso   1.000  N
  N4       1.0000 0.19870  0.33204  0.35840  Biso   1.000  N
  N5       1.0000 0.42660  0.31952  0.94090  Biso   1.000  N
  N6       1.0000 0.57340  0.81952  0.55910  Biso   1.000  N
  N7       1.0000 0.57340  0.68048  0.05910  Biso   1.000  N
  N8       1.0000 0.42660  0.18048  0.44090  Biso   1.000  N
  C1       1.0000 0.24550  0.07151  0.56670  Biso   1.000  C
  C2       1.0000 0.75450  0.57151  0.93330  Biso   1.000  C
  C3       1.0000 0.75450  0.92849  0.43330  Biso   1.000  C
  C4       1.0000 0.24550  0.42849  0.06670  Biso   1.000  C
  C5       1.0000 0.40530  0.24401  0.90710  Biso   1.000  C
  C6       1.0000 0.59470  0.74401  0.59290  Biso   1.000  C
  C7       1.0000 0.59470  0.75599  0.09290  Biso   1.000  C
  C8       1.0000 0.40530  0.25599  0.40710  Biso   1.000  C
  C9       1.0000 0.59600  0.03566  0.58300  Biso   1.000  C
  C10      1.0000 0.40400  0.53566  0.91700  Biso   1.000  C
  C11      1.0000 0.40400  0.96434  0.41700  Biso   1.000  C
  C12      1.0000 0.59600  0.46434  0.08300  Biso   1.000  C
  C13      1.0000 0.38460  0.03589  0.52770  Biso   1.000  C
  C14      1.0000 0.61540  0.53589  0.97230  Biso   1.000  C
  C15      1.0000 0.61540  0.96411  0.47230  Biso   1.000  C
  C16      1.0000 0.38460  0.46411  0.02770  Biso   1.000  C
  C17      1.0000 0.29290  0.00044  0.44440  Biso   1.000  C
  C18      1.0000 0.70710  0.50044  0.05560  Biso   1.000  C
  C19      1.0000 0.70710  0.99956  0.55560  Biso   1.000  C
  C20      1.0000 0.29290  0.49956  0.94440  Biso   1.000  C
  H1       1.0000 0.15321  0.00085  0.40591  Biso   1.000  H
  H2       1.0000 0.84679  0.50085  0.09409  Biso   1.000  H
  H3       1.0000 0.84679  0.99915  0.59409  Biso   1.000  H
  H4       1.0000 0.15321  0.49915  0.90591  Biso   1.000  H
  C21      1.0000 0.50520  0.20647  0.93910  Biso   1.000  C
  C22      1.0000 0.49480  0.70647  0.56090  Biso   1.000  C
  C23      1.0000 0.49480  0.79353  0.06090  Biso   1.000  C
  C24      1.0000 0.50520  0.29353  0.43910  Biso   1.000  C
  H5       1.0000 0.64459  0.20611  0.97908  Biso   1.000  H
  H6       1.0000 0.35541  0.70611  0.52092  Biso   1.000  H
  H7       1.0000 0.35541  0.79389  0.02092  Biso   1.000  H
  H8       1.0000 0.64459  0.29389  0.47908  Biso   1.000  H
  C25      1.0000 0.71390  0.07393  0.65090  Biso   1.000  C
  C26      1.0000 0.28610  0.57393  0.84910  Biso   1.000  C
  C27      1.0000 0.28610  0.92607  0.34910  Biso   1.000  C
  C28      1.0000 0.71390  0.42607  0.15090  Biso   1.000  C
  C29      1.0000 0.10090  0.20453  0.82440  Biso   1.000  C
  C30      1.0000 0.89910  0.70453  0.67560  Biso   1.000  C
  C31      1.0000 0.89910  0.79547  0.17560  Biso   1.000  C
  C32      1.0000 0.10090  0.29547  0.32440  Biso   1.000  C
  H9       1.0000 0.96158  0.20408  0.78412  Biso   1.000  H
  H10      1.0000 0.03842  0.70408  0.71588  Biso   1.000  H
  H11      1.0000 0.03842  0.79592  0.21588  Biso   1.000  H
  H12      1.0000 0.96158  0.29592  0.28412  Biso   1.000  H
  C33      1.0000 0.52760  0.28390  0.94160  Biso   1.000  C
  C34      1.0000 0.47240  0.78390  0.55840  Biso   1.000  C
  C35      1.0000 0.47240  0.71610  0.05840  Biso   1.000  C
  C36      1.0000 0.52760  0.21610  0.44160  Biso   1.000  C
  C37      1.0000 0.19800  0.24253  0.84640  Biso   1.000  C
  C38      1.0000 0.80200  0.74253  0.65360  Biso   1.000  C
  C39      1.0000 0.80200  0.75747  0.15360  Biso   1.000  C
  C40      1.0000 0.19800  0.25747  0.34640  Biso   1.000  C
  H13      1.0000 0.12498  0.26720  0.82084  Biso   1.000  H
  H14      1.0000 0.87502  0.76720  0.67916  Biso   1.000  H
  H15      1.0000 0.87502  0.73280  0.17916  Biso   1.000  H
  H16      1.0000 0.12498  0.23280  0.32084  Biso   1.000  H
  C41      1.0000 0.39960  0.16952  0.91240  Biso   1.000  C
  C42      1.0000 0.60040  0.66952  0.58760  Biso   1.000  C
  C43      1.0000 0.60040  0.83048  0.08760  Biso   1.000  C
  C44      1.0000 0.39960  0.33048  0.41240  Biso   1.000  C
  H17      1.0000 0.47085  0.14447  0.93260  Biso   1.000  H
  H18      1.0000 0.52915  0.64447  0.56740  Biso   1.000  H
  H19      1.0000 0.52915  0.85553  0.06740  Biso   1.000  H
  H20      1.0000 0.47085  0.35553  0.43260  Biso   1.000  H
  H21      1.0000 0.48200  0.33900  0.97000  Biso   1.000  H
  H22      1.0000 0.51800  0.83900  0.53000  Biso   1.000  H
  H23      1.0000 0.51800  0.66100  0.03000  Biso   1.000  H
  H24      1.0000 0.48200  0.16100  0.47000  Biso   1.000  H
  H25      1.0000 0.29000  0.31900  0.90500  Biso   1.000  H
  H26      1.0000 0.71000  0.81900  0.59500  Biso   1.000  H
  H27      1.0000 0.71000  0.68100  0.09500  Biso   1.000  H
  H28      1.0000 0.29000  0.18100  0.40500  Biso   1.000  H
  H29      1.0000 0.17500  0.07690  0.21600  Biso   1.000  H
  H30      1.0000 0.82500  0.57690  0.28400  Biso   1.000  H
  H31      1.0000 0.82500  0.92310  0.78400  Biso   1.000  H
  H32      1.0000 0.17500  0.42310  0.71600  Biso   1.000  H
  H33      1.0000 0.34500  0.08500  0.10700  Biso   1.000  H
  H34      1.0000 0.65500  0.58500  0.39300  Biso   1.000  H
  H35      1.0000 0.65500  0.91500  0.89300  Biso   1.000  H
  H36      1.0000 0.34500  0.41500  0.60700  Biso   1.000  H
  H37      1.0000 0.77800  0.11321  0.04120  Biso   1.000  H
  H38      1.0000 0.22200  0.61321  0.45880  Biso   1.000  H
  H39      1.0000 0.22200  0.88679  0.95880  Biso   1.000  H
  H40      1.0000 0.77800  0.38679  0.54120  Biso   1.000  H
  H41      1.0000 0.92230  0.14720  0.11570  Biso   1.000  H
  H42      1.0000 0.07770  0.64720  0.38430  Biso   1.000  H
  H43      1.0000 0.07770  0.85280  0.88430  Biso   1.000  H
  H44      1.0000 0.92230  0.35280  0.61570  Biso   1.000  H
  O29      1.0000 0.98840  0.16248  0.35990  Biso   1.000  O
  O30      1.0000 0.01160  0.66248  0.14010  Biso   1.000  O
  O31      1.0000 0.01160  0.83752  0.64010  Biso   1.000  O
  O32      1.0000 0.98840  0.33752  0.85990  Biso   1.000  O
  H45      1.0000 0.00350  0.13831  0.40608  Biso   1.000  H
  H46      1.0000 0.99650  0.63831  0.09392  Biso   1.000  H
  H47      1.0000 0.99650  0.86169  0.59392  Biso   1.000  H
  H48      1.0000 0.00350  0.36169  0.90608  Biso   1.000  H
  H49      1.0000 0.89790  0.17550  0.40110  Biso   1.000  H
  H50      1.0000 0.10210  0.67550  0.09890  Biso   1.000  H
  H51      1.0000 0.10210  0.82450  0.59890  Biso   1.000  H
  H52      1.0000 0.89790  0.32450  0.90110  Biso   1.000  H
  O33      1.0000 0.63400  0.08236  0.17780  Biso   1.000  O
  O34      1.0000 0.36600  0.58236  0.32220  Biso   1.000  O
  O35      1.0000 0.36600  0.91764  0.82220  Biso   1.000  O
  O36      1.0000 0.63400  0.41764  0.67780  Biso   1.000  O
  H53      1.0000 0.66600  0.08900  0.29600  Biso   1.000  H
  H54      1.0000 0.33400  0.58900  0.20400  Biso   1.000  H
  H55      1.0000 0.33400  0.91100  0.70400  Biso   1.000  H
  H56      1.0000 0.66600  0.41100  0.79600  Biso   1.000  H
  H57      1.0000 0.67900  0.05930  0.17500  Biso   1.000  H
  H58      1.0000 0.32100  0.55930  0.32500  Biso   1.000  H
  H59      1.0000 0.32100  0.94070  0.82500  Biso   1.000  H
  H60      1.0000 0.67900  0.44070  0.67500  Biso   1.000  H
  O37      1.0000 0.79640  0.00776  0.07240  Biso   1.000  O
  O38      1.0000 0.20360  0.50776  0.42760  Biso   1.000  O
  O39      1.0000 0.20360  0.99224  0.92760  Biso   1.000  O
  O40      1.0000 0.79640  0.49224  0.57240  Biso   1.000  O
  H61      1.0000 0.85700  0.01400  0.96700  Biso   1.000  H
  H62      1.0000 0.14300  0.51400  0.53300  Biso   1.000  H
  H63      1.0000 0.14300  0.98600  0.03300  Biso   1.000  H
  H64      1.0000 0.85700  0.48600  0.46700  Biso   1.000  H
  H65      1.0000 0.67800  0.00340  0.04000  Biso   1.000  H
  H66      1.0000 0.32200  0.50340  0.46000  Biso   1.000  H
  H67      1.0000 0.32200  0.99660  0.96000  Biso   1.000  H
  H68      1.0000 0.67800  0.49660  0.54000  Biso   1.000  H
