data_image0
_cell_length_a       6.584
_cell_length_b       31.9132
_cell_length_c       7.3312
_cell_angle_alpha    90
_cell_angle_beta     96.756
_cell_angle_gamma    90

_symmetry_space_group_name_H-M    "P 1"
_symmetry_int_tables_number       1

loop_
  _symmetry_equiv_pos_as_xyz
  'x, y, z'

loop_
  _atom_site_label
  _atom_site_occupancy
  _atom_site_fract_x
  _atom_site_fract_y
  _atom_site_fract_z
  _atom_site_thermal_displace_type
  _atom_site_B_iso_or_equiv
  _atom_site_type_symbol
  Cu1      1.0000 0.05319  0.11266  0.84825  Biso   1.000  Cu
  Cu2      1.0000 0.94681  0.61266  0.65175  Biso   1.000  Cu
  Cu3      1.0000 0.94681  0.88734  0.15175  Biso   1.000  Cu
  Cu4      1.0000 0.05319  0.38734  0.34825  Biso   1.000  Cu
  O1       1.0000 0.86280  0.13647  0.01130  Biso   1.000  O
  O2       1.0000 0.13720  0.63647  0.48870  Biso   1.000  O
  O3       1.0000 0.13720  0.86353  0.98870  Biso   1.000  O
  O4       1.0000 0.86280  0.36353  0.51130  Biso   1.000  O
  H1       1.0000 0.73835  0.12339  0.02105  Biso   1.000  H
  H2       1.0000 0.26165  0.62339  0.47895  Biso   1.000  H
  H3       1.0000 0.26165  0.87661  0.97895  Biso   1.000  H
  H4       1.0000 0.73835  0.37661  0.52105  Biso   1.000  H
  H5       1.0000 0.89800  0.16072  0.07793  Biso   1.000  H
  H6       1.0000 0.10200  0.66072  0.42207  Biso   1.000  H
  H7       1.0000 0.10200  0.83928  0.92207  Biso   1.000  H
  H8       1.0000 0.89800  0.33928  0.57793  Biso   1.000  H
  O5       1.0000 0.85560  0.06797  0.78290  Biso   1.000  O
  O6       1.0000 0.14440  0.56797  0.71710  Biso   1.000  O
  O7       1.0000 0.14440  0.93203  0.21710  Biso   1.000  O
  O8       1.0000 0.85560  0.43203  0.28290  Biso   1.000  O
  O9       1.0000 0.26780  0.08562  0.72740  Biso   1.000  O
  O10      1.0000 0.73220  0.58562  0.77260  Biso   1.000  O
  O11      1.0000 0.73220  0.91438  0.27260  Biso   1.000  O
  O12      1.0000 0.26780  0.41438  0.22740  Biso   1.000  O
  O13      1.0000 0.67980  0.10763  0.57010  Biso   1.000  O
  O14      1.0000 0.32020  0.60763  0.92990  Biso   1.000  O
  O15      1.0000 0.32020  0.89237  0.42990  Biso   1.000  O
  O16      1.0000 0.67980  0.39237  0.07010  Biso   1.000  O
  O17      1.0000 0.11170  0.08312  0.44220  Biso   1.000  O
  O18      1.0000 0.88830  0.58312  0.05780  Biso   1.000  O
  O19      1.0000 0.88830  0.91688  0.55780  Biso   1.000  O
  O20      1.0000 0.11170  0.41688  0.94220  Biso   1.000  O
  O21      1.0000 0.21180  0.07764  0.09200  Biso   1.000  O
  O22      1.0000 0.78820  0.57764  0.40800  Biso   1.000  O
  O23      1.0000 0.78820  0.92236  0.90800  Biso   1.000  O
  O24      1.0000 0.21180  0.42236  0.59200  Biso   1.000  O
  H9       1.0000 0.16652  0.05113  0.12097  Biso   1.000  H
  H10      1.0000 0.83348  0.55113  0.37903  Biso   1.000  H
  H11      1.0000 0.83348  0.94887  0.87903  Biso   1.000  H
  H12      1.0000 0.16652  0.44887  0.62097  Biso   1.000  H
  H13      1.0000 0.32251  0.08973  0.16357  Biso   1.000  H
  H14      1.0000 0.67749  0.58973  0.33643  Biso   1.000  H
  H15      1.0000 0.67749  0.91027  0.83643  Biso   1.000  H
  H16      1.0000 0.32251  0.41027  0.66357  Biso   1.000  H
  O25      1.0000 0.71600  0.28140  0.97160  Biso   1.000  O
  O26      1.0000 0.28400  0.78140  0.52840  Biso   1.000  O
  O27      1.0000 0.28400  0.71860  0.02840  Biso   1.000  O
  O28      1.0000 0.71600  0.21860  0.47160  Biso   1.000  O
  N1       1.0000 0.19880  0.16794  0.85860  Biso   1.000  N
  N2       1.0000 0.80120  0.66794  0.64140  Biso   1.000  N
  N3       1.0000 0.80120  0.83206  0.14140  Biso   1.000  N
  N4       1.0000 0.19880  0.33206  0.35860  Biso   1.000  N
  N5       1.0000 0.42690  0.31962  0.94140  Biso   1.000  N
  N6       1.0000 0.57310  0.81962  0.55860  Biso   1.000  N
  N7       1.0000 0.57310  0.68038  0.05860  Biso   1.000  N
  N8       1.0000 0.42690  0.18038  0.44140  Biso   1.000  N
  H17      1.0000 0.49259  0.34273  0.96276  Biso   1.000  H
  H18      1.0000 0.50741  0.84273  0.53724  Biso   1.000  H
  H19      1.0000 0.50741  0.65727  0.03724  Biso   1.000  H
  H20      1.0000 0.49259  0.15727  0.46276  Biso   1.000  H
  H21      1.0000 0.29564  0.31983  0.91986  Biso   1.000  H
  H22      1.0000 0.70436  0.81983  0.58014  Biso   1.000  H
  H23      1.0000 0.70436  0.68017  0.08014  Biso   1.000  H
  H24      1.0000 0.29564  0.18017  0.41986  Biso   1.000  H
  C1       1.0000 0.24530  0.07146  0.56670  Biso   1.000  C
  C2       1.0000 0.75470  0.57146  0.93330  Biso   1.000  C
  C3       1.0000 0.75470  0.92854  0.43330  Biso   1.000  C
  C4       1.0000 0.24530  0.42854  0.06670  Biso   1.000  C
  C5       1.0000 0.40570  0.24405  0.90710  Biso   1.000  C
  C6       1.0000 0.59430  0.74405  0.59290  Biso   1.000  C
  C7       1.0000 0.59430  0.75595  0.09290  Biso   1.000  C
  C8       1.0000 0.40570  0.25595  0.40710  Biso   1.000  C
  C9       1.0000 0.59600  0.03568  0.58310  Biso   1.000  C
  C10      1.0000 0.40400  0.53568  0.91690  Biso   1.000  C
  C11      1.0000 0.40400  0.96432  0.41690  Biso   1.000  C
  C12      1.0000 0.59600  0.46432  0.08310  Biso   1.000  C
  C13      1.0000 0.38450  0.03592  0.52780  Biso   1.000  C
  C14      1.0000 0.61550  0.53592  0.97220  Biso   1.000  C
  C15      1.0000 0.61550  0.96408  0.47220  Biso   1.000  C
  C16      1.0000 0.38450  0.46408  0.02780  Biso   1.000  C
  C17      1.0000 0.29270  0.00045  0.44420  Biso   1.000  C
  C18      1.0000 0.70730  0.50045  0.05580  Biso   1.000  C
  C19      1.0000 0.70730  0.99955  0.55580  Biso   1.000  C
  C20      1.0000 0.29270  0.49955  0.94420  Biso   1.000  C
  H25      1.0000 0.15309  0.00087  0.40538  Biso   1.000  H
  H26      1.0000 0.84691  0.50087  0.09462  Biso   1.000  H
  H27      1.0000 0.84691  0.99913  0.59462  Biso   1.000  H
  H28      1.0000 0.15309  0.49913  0.90538  Biso   1.000  H
  C21      1.0000 0.50520  0.20656  0.93890  Biso   1.000  C
  C22      1.0000 0.49480  0.70656  0.56110  Biso   1.000  C
  C23      1.0000 0.49480  0.79344  0.06110  Biso   1.000  C
  C24      1.0000 0.50520  0.29344  0.43890  Biso   1.000  C
  H29      1.0000 0.64462  0.20621  0.97848  Biso   1.000  H
  H30      1.0000 0.35538  0.70621  0.52152  Biso   1.000  H
  H31      1.0000 0.35538  0.79379  0.02152  Biso   1.000  H
  H32      1.0000 0.64462  0.29379  0.47848  Biso   1.000  H
  C25      1.0000 0.71400  0.07398  0.65100  Biso   1.000  C
  C26      1.0000 0.28600  0.57398  0.84900  Biso   1.000  C
  C27      1.0000 0.28600  0.92602  0.34900  Biso   1.000  C
  C28      1.0000 0.71400  0.42602  0.15100  Biso   1.000  C
  C29      1.0000 0.10060  0.20456  0.82420  Biso   1.000  C
  C30      1.0000 0.89940  0.70456  0.67580  Biso   1.000  C
  C31      1.0000 0.89940  0.79544  0.17580  Biso   1.000  C
  C32      1.0000 0.10060  0.29544  0.32420  Biso   1.000  C
  H33      1.0000 0.96123  0.20413  0.78410  Biso   1.000  H
  H34      1.0000 0.03877  0.70413  0.71590  Biso   1.000  H
  H35      1.0000 0.03877  0.79587  0.21590  Biso   1.000  H
  H36      1.0000 0.96123  0.29587  0.28410  Biso   1.000  H
  C33      1.0000 0.52730  0.28393  0.94170  Biso   1.000  C
  C34      1.0000 0.47270  0.78393  0.55830  Biso   1.000  C
  C35      1.0000 0.47270  0.71607  0.05830  Biso   1.000  C
  C36      1.0000 0.52730  0.21607  0.44170  Biso   1.000  C
  C37      1.0000 0.19810  0.24251  0.84620  Biso   1.000  C
  C38      1.0000 0.80190  0.74251  0.65380  Biso   1.000  C
  C39      1.0000 0.80190  0.75749  0.15380  Biso   1.000  C
  C40      1.0000 0.19810  0.25749  0.34620  Biso   1.000  C
  H37      1.0000 0.12526  0.26718  0.82020  Biso   1.000  H
  H38      1.0000 0.87474  0.76718  0.67980  Biso   1.000  H
  H39      1.0000 0.87474  0.73282  0.17980  Biso   1.000  H
  H40      1.0000 0.12526  0.23282  0.32020  Biso   1.000  H
  C41      1.0000 0.39970  0.16950  0.91250  Biso   1.000  C
  C42      1.0000 0.60030  0.66950  0.58750  Biso   1.000  C
  C43      1.0000 0.60030  0.83050  0.08750  Biso   1.000  C
  C44      1.0000 0.39970  0.33050  0.41250  Biso   1.000  C
  H41      1.0000 0.47101  0.14446  0.93291  Biso   1.000  H
  H42      1.0000 0.52899  0.64446  0.56709  Biso   1.000  H
  H43      1.0000 0.52899  0.85554  0.06709  Biso   1.000  H
  H44      1.0000 0.47101  0.35554  0.43291  Biso   1.000  H
  O29      1.0000 0.98890  0.16250  0.36000  Biso   1.000  O
  O30      1.0000 0.01110  0.66250  0.14000  Biso   1.000  O
  O31      1.0000 0.01110  0.83750  0.64000  Biso   1.000  O
  O32      1.0000 0.98890  0.33750  0.86000  Biso   1.000  O
  H45      1.0000 0.99200  0.13660  0.40700  Biso   1.000  H
  H46      1.0000 0.00800  0.63660  0.09300  Biso   1.000  H
  H47      1.0000 0.00800  0.86340  0.59300  Biso   1.000  H
  H48      1.0000 0.99200  0.36340  0.90700  Biso   1.000  H
  H49      1.0000 0.90000  0.17460  0.38900  Biso   1.000  H
  H50      1.0000 0.10000  0.67460  0.11100  Biso   1.000  H
  H51      1.0000 0.10000  0.82540  0.61100  Biso   1.000  H
  H52      1.0000 0.90000  0.32540  0.88900  Biso   1.000  H
  O33      1.0000 0.63420  0.08247  0.17790  Biso   1.000  O
  O34      1.0000 0.36580  0.58247  0.32210  Biso   1.000  O
  O35      1.0000 0.36580  0.91753  0.82210  Biso   1.000  O
  O36      1.0000 0.63420  0.41753  0.67790  Biso   1.000  O
  H53      1.0000 0.65953  0.09176  0.28688  Biso   1.000  H
  H54      1.0000 0.34047  0.59176  0.21312  Biso   1.000  H
  H55      1.0000 0.34047  0.90824  0.71312  Biso   1.000  H
  H56      1.0000 0.65953  0.40824  0.78688  Biso   1.000  H
  H57      1.0000 0.67239  0.05706  0.17468  Biso   1.000  H
  H58      1.0000 0.32761  0.55706  0.32532  Biso   1.000  H
  H59      1.0000 0.32761  0.94294  0.82532  Biso   1.000  H
  H60      1.0000 0.67239  0.44294  0.67468  Biso   1.000  H
  O37      1.0000 0.79190  0.00769  0.07200  Biso   1.000  O
  O38      1.0000 0.20810  0.50769  0.42800  Biso   1.000  O
  O39      1.0000 0.20810  0.99231  0.92800  Biso   1.000  O
  O40      1.0000 0.79190  0.49231  0.57200  Biso   1.000  O
  H61      1.0000 0.69157  0.99088  0.05215  Biso   1.000  H
  H62      1.0000 0.30843  0.49088  0.44785  Biso   1.000  H
  H63      1.0000 0.30843  0.00912  0.94785  Biso   1.000  H
  H64      1.0000 0.69157  0.50912  0.55215  Biso   1.000  H
  H65      1.0000 0.81332  0.01603  0.96578  Biso   1.000  H
  H66      1.0000 0.18668  0.51603  0.53422  Biso   1.000  H
  H67      1.0000 0.18668  0.98397  0.03422  Biso   1.000  H
  H68      1.0000 0.81332  0.48397  0.46578  Biso   1.000  H
