data_image0
_cell_length_a       24.331
_cell_length_b       6.905
_cell_length_c       5.998
_cell_angle_alpha    90
_cell_angle_beta     90
_cell_angle_gamma    90

_symmetry_space_group_name_H-M    "P 1"
_symmetry_int_tables_number       1

loop_
  _symmetry_equiv_pos_as_xyz
  'x, y, z'

loop_
  _atom_site_label
  _atom_site_occupancy
  _atom_site_fract_x
  _atom_site_fract_y
  _atom_site_fract_z
  _atom_site_thermal_displace_type
  _atom_site_B_iso_or_equiv
  _atom_site_type_symbol
  Cu1      1.0000 0.00000  0.77661  0.75020  Biso   1.000  Cu
  Cu2      1.0000 0.50000  0.22339  0.25020  Biso   1.000  Cu
  N1       1.0000 0.00000  0.08650  0.75010  Biso   1.000  N
  N2       1.0000 0.50000  0.91350  0.25010  Biso   1.000  N
  O1       1.0000 0.07849  0.78050  0.76840  Biso   1.000  O
  O2       1.0000 0.42151  0.21950  0.26840  Biso   1.000  O
  O3       1.0000 0.57849  0.21950  0.26840  Biso   1.000  O
  O4       1.0000 0.92151  0.78050  0.76840  Biso   1.000  O
  O5       1.0000 0.00000  0.78100  0.37760  Biso   1.000  O
  O6       1.0000 0.50000  0.21900  0.87760  Biso   1.000  O
  H1       1.0000 0.96900  0.74600  0.32100  Biso   1.000  H
  H2       1.0000 0.53100  0.25400  0.82100  Biso   1.000  H
  H3       1.0000 0.46900  0.25400  0.82100  Biso   1.000  H
  H4       1.0000 0.03100  0.74600  0.32100  Biso   1.000  H
  O7       1.0000 0.09439  0.73990  0.13350  Biso   1.000  O
  O8       1.0000 0.40561  0.26010  0.63350  Biso   1.000  O
  O9       1.0000 0.59439  0.26010  0.63350  Biso   1.000  O
  O10      1.0000 0.90561  0.73990  0.13350  Biso   1.000  O
  C1       1.0000 0.10933  0.75930  0.93940  Biso   1.000  C
  C2       1.0000 0.39067  0.24070  0.43940  Biso   1.000  C
  C3       1.0000 0.60933  0.24070  0.43940  Biso   1.000  C
  C4       1.0000 0.89067  0.75930  0.93940  Biso   1.000  C
  C5       1.0000 0.16971  0.75840  0.88480  Biso   1.000  C
  C6       1.0000 0.33029  0.24160  0.38480  Biso   1.000  C
  C7       1.0000 0.66971  0.24160  0.38480  Biso   1.000  C
  C8       1.0000 0.83029  0.75840  0.88480  Biso   1.000  C
  C9       1.0000 0.20784  0.70110  0.04420  Biso   1.000  C
  C10      1.0000 0.29216  0.29890  0.54420  Biso   1.000  C
  C11      1.0000 0.70784  0.29890  0.54420  Biso   1.000  C
  C12      1.0000 0.79216  0.70110  0.04420  Biso   1.000  C
  H5       1.0000 0.19590  0.66440  0.18520  Biso   1.000  H
  H6       1.0000 0.30410  0.33560  0.68520  Biso   1.000  H
  H7       1.0000 0.69590  0.33560  0.68520  Biso   1.000  H
  H8       1.0000 0.80410  0.66440  0.18520  Biso   1.000  H
  C13      1.0000 0.26359  0.69800  0.99550  Biso   1.000  C
  C14      1.0000 0.23641  0.30200  0.49550  Biso   1.000  C
  C15      1.0000 0.76359  0.30200  0.49550  Biso   1.000  C
  C16      1.0000 0.73641  0.69800  0.99550  Biso   1.000  C
  H9       1.0000 0.28900  0.65750  0.10160  Biso   1.000  H
  H10      1.0000 0.21100  0.34250  0.60160  Biso   1.000  H
  H11      1.0000 0.78900  0.34250  0.60160  Biso   1.000  H
  H12      1.0000 0.71100  0.65750  0.10160  Biso   1.000  H
  C17      1.0000 0.28059  0.75620  0.78710  Biso   1.000  C
  C18      1.0000 0.21941  0.24380  0.28710  Biso   1.000  C
  C19      1.0000 0.78059  0.24380  0.28710  Biso   1.000  C
  C20      1.0000 0.71941  0.75620  0.78710  Biso   1.000  C
  C21      1.0000 0.24399  0.81350  0.62610  Biso   1.000  C
  C22      1.0000 0.25601  0.18650  0.12610  Biso   1.000  C
  C23      1.0000 0.74399  0.18650  0.12610  Biso   1.000  C
  C24      1.0000 0.75601  0.81350  0.62610  Biso   1.000  C
  H13      1.0000 0.25630  0.85320  0.48660  Biso   1.000  H
  H14      1.0000 0.24370  0.14680  0.98660  Biso   1.000  H
  H15      1.0000 0.75630  0.14680  0.98660  Biso   1.000  H
  H16      1.0000 0.74370  0.85320  0.48660  Biso   1.000  H
  C25      1.0000 0.18809  0.81120  0.67550  Biso   1.000  C
  C26      1.0000 0.31191  0.18880  0.17550  Biso   1.000  C
  C27      1.0000 0.68809  0.18880  0.17550  Biso   1.000  C
  C28      1.0000 0.81191  0.81120  0.67550  Biso   1.000  C
  H17      1.0000 0.16280  0.84560  0.56620  Biso   1.000  H
  H18      1.0000 0.33720  0.15440  0.06620  Biso   1.000  H
  H19      1.0000 0.66280  0.15440  0.06620  Biso   1.000  H
  H20      1.0000 0.83720  0.84560  0.56620  Biso   1.000  H
  C29      1.0000 0.04887  0.38760  0.63650  Biso   1.000  C
  C30      1.0000 0.45113  0.61240  0.13650  Biso   1.000  C
  C31      1.0000 0.54887  0.61240  0.13650  Biso   1.000  C
  C32      1.0000 0.95113  0.38760  0.63650  Biso   1.000  C
  H21      1.0000 0.08190  0.43370  0.71010  Biso   1.000  H
  H22      1.0000 0.41810  0.56630  0.21010  Biso   1.000  H
  H23      1.0000 0.58190  0.56630  0.21010  Biso   1.000  H
  H24      1.0000 0.91810  0.43370  0.71010  Biso   1.000  H
  H25      1.0000 0.04940  0.43470  0.48420  Biso   1.000  H
  H26      1.0000 0.45060  0.56530  0.98420  Biso   1.000  H
  H27      1.0000 0.54940  0.56530  0.98420  Biso   1.000  H
  H28      1.0000 0.95060  0.43470  0.48420  Biso   1.000  H
  C33      1.0000 0.00000  0.38680  0.98230  Biso   1.000  C
  C34      1.0000 0.50000  0.61320  0.48230  Biso   1.000  C
  H29      1.0000 0.96500  0.44700  0.06400  Biso   1.000  H
  H30      1.0000 0.53500  0.55300  0.56400  Biso   1.000  H
  H31      1.0000 0.46500  0.55300  0.56400  Biso   1.000  H
  H32      1.0000 0.03500  0.44700  0.06400  Biso   1.000  H
  C35      1.0000 0.00000  0.16260  0.98190  Biso   1.000  C
  C36      1.0000 0.50000  0.83740  0.48190  Biso   1.000  C
  H33      1.0000 0.03100  0.12300  0.06000  Biso   1.000  H
  H34      1.0000 0.46900  0.87700  0.56000  Biso   1.000  H
  H35      1.0000 0.53100  0.87700  0.56000  Biso   1.000  H
  H36      1.0000 0.96900  0.12300  0.06000  Biso   1.000  H
  C37      1.0000 0.04883  0.16670  0.63520  Biso   1.000  C
  C38      1.0000 0.45117  0.83330  0.13520  Biso   1.000  C
  C39      1.0000 0.54883  0.83330  0.13520  Biso   1.000  C
  C40      1.0000 0.95117  0.16670  0.63520  Biso   1.000  C
  H37      1.0000 0.04940  0.12110  0.48230  Biso   1.000  H
  H38      1.0000 0.45060  0.87890  0.98230  Biso   1.000  H
  H39      1.0000 0.54940  0.87890  0.98230  Biso   1.000  H
  H40      1.0000 0.95060  0.12110  0.48230  Biso   1.000  H
  H41      1.0000 0.08180  0.12000  0.70820  Biso   1.000  H
  H42      1.0000 0.41820  0.88000  0.20820  Biso   1.000  H
  H43      1.0000 0.58180  0.88000  0.20820  Biso   1.000  H
  H44      1.0000 0.91820  0.12000  0.70820  Biso   1.000  H
  N3       1.0000 0.00000  0.46620  0.75270  Biso   1.000  N
  N4       1.0000 0.50000  0.53380  0.25270  Biso   1.000  N
  Cl1      1.0000 0.35039  0.75755  0.72380  Biso   1.000  Cl
  Cl2      1.0000 0.14961  0.24245  0.22380  Biso   1.000  Cl
  Cl3      1.0000 0.85039  0.24245  0.22380  Biso   1.000  Cl
  Cl4      1.0000 0.64961  0.75755  0.72380  Biso   1.000  Cl
