data_image0
_cell_length_a       10.3699
_cell_length_b       10.6286
_cell_length_c       15.1683
_cell_angle_alpha    77.533
_cell_angle_beta     77.308
_cell_angle_gamma    87.342

_symmetry_space_group_name_H-M    "P 1"
_symmetry_int_tables_number       1

loop_
  _symmetry_equiv_pos_as_xyz
  'x, y, z'

loop_
  _atom_site_label
  _atom_site_occupancy
  _atom_site_fract_x
  _atom_site_fract_y
  _atom_site_fract_z
  _atom_site_thermal_displace_type
  _atom_site_B_iso_or_equiv
  _atom_site_type_symbol
  F1       1.0000 0.24510  0.29720  0.57050  Biso   1.000  F
  F2       1.0000 0.75490  0.70280  0.42950  Biso   1.000  F
  F3       1.0000 0.11350  0.23800  0.69720  Biso   1.000  F
  F4       1.0000 0.88650  0.76200  0.30280  Biso   1.000  F
  F5       1.0000 0.08050  0.41480  0.61190  Biso   1.000  F
  F6       1.0000 0.91950  0.58520  0.38810  Biso   1.000  F
  F7       1.0000 0.18140  0.37800  0.53190  Biso   1.000  F
  F8       1.0000 0.81860  0.62200  0.46810  Biso   1.000  F
  F9       1.0000 0.21280  0.23280  0.64280  Biso   1.000  F
  F10      1.0000 0.78720  0.76720  0.35720  Biso   1.000  F
  F11      1.0000 0.05800  0.36870  0.66380  Biso   1.000  F
  F12      1.0000 0.94200  0.63130  0.33620  Biso   1.000  F
  F13      1.0000 0.64740  0.33920  0.58460  Biso   1.000  F
  F14      1.0000 0.35260  0.66080  0.41540  Biso   1.000  F
  F15      1.0000 0.59230  0.17340  0.54570  Biso   1.000  F
  F16      1.0000 0.40770  0.82660  0.45430  Biso   1.000  F
  F17      1.0000 0.68470  0.32710  0.44610  Biso   1.000  F
  F18      1.0000 0.31530  0.67290  0.55390  Biso   1.000  F
  F19      1.0000 0.60700  0.21320  0.61310  Biso   1.000  F
  F20      1.0000 0.39300  0.78680  0.38690  Biso   1.000  F
  F21      1.0000 0.62620  0.23100  0.47070  Biso   1.000  F
  F22      1.0000 0.37380  0.76900  0.52930  Biso   1.000  F
  F23      1.0000 0.67780  0.38430  0.52340  Biso   1.000  F
  F24      1.0000 0.32220  0.61570  0.47660  Biso   1.000  F
  F25      1.0000 0.15290  0.69700  0.18900  Biso   1.000  F
  F26      1.0000 0.84710  0.30300  0.81100  Biso   1.000  F
  F27      1.0000 0.20250  0.80940  0.05440  Biso   1.000  F
  F28      1.0000 0.79750  0.19060  0.94560  Biso   1.000  F
  F29      1.0000 0.27810  0.85610  0.16210  Biso   1.000  F
  F30      1.0000 0.72190  0.14390  0.83790  Biso   1.000  F
  F31      1.0000 0.24430  0.80490  0.20240  Biso   1.000  F
  F32      1.0000 0.75570  0.19510  0.79760  Biso   1.000  F
  F33      1.0000 0.13460  0.72580  0.12520  Biso   1.000  F
  F34      1.0000 0.86540  0.27420  0.87480  Biso   1.000  F
  F35      1.0000 0.27980  0.86550  0.05880  Biso   1.000  F
  F36      1.0000 0.72020  0.13450  0.94120  Biso   1.000  F
  F37      1.0000 0.64500  0.39990  0.26980  Biso   1.000  F
  F38      1.0000 0.35500  0.60010  0.73020  Biso   1.000  F
  F39      1.0000 0.60250  0.58190  0.30470  Biso   1.000  F
  F40      1.0000 0.39750  0.41810  0.69530  Biso   1.000  F
  F41      1.0000 0.75850  0.56090  0.19290  Biso   1.000  F
  F42      1.0000 0.24150  0.43910  0.80710  Biso   1.000  F
  F43      1.0000 0.74020  0.45600  0.22620  Biso   1.000  F
  F44      1.0000 0.25980  0.54400  0.77380  Biso   1.000  F
  F45      1.0000 0.55930  0.48400  0.31720  Biso   1.000  F
  F46      1.0000 0.44070  0.51600  0.68280  Biso   1.000  F
  F47      1.0000 0.67000  0.64410  0.23410  Biso   1.000  F
  F48      1.0000 0.33000  0.35590  0.76590  Biso   1.000  F
  Cu1      1.0000 0.00000  0.00000  0.50000  Biso   1.000  Cu
  Cu2      1.0000 0.50000  0.50000  0.00000  Biso   1.000  Cu
  Cl1      1.0000 0.35420  0.21080  0.38220  Biso   1.000  Cl
  Cl2      1.0000 0.64580  0.78920  0.61780  Biso   1.000  Cl
  O1       1.0000 0.13230  0.05940  0.33310  Biso   1.000  O
  O2       1.0000 0.86770  0.94060  0.66690  Biso   1.000  O
  O3       1.0000 0.35400  0.31540  0.06440  Biso   1.000  O
  O4       1.0000 0.64600  0.68460  0.93560  Biso   1.000  O
  O5       1.0000 0.62740  0.91550  0.04930  Biso   1.000  O
  O6       1.0000 0.37260  0.08450  0.95070  Biso   1.000  O
  O7       1.0000 0.78430  0.90610  0.12100  Biso   1.000  O
  O8       1.0000 0.21570  0.09390  0.87900  Biso   1.000  O
  O9       1.0000 0.08530  0.12270  0.54570  Biso   1.000  O
  O10      1.0000 0.91470  0.87730  0.45430  Biso   1.000  O
  O11      1.0000 0.84370  0.10640  0.49540  Biso   1.000  O
  O12      1.0000 0.15630  0.89360  0.50460  Biso   1.000  O
  O13      1.0000 0.36860  0.62100  0.04220  Biso   1.000  O
  O14      1.0000 0.63140  0.37900  0.95780  Biso   1.000  O
  O15      1.0000 0.57770  0.48370  0.10670  Biso   1.000  O
  O16      1.0000 0.42230  0.51630  0.89330  Biso   1.000  O
  N1       1.0000 0.15390  0.14530  0.25950  Biso   1.000  N
  N2       1.0000 0.84610  0.85470  0.74050  Biso   1.000  N
  N3       1.0000 0.25960  0.26630  0.13020  Biso   1.000  N
  N4       1.0000 0.74040  0.73370  0.86980  Biso   1.000  N
  N5       1.0000 0.67120  0.93500  0.11330  Biso   1.000  N
  N6       1.0000 0.32880  0.06500  0.88670  Biso   1.000  N
  C1       1.0000 0.44410  0.12790  0.30370  Biso   1.000  C
  C2       1.0000 0.55590  0.87210  0.69630  Biso   1.000  C
  C3       1.0000 0.39960  0.12430  0.22430  Biso   1.000  C
  C4       1.0000 0.60040  0.87570  0.77570  Biso   1.000  C
  C5       1.0000 0.47740  0.06300  0.16010  Biso   1.000  C
  C6       1.0000 0.52260  0.93700  0.83990  Biso   1.000  C
  H1       1.0000 0.45300  0.06140  0.10490  Biso   1.000  H
  H2       1.0000 0.54700  0.93860  0.89510  Biso   1.000  H
  C7       1.0000 0.59230  0.00410  0.17970  Biso   1.000  C
  C8       1.0000 0.40770  0.99590  0.82030  Biso   1.000  C
  C9       1.0000 0.63460  0.00640  0.25690  Biso   1.000  C
  C10      1.0000 0.36540  0.99360  0.74310  Biso   1.000  C
  H3       1.0000 0.71300  0.96610  0.26730  Biso   1.000  H
  H4       1.0000 0.28700  0.03390  0.73270  Biso   1.000  H
  C11      1.0000 0.56110  0.06820  0.31840  Biso   1.000  C
  C12      1.0000 0.43890  0.93180  0.68160  Biso   1.000  C
  H5       1.0000 0.58920  0.07100  0.37210  Biso   1.000  H
  H6       1.0000 0.41080  0.92900  0.62790  Biso   1.000  H
  C13      1.0000 0.27410  0.17930  0.20620  Biso   1.000  C
  C14      1.0000 0.72590  0.82070  0.79380  Biso   1.000  C
  C15      1.0000 0.05060  0.23080  0.22590  Biso   1.000  C
  C16      1.0000 0.94940  0.76920  0.77410  Biso   1.000  C
  C17      1.0000 0.11770  0.29170  0.12800  Biso   1.000  C
  C18      1.0000 0.88230  0.70830  0.87200  Biso   1.000  C
  C19      1.0000 0.92120  0.17570  0.25420  Biso   1.000  C
  C20      1.0000 0.07880  0.82430  0.74580  Biso   1.000  C
  H7       1.0000 0.92130  0.09750  0.23210  Biso   1.000  H
  H8       1.0000 0.07870  0.90250  0.76790  Biso   1.000  H
  H9       1.0000 0.85970  0.23550  0.22890  Biso   1.000  H
  H10      1.0000 0.14030  0.76450  0.77110  Biso   1.000  H
  H11      1.0000 0.89550  0.15690  0.32040  Biso   1.000  H
  H12      1.0000 0.10450  0.84310  0.67960  Biso   1.000  H
  C21      1.0000 0.03230  0.34600  0.28460  Biso   1.000  C
  C22      1.0000 0.96770  0.65400  0.71540  Biso   1.000  C
  H13      1.0000 0.94870  0.38780  0.28190  Biso   1.000  H
  H14      1.0000 0.05130  0.61220  0.71810  Biso   1.000  H
  H15      1.0000 0.10220  0.40790  0.25820  Biso   1.000  H
  H16      1.0000 0.89780  0.59210  0.74180  Biso   1.000  H
  H17      1.0000 0.03510  0.30980  0.34780  Biso   1.000  H
  H18      1.0000 0.96490  0.69020  0.65220  Biso   1.000  H
  C23      1.0000 0.08860  0.19580  0.06780  Biso   1.000  C
  C24      1.0000 0.91140  0.80420  0.93220  Biso   1.000  C
  H19      1.0000 0.16840  0.18140  0.02520  Biso   1.000  H
  H20      1.0000 0.83160  0.81860  0.97480  Biso   1.000  H
  H21      1.0000 0.02290  0.23250  0.03410  Biso   1.000  H
  H22      1.0000 0.97710  0.76750  0.96590  Biso   1.000  H
  H23      1.0000 0.05690  0.11530  0.10770  Biso   1.000  H
  H24      1.0000 0.94310  0.88470  0.89230  Biso   1.000  H
  C25      1.0000 0.09380  0.42220  0.08720  Biso   1.000  C
  C26      1.0000 0.90620  0.57780  0.91280  Biso   1.000  C
  H25      1.0000 0.12840  0.47870  0.11790  Biso   1.000  H
  H26      1.0000 0.87160  0.52130  0.88210  Biso   1.000  H
  H27      1.0000 0.00040  0.43590  0.09320  Biso   1.000  H
  H28      1.0000 0.99960  0.56410  0.90680  Biso   1.000  H
  H29      1.0000 0.13650  0.43980  0.02290  Biso   1.000  H
  H30      1.0000 0.86350  0.56020  0.97710  Biso   1.000  H
  C27      1.0000 0.11780  0.29600  0.60790  Biso   1.000  C
  C28      1.0000 0.88220  0.70400  0.39210  Biso   1.000  C
  C29      1.0000 0.03140  0.22080  0.56880  Biso   1.000  C
  C30      1.0000 0.96860  0.77920  0.43120  Biso   1.000  C
  C31      1.0000 0.90560  0.26680  0.56560  Biso   1.000  C
  C32      1.0000 0.09440  0.73320  0.43440  Biso   1.000  C
  H31      1.0000 0.87730  0.34100  0.58730  Biso   1.000  H
  H32      1.0000 0.12270  0.65900  0.41270  Biso   1.000  H
  C33      1.0000 0.82090  0.20390  0.53050  Biso   1.000  C
  C34      1.0000 0.17910  0.79610  0.46950  Biso   1.000  C
  C35      1.0000 0.68800  0.25800  0.53090  Biso   1.000  C
  C36      1.0000 0.31200  0.74200  0.46910  Biso   1.000  C
  C37      1.0000 0.25110  0.76220  0.12680  Biso   1.000  C
  C38      1.0000 0.74890  0.23780  0.87320  Biso   1.000  C
  C39      1.0000 0.36470  0.66730  0.11160  Biso   1.000  C
  C40      1.0000 0.63530  0.33270  0.88840  Biso   1.000  C
  C41      1.0000 0.44590  0.64300  0.17320  Biso   1.000  C
  C42      1.0000 0.55410  0.35700  0.82680  Biso   1.000  C
  H33      1.0000 0.43380  0.68820  0.22050  Biso   1.000  H
  H34      1.0000 0.56620  0.31180  0.77950  Biso   1.000  H
  C43      1.0000 0.54830  0.55020  0.16620  Biso   1.000  C
  C44      1.0000 0.45170  0.44980  0.83380  Biso   1.000  C
  C45      1.0000 0.63440  0.52550  0.23450  Biso   1.000  C
  C46      1.0000 0.36560  0.47450  0.76550  Biso   1.000  C
