data_image0
_cell_length_a       11.194
_cell_length_b       10.492
_cell_length_c       6.976
_cell_angle_alpha    94.62
_cell_angle_beta     97.78
_cell_angle_gamma    102.54

_symmetry_space_group_name_H-M    "P 1"
_symmetry_int_tables_number       1

loop_
  _symmetry_equiv_pos_as_xyz
  'x, y, z'

loop_
  _atom_site_label
  _atom_site_occupancy
  _atom_site_fract_x
  _atom_site_fract_y
  _atom_site_fract_z
  _atom_site_thermal_displace_type
  _atom_site_B_iso_or_equiv
  _atom_site_type_symbol
  Cu1      1.0000 0.47111  0.45692  0.23553  Biso   1.000  Cu
  Cu2      1.0000 0.52889  0.54308  0.76447  Biso   1.000  Cu
  Na1      1.0000 0.97930  0.60320  0.18730  Biso   1.000  Na
  Na2      1.0000 0.02070  0.39680  0.81270  Biso   1.000  Na
  Na3      1.0000 0.13060  0.98850  0.17230  Biso   1.000  Na
  Na4      1.0000 0.86940  0.01150  0.82770  Biso   1.000  Na
  O1       1.0000 0.34740  0.29130  0.22480  Biso   1.000  O
  O2       1.0000 0.65260  0.70870  0.77520  Biso   1.000  O
  O3       1.0000 0.14460  0.22270  0.23260  Biso   1.000  O
  O4       1.0000 0.85540  0.77730  0.76740  Biso   1.000  O
  O5       1.0000 0.11960  0.47750  0.21080  Biso   1.000  O
  O6       1.0000 0.88040  0.52250  0.78920  Biso   1.000  O
  O7       1.0000 0.60810  0.36840  0.22040  Biso   1.000  O
  O8       1.0000 0.39190  0.63160  0.77960  Biso   1.000  O
  O9       1.0000 0.81290  0.42110  0.21260  Biso   1.000  O
  O10      1.0000 0.18710  0.57890  0.78740  Biso   1.000  O
  O11      1.0000 0.80120  0.68060  0.20470  Biso   1.000  O
  O12      1.0000 0.19880  0.31940  0.79530  Biso   1.000  O
  N1       1.0000 0.33430  0.53840  0.25270  Biso   1.000  N
  N2       1.0000 0.66570  0.46160  0.74730  Biso   1.000  N
  N3       1.0000 0.59590  0.61520  0.23540  Biso   1.000  N
  N4       1.0000 0.40410  0.38480  0.76460  Biso   1.000  N
  C1       1.0000 0.23840  0.31090  0.23050  Biso   1.000  C
  C2       1.0000 0.76160  0.68910  0.76950  Biso   1.000  C
  C3       1.0000 0.22660  0.45520  0.22990  Biso   1.000  C
  C4       1.0000 0.77340  0.54480  0.77010  Biso   1.000  C
  C5       1.0000 0.71040  0.44970  0.21550  Biso   1.000  C
  C6       1.0000 0.28960  0.55030  0.78450  Biso   1.000  C
  C7       1.0000 0.70660  0.59650  0.21980  Biso   1.000  C
  C8       1.0000 0.29340  0.40350  0.78020  Biso   1.000  C
  C9       1.0000 0.34030  0.67980  0.26450  Biso   1.000  C
  C10      1.0000 0.65970  0.32020  0.73550  Biso   1.000  C
  C11      1.0000 0.47000  0.75890  0.36140  Biso   1.000  C
  C12      1.0000 0.53000  0.24110  0.63860  Biso   1.000  C
  C13      1.0000 0.57410  0.74850  0.24670  Biso   1.000  C
  C14      1.0000 0.42590  0.25150  0.75330  Biso   1.000  C
  O13      1.0000 0.07990  0.76830  0.00500  Biso   1.000  O
  O14      1.0000 0.92010  0.23170  0.99500  Biso   1.000  O
  O15      1.0000 0.03120  0.68360  0.52050  Biso   1.000  O
  O16      1.0000 0.96880  0.31640  0.47950  Biso   1.000  O
  O17      1.0000 0.90810  0.94280  0.17010  Biso   1.000  O
  O18      1.0000 0.09190  0.05720  0.82990  Biso   1.000  O
  O19      1.0000 0.35400  0.02910  0.14730  Biso   1.000  O
  O20      1.0000 0.64600  0.97090  0.85270  Biso   1.000  O
  O21      1.0000 0.62190  0.09630  0.22610  Biso   1.000  O
  O22      1.0000 0.37810  0.90370  0.77390  Biso   1.000  O
  O23      1.0000 0.17180  0.93220  0.50000  Biso   1.000  O
  O24      1.0000 0.82820  0.06780  0.50000  Biso   1.000  O
  H1       1.0000 0.27860  0.70030  0.33940  Biso   1.000  H
  H2       1.0000 0.72140  0.29970  0.66060  Biso   1.000  H
  H3       1.0000 0.32180  0.70440  0.13460  Biso   1.000  H
  H4       1.0000 0.67820  0.29560  0.86540  Biso   1.000  H
  H5       1.0000 0.46750  0.85070  0.38320  Biso   1.000  H
  H6       1.0000 0.53250  0.14930  0.61680  Biso   1.000  H
  H7       1.0000 0.48910  0.72940  0.48780  Biso   1.000  H
  H8       1.0000 0.51090  0.27060  0.51220  Biso   1.000  H
  H9       1.0000 0.55320  0.77100  0.11620  Biso   1.000  H
  H10      1.0000 0.44680  0.22900  0.88380  Biso   1.000  H
  H11      1.0000 0.64940  0.81070  0.30880  Biso   1.000  H
  H12      1.0000 0.35060  0.18930  0.69120  Biso   1.000  H
