data_image0
_cell_length_a       6.986
_cell_length_b       10.466
_cell_length_c       11.182
_cell_angle_alpha    102.509
_cell_angle_beta     97.961
_cell_angle_gamma    94.433

_symmetry_space_group_name_H-M    "P 1"
_symmetry_int_tables_number       1

loop_
  _symmetry_equiv_pos_as_xyz
  'x, y, z'

loop_
  _atom_site_label
  _atom_site_occupancy
  _atom_site_fract_x
  _atom_site_fract_y
  _atom_site_fract_z
  _atom_site_thermal_displace_type
  _atom_site_B_iso_or_equiv
  _atom_site_type_symbol
  Cu1      1.0000 0.23534  0.95696  0.97105  Biso   1.000  Cu
  Cu2      1.0000 0.76466  0.04304  0.02895  Biso   1.000  Cu
  Na1      1.0000 0.18737  0.10336  0.47923  Biso   1.000  Na
  Na2      1.0000 0.81263  0.89664  0.52077  Biso   1.000  Na
  Na3      1.0000 0.17267  0.48909  0.63122  Biso   1.000  Na
  Na4      1.0000 0.82733  0.51091  0.36878  Biso   1.000  Na
  O1       1.0000 0.21900  0.86878  0.10863  Biso   1.000  O
  O2       1.0000 0.78100  0.13122  0.89137  Biso   1.000  O
  O3       1.0000 0.21240  0.92103  0.31169  Biso   1.000  O
  O4       1.0000 0.78760  0.07897  0.68831  Biso   1.000  O
  O5       1.0000 0.20490  0.18036  0.30123  Biso   1.000  O
  O6       1.0000 0.79510  0.81964  0.69877  Biso   1.000  O
  O7       1.0000 0.22440  0.79215  0.84709  Biso   1.000  O
  O8       1.0000 0.77560  0.20785  0.15291  Biso   1.000  O
  O9       1.0000 0.23390  0.72339  0.64562  Biso   1.000  O
  O10      1.0000 0.76610  0.27661  0.35438  Biso   1.000  O
  O11      1.0000 0.20900  0.97776  0.62001  Biso   1.000  O
  O12      1.0000 0.79100  0.02224  0.37999  Biso   1.000  O
  N1       1.0000 0.23620  0.11496  0.09500  Biso   1.000  N
  N2       1.0000 0.76380  0.88504  0.90500  Biso   1.000  N
  N3       1.0000 0.25340  0.03810  0.83427  Biso   1.000  N
  N4       1.0000 0.74660  0.96190  0.16573  Biso   1.000  N
  C1       1.0000 0.21710  0.95030  0.21100  Biso   1.000  C
  C2       1.0000 0.78290  0.04970  0.78900  Biso   1.000  C
  C3       1.0000 0.21960  0.09730  0.20520  Biso   1.000  C
  C4       1.0000 0.78040  0.90270  0.79480  Biso   1.000  C
  C5       1.0000 0.24900  0.24850  0.07380  Biso   1.000  C
  C6       1.0000 0.75100  0.75150  0.92620  Biso   1.000  C
  C7       1.0000 0.36150  0.25990  0.96870  Biso   1.000  C
  C8       1.0000 0.63850  0.74010  0.03130  Biso   1.000  C
  C9       1.0000 0.26630  0.18010  0.84090  Biso   1.000  C
  C10      1.0000 0.73370  0.81990  0.15910  Biso   1.000  C
  C11      1.0000 0.23020  0.95540  0.72640  Biso   1.000  C
  C12      1.0000 0.76980  0.04460  0.27360  Biso   1.000  C
  C13      1.0000 0.22910  0.81050  0.73810  Biso   1.000  C
  C14      1.0000 0.77090  0.18950  0.26190  Biso   1.000  C
  O13      1.0000 0.00770  0.26911  0.57990  Biso   1.000  O
  O14      1.0000 0.99230  0.73089  0.42010  Biso   1.000  O
  O15      1.0000 0.51770  0.18300  0.53250  Biso   1.000  O
  O16      1.0000 0.48230  0.81700  0.46750  Biso   1.000  O
  O17      1.0000 0.49760  0.43340  0.67000  Biso   1.000  O
  O18      1.0000 0.50240  0.56660  0.33000  Biso   1.000  O
  O19      1.0000 0.16920  0.44324  0.40868  Biso   1.000  O
  O20      1.0000 0.83080  0.55676  0.59132  Biso   1.000  O
  O21      1.0000 0.14690  0.52840  0.85358  Biso   1.000  O
  O22      1.0000 0.85310  0.47160  0.14642  Biso   1.000  O
  O23      1.0000 0.77280  0.40480  0.87740  Biso   1.000  O
  O24      1.0000 0.22720  0.59520  0.12260  Biso   1.000  O
  H1       1.0000 0.11400  0.27100  0.05400  Biso   1.000  H
  H2       1.0000 0.88600  0.72900  0.94600  Biso   1.000  H
  H3       1.0000 0.30400  0.31100  0.14500  Biso   1.000  H
  H4       1.0000 0.69600  0.68900  0.85500  Biso   1.000  H
  H5       1.0000 0.37400  0.35500  0.96500  Biso   1.000  H
  H6       1.0000 0.62600  0.64500  0.03500  Biso   1.000  H
  H7       1.0000 0.48600  0.23300  0.98600  Biso   1.000  H
  H8       1.0000 0.51400  0.76700  0.01400  Biso   1.000  H
  H9       1.0000 0.13200  0.20100  0.82000  Biso   1.000  H
  H10      1.0000 0.86800  0.79900  0.18000  Biso   1.000  H
  H11      1.0000 0.34200  0.19800  0.78100  Biso   1.000  H
  H12      1.0000 0.65800  0.80200  0.21900  Biso   1.000  H
  H13      1.0000 0.93100  0.27600  0.52000  Biso   1.000  H
  H14      1.0000 0.06900  0.72400  0.48000  Biso   1.000  H
  H15      1.0000 0.95500  0.23400  0.62700  Biso   1.000  H
  H16      1.0000 0.04500  0.76600  0.37300  Biso   1.000  H
  H17      1.0000 0.57700  0.18600  0.47500  Biso   1.000  H
  H18      1.0000 0.42300  0.81400  0.52500  Biso   1.000  H
  H19      1.0000 0.59100  0.14700  0.57400  Biso   1.000  H
  H20      1.0000 0.40900  0.85300  0.42600  Biso   1.000  H
  H21      1.0000 0.50500  0.36010  0.62800  Biso   1.000  H
  H22      1.0000 0.49500  0.63990  0.37200  Biso   1.000  H
  H23      1.0000 0.55200  0.42500  0.73650  Biso   1.000  H
  H24      1.0000 0.44800  0.57500  0.26350  Biso   1.000  H
  H25      1.0000 0.26700  0.48500  0.39900  Biso   1.000  H
  H26      1.0000 0.73300  0.51500  0.60100  Biso   1.000  H
  H27      1.0000 0.16600  0.36840  0.36600  Biso   1.000  H
  H28      1.0000 0.83400  0.63160  0.63400  Biso   1.000  H
  H29      1.0000 0.15700  0.60800  0.85900  Biso   1.000  H
  H30      1.0000 0.84300  0.39200  0.14100  Biso   1.000  H
  H31      1.0000 0.03800  0.48800  0.83900  Biso   1.000  H
  H32      1.0000 0.96200  0.51200  0.16100  Biso   1.000  H
  H33      1.0000 0.78400  0.44000  0.95100  Biso   1.000  H
  H34      1.0000 0.21600  0.56000  0.04900  Biso   1.000  H
  H35      1.0000 0.77900  0.32650  0.87300  Biso   1.000  H
  H36      1.0000 0.22100  0.67350  0.12700  Biso   1.000  H
