data_image0
_cell_length_a       16.22
_cell_length_b       16.22
_cell_length_c       16.563
_cell_angle_alpha    90
_cell_angle_beta     90
_cell_angle_gamma    90

_symmetry_space_group_name_H-M    "P 1"
_symmetry_int_tables_number       1

loop_
  _symmetry_equiv_pos_as_xyz
  'x, y, z'

loop_
  _atom_site_label
  _atom_site_occupancy
  _atom_site_fract_x
  _atom_site_fract_y
  _atom_site_fract_z
  _atom_site_thermal_displace_type
  _atom_site_B_iso_or_equiv
  _atom_site_type_symbol
  O1       1.0000 0.68070  0.31930  0.25000  Biso   1.000  O
  O2       1.0000 0.31930  0.68070  0.75000  Biso   1.000  O
  O3       1.0000 0.18070  0.18070  0.00000  Biso   1.000  O
  O4       1.0000 0.81930  0.81930  0.50000  Biso   1.000  O
  C1       1.0000 0.76640  0.32950  0.27890  Biso   1.000  C
  C2       1.0000 0.23360  0.67050  0.77890  Biso   1.000  C
  C3       1.0000 0.17050  0.26640  0.02890  Biso   1.000  C
  C4       1.0000 0.82950  0.73360  0.52890  Biso   1.000  C
  C5       1.0000 0.73360  0.82950  0.47110  Biso   1.000  C
  C6       1.0000 0.26640  0.17050  0.97110  Biso   1.000  C
  C7       1.0000 0.32950  0.76640  0.72110  Biso   1.000  C
  C8       1.0000 0.67050  0.23360  0.22110  Biso   1.000  C
  O5       1.0000 0.44750  0.97970  0.36610  Biso   1.000  O
  O6       1.0000 0.55250  0.02030  0.86610  Biso   1.000  O
  O7       1.0000 0.52030  0.94750  0.11610  Biso   1.000  O
  O8       1.0000 0.47970  0.05250  0.61610  Biso   1.000  O
  O9       1.0000 0.05250  0.47970  0.38390  Biso   1.000  O
  O10      1.0000 0.94750  0.52030  0.88390  Biso   1.000  O
  O11      1.0000 0.97970  0.44750  0.63390  Biso   1.000  O
  O12      1.0000 0.02030  0.55250  0.13390  Biso   1.000  O
  C9       1.0000 0.40170  0.95900  0.43490  Biso   1.000  C
  C10      1.0000 0.59830  0.04100  0.93490  Biso   1.000  C
  C11      1.0000 0.54100  0.90170  0.18490  Biso   1.000  C
  C12      1.0000 0.45900  0.09830  0.68490  Biso   1.000  C
  C13      1.0000 0.09830  0.45900  0.31510  Biso   1.000  C
  C14      1.0000 0.90170  0.54100  0.81510  Biso   1.000  C
  C15      1.0000 0.95900  0.40170  0.56510  Biso   1.000  C
  C16      1.0000 0.04100  0.59830  0.06510  Biso   1.000  C
  Cu1      1.0000 0.41479  0.25972  0.33202  Biso   1.000  Cu
  Cu2      1.0000 0.58521  0.74028  0.83202  Biso   1.000  Cu
  Cu3      1.0000 0.24028  0.91479  0.08202  Biso   1.000  Cu
  Cu4      1.0000 0.75972  0.08521  0.58202  Biso   1.000  Cu
  Cu5      1.0000 0.08521  0.75972  0.41798  Biso   1.000  Cu
  Cu6      1.0000 0.91479  0.24028  0.91798  Biso   1.000  Cu
  Cu7      1.0000 0.25972  0.41479  0.66798  Biso   1.000  Cu
  Cu8      1.0000 0.74028  0.58521  0.16798  Biso   1.000  Cu
  Cl1      1.0000 0.35162  0.39115  0.32575  Biso   1.000  Cl
  Cl2      1.0000 0.64838  0.60885  0.82575  Biso   1.000  Cl
  Cl3      1.0000 0.10885  0.85162  0.07575  Biso   1.000  Cl
  Cl4      1.0000 0.89115  0.14838  0.57575  Biso   1.000  Cl
  Cl5      1.0000 0.14838  0.89115  0.42425  Biso   1.000  Cl
  Cl6      1.0000 0.85162  0.10885  0.92425  Biso   1.000  Cl
  Cl7      1.0000 0.39115  0.35162  0.67425  Biso   1.000  Cl
  Cl8      1.0000 0.60885  0.64838  0.17425  Biso   1.000  Cl
  O13      1.0000 0.50310  0.21860  0.25530  Biso   1.000  O
  O14      1.0000 0.49690  0.78140  0.75530  Biso   1.000  O
  O15      1.0000 0.28140  0.00310  0.00530  Biso   1.000  O
  O16      1.0000 0.71860  0.99690  0.50530  Biso   1.000  O
  O17      1.0000 0.99690  0.71860  0.49470  Biso   1.000  O
  O18      1.0000 0.00310  0.28140  0.99470  Biso   1.000  O
  O19      1.0000 0.21860  0.50310  0.74470  Biso   1.000  O
  O20      1.0000 0.78140  0.49690  0.24470  Biso   1.000  O
  O21      1.0000 0.52260  0.13240  0.15550  Biso   1.000  O
  O22      1.0000 0.47740  0.86760  0.65550  Biso   1.000  O
  O23      1.0000 0.36760  0.02260  0.90550  Biso   1.000  O
  O24      1.0000 0.63240  0.97740  0.40550  Biso   1.000  O
  O25      1.0000 0.97740  0.63240  0.59450  Biso   1.000  O
  O26      1.0000 0.02260  0.36760  0.09450  Biso   1.000  O
  O27      1.0000 0.13240  0.52260  0.84450  Biso   1.000  O
  O28      1.0000 0.86760  0.47740  0.34450  Biso   1.000  O
  N1       1.0000 0.33710  0.19760  0.41240  Biso   1.000  N
  N2       1.0000 0.66290  0.80240  0.91240  Biso   1.000  N
  N3       1.0000 0.30240  0.83710  0.16240  Biso   1.000  N
  N4       1.0000 0.69760  0.16290  0.66240  Biso   1.000  N
  N5       1.0000 0.16290  0.69760  0.33760  Biso   1.000  N
  N6       1.0000 0.83710  0.30240  0.83760  Biso   1.000  N
  N7       1.0000 0.19760  0.33710  0.58760  Biso   1.000  N
  N8       1.0000 0.80240  0.66290  0.08760  Biso   1.000  N
  N9       1.0000 0.34320  0.20030  0.25040  Biso   1.000  N
  N10      1.0000 0.65680  0.79970  0.75040  Biso   1.000  N
  N11      1.0000 0.29970  0.84320  0.00040  Biso   1.000  N
  N12      1.0000 0.70030  0.15680  0.50040  Biso   1.000  N
  N13      1.0000 0.15680  0.70030  0.49960  Biso   1.000  N
  N14      1.0000 0.84320  0.29970  0.99960  Biso   1.000  N
  N15      1.0000 0.20030  0.34320  0.74960  Biso   1.000  N
  N16      1.0000 0.79970  0.65680  0.24960  Biso   1.000  N
  N17      1.0000 0.21230  0.00180  0.15860  Biso   1.000  N
  N18      1.0000 0.78770  0.99820  0.65860  Biso   1.000  N
  N19      1.0000 0.49820  0.71230  0.90860  Biso   1.000  N
  N20      1.0000 0.50180  0.28770  0.40860  Biso   1.000  N
  N21      1.0000 0.28770  0.50180  0.59140  Biso   1.000  N
  N22      1.0000 0.71230  0.49820  0.09140  Biso   1.000  N
  N23      1.0000 0.00180  0.21230  0.84140  Biso   1.000  N
  N24      1.0000 0.99820  0.78770  0.34140  Biso   1.000  N
  N25      1.0000 0.14190  0.09120  0.23390  Biso   1.000  N
  N26      1.0000 0.85810  0.90880  0.73390  Biso   1.000  N
  N27      1.0000 0.40880  0.64190  0.98390  Biso   1.000  N
  N28      1.0000 0.59120  0.35810  0.48390  Biso   1.000  N
  N29      1.0000 0.35810  0.59120  0.51610  Biso   1.000  N
  N30      1.0000 0.64190  0.40880  0.01610  Biso   1.000  N
  N31      1.0000 0.09120  0.14190  0.76610  Biso   1.000  N
  N32      1.0000 0.90880  0.85810  0.26610  Biso   1.000  N
  C17      1.0000 0.34770  0.18980  0.49280  Biso   1.000  C
  C18      1.0000 0.65230  0.81020  0.99280  Biso   1.000  C
  C19      1.0000 0.31020  0.84770  0.24280  Biso   1.000  C
  C20      1.0000 0.68980  0.15230  0.74280  Biso   1.000  C
  C21      1.0000 0.15230  0.68980  0.25720  Biso   1.000  C
  C22      1.0000 0.84770  0.31020  0.75720  Biso   1.000  C
  C23      1.0000 0.18980  0.34770  0.50720  Biso   1.000  C
  C24      1.0000 0.81020  0.65230  0.00720  Biso   1.000  C
  H1       1.0000 0.38870  0.22200  0.51890  Biso   1.000  H
  H2       1.0000 0.61130  0.77800  0.01890  Biso   1.000  H
  H3       1.0000 0.27800  0.88870  0.26890  Biso   1.000  H
  H4       1.0000 0.72200  0.11130  0.76890  Biso   1.000  H
  H5       1.0000 0.11130  0.72200  0.23110  Biso   1.000  H
  H6       1.0000 0.88870  0.27800  0.73110  Biso   1.000  H
  H7       1.0000 0.22200  0.38870  0.48110  Biso   1.000  H
  H8       1.0000 0.77800  0.61130  0.98110  Biso   1.000  H
  C25      1.0000 0.30000  0.13580  0.53850  Biso   1.000  C
  C26      1.0000 0.70000  0.86420  0.03850  Biso   1.000  C
  C27      1.0000 0.36420  0.80000  0.28850  Biso   1.000  C
  C28      1.0000 0.63580  0.20000  0.78850  Biso   1.000  C
  C29      1.0000 0.20000  0.63580  0.21150  Biso   1.000  C
  C30      1.0000 0.80000  0.36420  0.71150  Biso   1.000  C
  C31      1.0000 0.13580  0.30000  0.46150  Biso   1.000  C
  C32      1.0000 0.86420  0.70000  0.96150  Biso   1.000  C
  H9       1.0000 0.30760  0.13110  0.59510  Biso   1.000  H
  H10      1.0000 0.69240  0.86890  0.09510  Biso   1.000  H
  H11      1.0000 0.36890  0.80760  0.34510  Biso   1.000  H
  H12      1.0000 0.63110  0.19240  0.84510  Biso   1.000  H
  H13      1.0000 0.19240  0.63110  0.15490  Biso   1.000  H
  H14      1.0000 0.80760  0.36890  0.65490  Biso   1.000  H
  H15      1.0000 0.13110  0.30760  0.40490  Biso   1.000  H
  H16      1.0000 0.86890  0.69240  0.90490  Biso   1.000  H
  C33      1.0000 0.24130  0.08920  0.49870  Biso   1.000  C
  C34      1.0000 0.75870  0.91080  0.99870  Biso   1.000  C
  C35      1.0000 0.41080  0.74130  0.24870  Biso   1.000  C
  C36      1.0000 0.58920  0.25870  0.74870  Biso   1.000  C
  C37      1.0000 0.25870  0.58920  0.25130  Biso   1.000  C
  C38      1.0000 0.74130  0.41080  0.75130  Biso   1.000  C
  C39      1.0000 0.08920  0.24130  0.50130  Biso   1.000  C
  C40      1.0000 0.91080  0.75870  0.00130  Biso   1.000  C
  H17      1.0000 0.20990  0.04940  0.52740  Biso   1.000  H
  H18      1.0000 0.79010  0.95060  0.02740  Biso   1.000  H
  H19      1.0000 0.45060  0.70990  0.27740  Biso   1.000  H
  H20      1.0000 0.54940  0.29010  0.77740  Biso   1.000  H
  H21      1.0000 0.29010  0.54940  0.22260  Biso   1.000  H
  H22      1.0000 0.70990  0.45060  0.72260  Biso   1.000  H
  H23      1.0000 0.04940  0.20990  0.47260  Biso   1.000  H
  H24      1.0000 0.95060  0.79010  0.97260  Biso   1.000  H
  O29      1.0000 0.10430  0.23850  0.17610  Biso   1.000  O
  O30      1.0000 0.89570  0.76150  0.67610  Biso   1.000  O
  O31      1.0000 0.26150  0.60430  0.92610  Biso   1.000  O
  O32      1.0000 0.73850  0.39570  0.42610  Biso   1.000  O
  O33      1.0000 0.39570  0.73850  0.57390  Biso   1.000  O
  O34      1.0000 0.60430  0.26150  0.07390  Biso   1.000  O
  O35      1.0000 0.23850  0.10430  0.82390  Biso   1.000  O
  O36      1.0000 0.76150  0.89570  0.32390  Biso   1.000  O
  C41      1.0000 0.22850  0.10080  0.41660  Biso   1.000  C
  C42      1.0000 0.77150  0.89920  0.91660  Biso   1.000  C
  C43      1.0000 0.39920  0.72850  0.16660  Biso   1.000  C
  C44      1.0000 0.60080  0.27150  0.66660  Biso   1.000  C
  C45      1.0000 0.27150  0.60080  0.33340  Biso   1.000  C
  C46      1.0000 0.72850  0.39920  0.83340  Biso   1.000  C
  C47      1.0000 0.10080  0.22850  0.58340  Biso   1.000  C
  C48      1.0000 0.89920  0.77150  0.08340  Biso   1.000  C
  H25      1.0000 0.18740  0.07030  0.38880  Biso   1.000  H
  H26      1.0000 0.81260  0.92970  0.88880  Biso   1.000  H
  H27      1.0000 0.42970  0.68740  0.13880  Biso   1.000  H
  H28      1.0000 0.57030  0.31260  0.63880  Biso   1.000  H
  H29      1.0000 0.31260  0.57030  0.36120  Biso   1.000  H
  H30      1.0000 0.68740  0.42970  0.86120  Biso   1.000  H
  H31      1.0000 0.07030  0.18740  0.61120  Biso   1.000  H
  H32      1.0000 0.92970  0.81260  0.11120  Biso   1.000  H
  C49      1.0000 0.27630  0.15710  0.37640  Biso   1.000  C
  C50      1.0000 0.72370  0.84290  0.87640  Biso   1.000  C
  C51      1.0000 0.34290  0.77630  0.12640  Biso   1.000  C
  C52      1.0000 0.65710  0.22370  0.62640  Biso   1.000  C
  C53      1.0000 0.22370  0.65710  0.37360  Biso   1.000  C
  C54      1.0000 0.77630  0.34290  0.87360  Biso   1.000  C
  C55      1.0000 0.15710  0.27630  0.62360  Biso   1.000  C
  C56      1.0000 0.84290  0.72370  0.12360  Biso   1.000  C
  C57      1.0000 0.26330  0.17960  0.28810  Biso   1.000  C
  C58      1.0000 0.73670  0.82040  0.78810  Biso   1.000  C
  C59      1.0000 0.32040  0.76330  0.03810  Biso   1.000  C
  C60      1.0000 0.67960  0.23670  0.53810  Biso   1.000  C
  C61      1.0000 0.23670  0.67960  0.46190  Biso   1.000  C
  C62      1.0000 0.76330  0.32040  0.96190  Biso   1.000  C
  C63      1.0000 0.17960  0.26330  0.71190  Biso   1.000  C
  C64      1.0000 0.82040  0.73670  0.21190  Biso   1.000  C
  H33      1.0000 0.22710  0.22950  0.28570  Biso   1.000  H
  H34      1.0000 0.77290  0.77050  0.78570  Biso   1.000  H
  H35      1.0000 0.27050  0.72710  0.03570  Biso   1.000  H
  H36      1.0000 0.72950  0.27290  0.53570  Biso   1.000  H
  H37      1.0000 0.27290  0.72950  0.46430  Biso   1.000  H
  H38      1.0000 0.72710  0.27050  0.96430  Biso   1.000  H
  H39      1.0000 0.22950  0.22710  0.71430  Biso   1.000  H
  H40      1.0000 0.77050  0.77290  0.21430  Biso   1.000  H
  C65      1.0000 0.33030  0.24810  0.17660  Biso   1.000  C
  C66      1.0000 0.66970  0.75190  0.67660  Biso   1.000  C
  C67      1.0000 0.25190  0.83030  0.92660  Biso   1.000  C
  C68      1.0000 0.74810  0.16970  0.42660  Biso   1.000  C
  C69      1.0000 0.16970  0.74810  0.57340  Biso   1.000  C
  C70      1.0000 0.83030  0.25190  0.07340  Biso   1.000  C
  C71      1.0000 0.24810  0.33030  0.82340  Biso   1.000  C
  C72      1.0000 0.75190  0.66970  0.32340  Biso   1.000  C
  H41      1.0000 0.30080  0.21440  0.13700  Biso   1.000  H
  H42      1.0000 0.69920  0.78560  0.63700  Biso   1.000  H
  H43      1.0000 0.28560  0.80080  0.88700  Biso   1.000  H
  H44      1.0000 0.71440  0.19920  0.38700  Biso   1.000  H
  H45      1.0000 0.19920  0.71440  0.61300  Biso   1.000  H
  H46      1.0000 0.80080  0.28560  0.11300  Biso   1.000  H
  H47      1.0000 0.21440  0.30080  0.86300  Biso   1.000  H
  H48      1.0000 0.78560  0.69920  0.36300  Biso   1.000  H
  H49      1.0000 0.38380  0.26460  0.15430  Biso   1.000  H
  H50      1.0000 0.61620  0.73540  0.65430  Biso   1.000  H
  H51      1.0000 0.23540  0.88380  0.90430  Biso   1.000  H
  H52      1.0000 0.76460  0.11620  0.40430  Biso   1.000  H
  H53      1.0000 0.11620  0.76460  0.59570  Biso   1.000  H
  H54      1.0000 0.88380  0.23540  0.09570  Biso   1.000  H
  H55      1.0000 0.26460  0.38380  0.84570  Biso   1.000  H
  H56      1.0000 0.73540  0.61620  0.34570  Biso   1.000  H
  H57      1.0000 0.29770  0.29740  0.18910  Biso   1.000  H
  H58      1.0000 0.70230  0.70260  0.68910  Biso   1.000  H
  H59      1.0000 0.20260  0.79770  0.93910  Biso   1.000  H
  H60      1.0000 0.79740  0.20230  0.43910  Biso   1.000  H
  H61      1.0000 0.20230  0.79740  0.56090  Biso   1.000  H
  H62      1.0000 0.79770  0.20260  0.06090  Biso   1.000  H
  H63      1.0000 0.29740  0.29770  0.81090  Biso   1.000  H
  H64      1.0000 0.70260  0.70230  0.31090  Biso   1.000  H
  C73      1.0000 0.48000  0.15680  0.21610  Biso   1.000  C
  C74      1.0000 0.52000  0.84320  0.71610  Biso   1.000  C
  C75      1.0000 0.34320  0.98000  0.96610  Biso   1.000  C
  C76      1.0000 0.65680  0.02000  0.46610  Biso   1.000  C
  C77      1.0000 0.02000  0.65680  0.53390  Biso   1.000  C
  C78      1.0000 0.98000  0.34320  0.03390  Biso   1.000  C
  C79      1.0000 0.15680  0.48000  0.78390  Biso   1.000  C
  C80      1.0000 0.84320  0.52000  0.28390  Biso   1.000  C
  C81      1.0000 0.39390  0.12490  0.23600  Biso   1.000  C
  C82      1.0000 0.60610  0.87510  0.73600  Biso   1.000  C
  C83      1.0000 0.37510  0.89390  0.98600  Biso   1.000  C
  C84      1.0000 0.62490  0.10610  0.48600  Biso   1.000  C
  C85      1.0000 0.10610  0.62490  0.51400  Biso   1.000  C
  C86      1.0000 0.89390  0.37510  0.01400  Biso   1.000  C
  C87      1.0000 0.12490  0.39390  0.76400  Biso   1.000  C
  C88      1.0000 0.87510  0.60610  0.26400  Biso   1.000  C
  H65      1.0000 0.39810  0.09540  0.28880  Biso   1.000  H
  H66      1.0000 0.60190  0.90460  0.78880  Biso   1.000  H
  H67      1.0000 0.40460  0.89810  0.03880  Biso   1.000  H
  H68      1.0000 0.59540  0.10190  0.53880  Biso   1.000  H
  H69      1.0000 0.10190  0.59540  0.46120  Biso   1.000  H
  H70      1.0000 0.89810  0.40460  0.96120  Biso   1.000  H
  H71      1.0000 0.09540  0.39810  0.71120  Biso   1.000  H
  H72      1.0000 0.90460  0.60190  0.21120  Biso   1.000  H
  C89      1.0000 0.35670  0.06410  0.17550  Biso   1.000  C
  C90      1.0000 0.64330  0.93590  0.67550  Biso   1.000  C
  C91      1.0000 0.43590  0.85670  0.92550  Biso   1.000  C
  C92      1.0000 0.56410  0.14330  0.42550  Biso   1.000  C
  C93      1.0000 0.14330  0.56410  0.57450  Biso   1.000  C
  C94      1.0000 0.85670  0.43590  0.07450  Biso   1.000  C
  C95      1.0000 0.06410  0.35670  0.82450  Biso   1.000  C
  C96      1.0000 0.93590  0.64330  0.32450  Biso   1.000  C
  H73      1.0000 0.36540  0.08410  0.11970  Biso   1.000  H
  H74      1.0000 0.63460  0.91590  0.61970  Biso   1.000  H
  H75      1.0000 0.41590  0.86540  0.86970  Biso   1.000  H
  H76      1.0000 0.58410  0.13460  0.36970  Biso   1.000  H
  H77      1.0000 0.13460  0.58410  0.63030  Biso   1.000  H
  H78      1.0000 0.86540  0.41590  0.13030  Biso   1.000  H
  H79      1.0000 0.08410  0.36540  0.88030  Biso   1.000  H
  H80      1.0000 0.91590  0.63460  0.38030  Biso   1.000  H
  H81      1.0000 0.38330  0.00950  0.18110  Biso   1.000  H
  H82      1.0000 0.61670  0.99050  0.68110  Biso   1.000  H
  H83      1.0000 0.49050  0.88330  0.93110  Biso   1.000  H
  H84      1.0000 0.50950  0.11670  0.43110  Biso   1.000  H
  H85      1.0000 0.11670  0.50950  0.56890  Biso   1.000  H
  H86      1.0000 0.88330  0.49050  0.06890  Biso   1.000  H
  H87      1.0000 0.00950  0.38330  0.81890  Biso   1.000  H
  H88      1.0000 0.99050  0.61670  0.31890  Biso   1.000  H
  C97      1.0000 0.26800  0.05750  0.19270  Biso   1.000  C
  C98      1.0000 0.73200  0.94250  0.69270  Biso   1.000  C
  C99      1.0000 0.44250  0.76800  0.94270  Biso   1.000  C
  C100     1.0000 0.55750  0.23200  0.44270  Biso   1.000  C
  C101     1.0000 0.23200  0.55750  0.55730  Biso   1.000  C
  C102     1.0000 0.76800  0.44250  0.05730  Biso   1.000  C
  C103     1.0000 0.05750  0.26800  0.80730  Biso   1.000  C
  C104     1.0000 0.94250  0.73200  0.30730  Biso   1.000  C
  C105     1.0000 0.22470  0.11290  0.23770  Biso   1.000  C
  C106     1.0000 0.77530  0.88710  0.73770  Biso   1.000  C
  C107     1.0000 0.38710  0.72470  0.98770  Biso   1.000  C
  C108     1.0000 0.61290  0.27530  0.48770  Biso   1.000  C
  C109     1.0000 0.27530  0.61290  0.51230  Biso   1.000  C
  C110     1.0000 0.72470  0.38710  0.01230  Biso   1.000  C
  C111     1.0000 0.11290  0.22470  0.76230  Biso   1.000  C
  C112     1.0000 0.88710  0.77530  0.26230  Biso   1.000  C
  C113     1.0000 0.13780  0.02390  0.18540  Biso   1.000  C
  C114     1.0000 0.86220  0.97610  0.68540  Biso   1.000  C
  C115     1.0000 0.47610  0.63780  0.93540  Biso   1.000  C
  C116     1.0000 0.52390  0.36220  0.43540  Biso   1.000  C
  C117     1.0000 0.36220  0.52390  0.56460  Biso   1.000  C
  C118     1.0000 0.63780  0.47610  0.06460  Biso   1.000  C
  C119     1.0000 0.02390  0.13780  0.81460  Biso   1.000  C
  C120     1.0000 0.97610  0.86220  0.31460  Biso   1.000  C
  H89      1.0000 0.08810  0.99580  0.17230  Biso   1.000  H
  H90      1.0000 0.91190  0.00420  0.67230  Biso   1.000  H
  H91      1.0000 0.50420  0.58810  0.92230  Biso   1.000  H
  H92      1.0000 0.49580  0.41190  0.42230  Biso   1.000  H
  H93      1.0000 0.41190  0.49580  0.57770  Biso   1.000  H
  H94      1.0000 0.58810  0.50420  0.07770  Biso   1.000  H
  H95      1.0000 0.99580  0.08810  0.82770  Biso   1.000  H
  H96      1.0000 0.00420  0.91190  0.32770  Biso   1.000  H
  C121     1.0000 0.07320  0.13760  0.26090  Biso   1.000  C
  C122     1.0000 0.92680  0.86240  0.76090  Biso   1.000  C
  C123     1.0000 0.36240  0.57320  0.01090  Biso   1.000  C
  C124     1.0000 0.63760  0.42680  0.51090  Biso   1.000  C
  C125     1.0000 0.42680  0.63760  0.48910  Biso   1.000  C
  C126     1.0000 0.57320  0.36240  0.98910  Biso   1.000  C
  C127     1.0000 0.13760  0.07320  0.73910  Biso   1.000  C
  C128     1.0000 0.86240  0.92680  0.23910  Biso   1.000  C
  C129     1.0000 0.02270  0.10210  0.32120  Biso   1.000  C
  C130     1.0000 0.97730  0.89790  0.82120  Biso   1.000  C
  C131     1.0000 0.39790  0.52270  0.07120  Biso   1.000  C
  C132     1.0000 0.60210  0.47730  0.57120  Biso   1.000  C
  C133     1.0000 0.47730  0.60210  0.42880  Biso   1.000  C
  C134     1.0000 0.52270  0.39790  0.92880  Biso   1.000  C
  C135     1.0000 0.10210  0.02270  0.67880  Biso   1.000  C
  C136     1.0000 0.89790  0.97730  0.17880  Biso   1.000  C
  C137     1.0000 0.95380  0.15060  0.34810  Biso   1.000  C
  C138     1.0000 0.04620  0.84940  0.84810  Biso   1.000  C
  C139     1.0000 0.34940  0.45380  0.09810  Biso   1.000  C
  C140     1.0000 0.65060  0.54620  0.59810  Biso   1.000  C
  C141     1.0000 0.54620  0.65060  0.40190  Biso   1.000  C
  C142     1.0000 0.45380  0.34940  0.90190  Biso   1.000  C
  C143     1.0000 0.15060  0.95380  0.65190  Biso   1.000  C
  C144     1.0000 0.84940  0.04620  0.15190  Biso   1.000  C
  H97      1.0000 0.91870  0.13050  0.38960  Biso   1.000  H
  H98      1.0000 0.08130  0.86950  0.88960  Biso   1.000  H
  H99      1.0000 0.36950  0.41870  0.13960  Biso   1.000  H
  H100     1.0000 0.63050  0.58130  0.63960  Biso   1.000  H
  H101     1.0000 0.58130  0.63050  0.36040  Biso   1.000  H
  H102     1.0000 0.41870  0.36950  0.86040  Biso   1.000  H
  H103     1.0000 0.13050  0.91870  0.61040  Biso   1.000  H
  H104     1.0000 0.86950  0.08130  0.11040  Biso   1.000  H
  C145     1.0000 0.93910  0.22680  0.31310  Biso   1.000  C
  C146     1.0000 0.06090  0.77320  0.81310  Biso   1.000  C
  C147     1.0000 0.27320  0.43910  0.06310  Biso   1.000  C
  C148     1.0000 0.72680  0.56090  0.56310  Biso   1.000  C
  C149     1.0000 0.56090  0.72680  0.43690  Biso   1.000  C
  C150     1.0000 0.43910  0.27320  0.93690  Biso   1.000  C
  C151     1.0000 0.22680  0.93910  0.68690  Biso   1.000  C
  C152     1.0000 0.77320  0.06090  0.18690  Biso   1.000  C
  H105     1.0000 0.89420  0.25900  0.33220  Biso   1.000  H
  H106     1.0000 0.10580  0.74100  0.83220  Biso   1.000  H
  H107     1.0000 0.24100  0.39420  0.08220  Biso   1.000  H
  H108     1.0000 0.75900  0.60580  0.58220  Biso   1.000  H
  H109     1.0000 0.60580  0.75900  0.41780  Biso   1.000  H
  H110     1.0000 0.39420  0.24100  0.91780  Biso   1.000  H
  H111     1.0000 0.25900  0.89420  0.66780  Biso   1.000  H
  H112     1.0000 0.74100  0.10580  0.16780  Biso   1.000  H
  C153     1.0000 0.98480  0.25590  0.25510  Biso   1.000  C
  C154     1.0000 0.01520  0.74410  0.75510  Biso   1.000  C
  C155     1.0000 0.24410  0.48480  0.00510  Biso   1.000  C
  C156     1.0000 0.75590  0.51520  0.50510  Biso   1.000  C
  C157     1.0000 0.51520  0.75590  0.49490  Biso   1.000  C
  C158     1.0000 0.48480  0.24410  0.99490  Biso   1.000  C
  C159     1.0000 0.25590  0.98480  0.74490  Biso   1.000  C
  C160     1.0000 0.74410  0.01520  0.24490  Biso   1.000  C
  H113     1.0000 0.97140  0.30730  0.23100  Biso   1.000  H
  H114     1.0000 0.02860  0.69270  0.73100  Biso   1.000  H
  H115     1.0000 0.19270  0.47140  0.98100  Biso   1.000  H
  H116     1.0000 0.80730  0.52860  0.48100  Biso   1.000  H
  H117     1.0000 0.52860  0.80730  0.51900  Biso   1.000  H
  H118     1.0000 0.47140  0.19270  0.01900  Biso   1.000  H
  H119     1.0000 0.30730  0.97140  0.76900  Biso   1.000  H
  H120     1.0000 0.69270  0.02860  0.26900  Biso   1.000  H
  C161     1.0000 0.05390  0.21140  0.22800  Biso   1.000  C
  C162     1.0000 0.94610  0.78860  0.72800  Biso   1.000  C
  C163     1.0000 0.28860  0.55390  0.97800  Biso   1.000  C
  C164     1.0000 0.71140  0.44610  0.47800  Biso   1.000  C
  C165     1.0000 0.44610  0.71140  0.52200  Biso   1.000  C
  C166     1.0000 0.55390  0.28860  0.02200  Biso   1.000  C
  C167     1.0000 0.21140  0.05390  0.77200  Biso   1.000  C
  C168     1.0000 0.78860  0.94610  0.27200  Biso   1.000  C
  O37      1.0000 0.52580  0.09830  0.18220  Biso   1.000  O
  O38      1.0000 0.47420  0.90170  0.68220  Biso   1.000  O
  O39      1.0000 0.40170  0.02580  0.93220  Biso   1.000  O
  O40      1.0000 0.59830  0.97420  0.43220  Biso   1.000  O
  O41      1.0000 0.97420  0.59830  0.56780  Biso   1.000  O
  O42      1.0000 0.02580  0.40170  0.06780  Biso   1.000  O
  O43      1.0000 0.09830  0.52580  0.81780  Biso   1.000  O
  O44      1.0000 0.90170  0.47420  0.31780  Biso   1.000  O
  O45      1.0000 0.03480  0.04130  0.34370  Biso   1.000  O
  O46      1.0000 0.96520  0.95870  0.84370  Biso   1.000  O
  O47      1.0000 0.45870  0.53480  0.09370  Biso   1.000  O
  O48      1.0000 0.54130  0.46520  0.59370  Biso   1.000  O
  O49      1.0000 0.46520  0.54130  0.40630  Biso   1.000  O
  O50      1.0000 0.53480  0.45870  0.90630  Biso   1.000  O
  O51      1.0000 0.04130  0.03480  0.65630  Biso   1.000  O
  O52      1.0000 0.95870  0.96520  0.15630  Biso   1.000  O
