data_image0
_cell_length_a       8.879
_cell_length_b       8.879
_cell_length_c       24.9879
_cell_angle_alpha    90
_cell_angle_beta     90
_cell_angle_gamma    90

_symmetry_space_group_name_H-M    "P 1"
_symmetry_int_tables_number       1

loop_
  _symmetry_equiv_pos_as_xyz
  'x, y, z'

loop_
  _atom_site_label
  _atom_site_occupancy
  _atom_site_fract_x
  _atom_site_fract_y
  _atom_site_fract_z
  _atom_site_thermal_displace_type
  _atom_site_B_iso_or_equiv
  _atom_site_type_symbol
  Cu1      1.0000 0.64965  0.31259  0.19010  Biso   1.000  Cu
  Cu2      1.0000 0.35035  0.68741  0.69010  Biso   1.000  Cu
  Cu3      1.0000 0.18741  0.14965  0.94010  Biso   1.000  Cu
  Cu4      1.0000 0.81259  0.85035  0.44010  Biso   1.000  Cu
  Cu5      1.0000 0.85035  0.81259  0.55990  Biso   1.000  Cu
  Cu6      1.0000 0.14965  0.18741  0.05990  Biso   1.000  Cu
  Cu7      1.0000 0.31259  0.64965  0.80990  Biso   1.000  Cu
  Cu8      1.0000 0.68741  0.35035  0.30990  Biso   1.000  Cu
  O1       1.0000 0.76569  0.43123  0.24300  Biso   1.000  O
  O2       1.0000 0.23431  0.56877  0.74300  Biso   1.000  O
  O3       1.0000 0.06877  0.26569  0.99300  Biso   1.000  O
  O4       1.0000 0.93123  0.73431  0.49300  Biso   1.000  O
  O5       1.0000 0.73431  0.93123  0.50700  Biso   1.000  O
  O6       1.0000 0.26569  0.06877  0.00700  Biso   1.000  O
  O7       1.0000 0.43123  0.76569  0.75700  Biso   1.000  O
  O8       1.0000 0.56877  0.23431  0.25700  Biso   1.000  O
  C1       1.0000 0.90540  0.47690  0.22966  Biso   1.000  C
  C2       1.0000 0.09460  0.52310  0.72966  Biso   1.000  C
  C3       1.0000 0.02310  0.40540  0.97966  Biso   1.000  C
  C4       1.0000 0.97690  0.59460  0.47966  Biso   1.000  C
  C5       1.0000 0.59460  0.97690  0.52034  Biso   1.000  C
  C6       1.0000 0.40540  0.02310  0.02034  Biso   1.000  C
  C7       1.0000 0.47690  0.90540  0.77034  Biso   1.000  C
  C8       1.0000 0.52310  0.09460  0.27034  Biso   1.000  C
  C9       1.0000 0.02860  0.45260  0.26315  Biso   1.000  C
  C10      1.0000 0.97140  0.54740  0.76315  Biso   1.000  C
  C11      1.0000 0.04740  0.52860  0.01315  Biso   1.000  C
  C12      1.0000 0.95260  0.47140  0.51315  Biso   1.000  C
  C13      1.0000 0.47140  0.95260  0.48685  Biso   1.000  C
  C14      1.0000 0.52860  0.04740  0.98685  Biso   1.000  C
  C15      1.0000 0.45260  0.02860  0.73685  Biso   1.000  C
  C16      1.0000 0.54740  0.97140  0.23685  Biso   1.000  C
  H1       1.0000 0.01490  0.40510  0.29600  Biso   1.000  H
  H2       1.0000 0.98510  0.59490  0.79600  Biso   1.000  H
  H3       1.0000 0.09490  0.51490  0.04600  Biso   1.000  H
  H4       1.0000 0.90510  0.48510  0.54600  Biso   1.000  H
  H5       1.0000 0.48510  0.90510  0.45400  Biso   1.000  H
  H6       1.0000 0.51490  0.09490  0.95400  Biso   1.000  H
  H7       1.0000 0.40510  0.01490  0.70400  Biso   1.000  H
  H8       1.0000 0.59490  0.98510  0.20400  Biso   1.000  H
  C17      1.0000 0.17080  0.49860  0.24797  Biso   1.000  C
  C18      1.0000 0.82920  0.50140  0.74797  Biso   1.000  C
  C19      1.0000 0.00140  0.67080  0.99797  Biso   1.000  C
  C20      1.0000 0.99860  0.32920  0.49797  Biso   1.000  C
  C21      1.0000 0.32920  0.99860  0.50203  Biso   1.000  C
  C22      1.0000 0.67080  0.00140  0.00203  Biso   1.000  C
  C23      1.0000 0.49860  0.17080  0.75203  Biso   1.000  C
  C24      1.0000 0.50140  0.82920  0.25203  Biso   1.000  C
  H9       1.0000 0.25200  0.48240  0.27080  Biso   1.000  H
  H10      1.0000 0.74800  0.51760  0.77080  Biso   1.000  H
  H11      1.0000 0.01760  0.75200  0.02080  Biso   1.000  H
  H12      1.0000 0.98240  0.24800  0.52080  Biso   1.000  H
  H13      1.0000 0.24800  0.98240  0.47920  Biso   1.000  H
  H14      1.0000 0.75200  0.01760  0.97920  Biso   1.000  H
  H15      1.0000 0.48240  0.25200  0.72920  Biso   1.000  H
  H16      1.0000 0.51760  0.74800  0.22920  Biso   1.000  H
  C25      1.0000 0.19430  0.56890  0.19893  Biso   1.000  C
  C26      1.0000 0.80570  0.43110  0.69893  Biso   1.000  C
  C27      1.0000 0.93110  0.69430  0.94893  Biso   1.000  C
  C28      1.0000 0.06890  0.30570  0.44893  Biso   1.000  C
  C29      1.0000 0.30570  0.06890  0.55107  Biso   1.000  C
  C30      1.0000 0.69430  0.93110  0.05107  Biso   1.000  C
  C31      1.0000 0.56890  0.19430  0.80107  Biso   1.000  C
  C32      1.0000 0.43110  0.80570  0.30107  Biso   1.000  C
  H17      1.0000 0.29050  0.59860  0.18870  Biso   1.000  H
  H18      1.0000 0.70950  0.40140  0.68870  Biso   1.000  H
  H19      1.0000 0.90140  0.79050  0.93870  Biso   1.000  H
  H20      1.0000 0.09860  0.20950  0.43870  Biso   1.000  H
  H21      1.0000 0.20950  0.09860  0.56130  Biso   1.000  H
  H22      1.0000 0.79050  0.90140  0.06130  Biso   1.000  H
  H23      1.0000 0.59860  0.29050  0.81130  Biso   1.000  H
  H24      1.0000 0.40140  0.70950  0.31130  Biso   1.000  H
  C33      1.0000 0.07180  0.59420  0.16540  Biso   1.000  C
  C34      1.0000 0.92820  0.40580  0.66540  Biso   1.000  C
  C35      1.0000 0.90580  0.57180  0.91540  Biso   1.000  C
  C36      1.0000 0.09420  0.42820  0.41540  Biso   1.000  C
  C37      1.0000 0.42820  0.09420  0.58460  Biso   1.000  C
  C38      1.0000 0.57180  0.90580  0.08460  Biso   1.000  C
  C39      1.0000 0.59420  0.07180  0.83460  Biso   1.000  C
  C40      1.0000 0.40580  0.92820  0.33460  Biso   1.000  C
  H25      1.0000 0.08680  0.64150  0.13260  Biso   1.000  H
  H26      1.0000 0.91320  0.35850  0.63260  Biso   1.000  H
  H27      1.0000 0.85850  0.58680  0.88260  Biso   1.000  H
  H28      1.0000 0.14150  0.41320  0.38260  Biso   1.000  H
  H29      1.0000 0.41320  0.14150  0.61740  Biso   1.000  H
  H30      1.0000 0.58680  0.85850  0.11740  Biso   1.000  H
  H31      1.0000 0.64150  0.08680  0.86740  Biso   1.000  H
  H32      1.0000 0.35850  0.91320  0.36740  Biso   1.000  H
  C41      1.0000 0.92700  0.54980  0.18003  Biso   1.000  C
  C42      1.0000 0.07300  0.45020  0.68003  Biso   1.000  C
  C43      1.0000 0.95020  0.42700  0.93003  Biso   1.000  C
  C44      1.0000 0.04980  0.57300  0.43003  Biso   1.000  C
  C45      1.0000 0.57300  0.04980  0.56997  Biso   1.000  C
  C46      1.0000 0.42700  0.95020  0.06997  Biso   1.000  C
  C47      1.0000 0.54980  0.92700  0.81997  Biso   1.000  C
  C48      1.0000 0.45020  0.07300  0.31997  Biso   1.000  C
  C49      1.0000 0.79340  0.57760  0.14414  Biso   1.000  C
  C50      1.0000 0.20660  0.42240  0.64414  Biso   1.000  C
  C51      1.0000 0.92240  0.29340  0.89414  Biso   1.000  C
  C52      1.0000 0.07760  0.70660  0.39414  Biso   1.000  C
  C53      1.0000 0.70660  0.07760  0.60586  Biso   1.000  C
  C54      1.0000 0.29340  0.92240  0.10586  Biso   1.000  C
  C55      1.0000 0.57760  0.79340  0.85586  Biso   1.000  C
  C56      1.0000 0.42240  0.20660  0.35586  Biso   1.000  C
  H33      1.0000 0.72040  0.63970  0.16280  Biso   1.000  H
  H34      1.0000 0.27960  0.36030  0.66280  Biso   1.000  H
  H35      1.0000 0.86030  0.22040  0.91280  Biso   1.000  H
  H36      1.0000 0.13970  0.77960  0.41280  Biso   1.000  H
  H37      1.0000 0.77960  0.13970  0.58720  Biso   1.000  H
  H38      1.0000 0.22040  0.86030  0.08720  Biso   1.000  H
  H39      1.0000 0.63970  0.72040  0.83720  Biso   1.000  H
  H40      1.0000 0.36030  0.27960  0.33720  Biso   1.000  H
  H41      1.0000 0.82580  0.63160  0.11240  Biso   1.000  H
  H42      1.0000 0.17420  0.36840  0.61240  Biso   1.000  H
  H43      1.0000 0.86840  0.32580  0.86240  Biso   1.000  H
  H44      1.0000 0.13160  0.67420  0.36240  Biso   1.000  H
  H45      1.0000 0.67420  0.13160  0.63760  Biso   1.000  H
  H46      1.0000 0.32580  0.86840  0.13760  Biso   1.000  H
  H47      1.0000 0.63160  0.82580  0.88760  Biso   1.000  H
  H48      1.0000 0.36840  0.17420  0.38760  Biso   1.000  H
  N1       1.0000 0.72112  0.43249  0.12798  Biso   1.000  N
  N2       1.0000 0.27888  0.56751  0.62798  Biso   1.000  N
  N3       1.0000 0.06751  0.22112  0.87798  Biso   1.000  N
  N4       1.0000 0.93249  0.77888  0.37798  Biso   1.000  N
  N5       1.0000 0.77888  0.93249  0.62202  Biso   1.000  N
  N6       1.0000 0.22112  0.06751  0.12202  Biso   1.000  N
  N7       1.0000 0.43249  0.72112  0.87202  Biso   1.000  N
  N8       1.0000 0.56751  0.27888  0.37202  Biso   1.000  N
  H49      1.0000 0.79600  0.37300  0.11390  Biso   1.000  H
  H50      1.0000 0.20400  0.62700  0.61390  Biso   1.000  H
  H51      1.0000 0.12700  0.29600  0.86390  Biso   1.000  H
  H52      1.0000 0.87300  0.70400  0.36390  Biso   1.000  H
  H53      1.0000 0.70400  0.87300  0.63610  Biso   1.000  H
  H54      1.0000 0.29600  0.12700  0.13610  Biso   1.000  H
  H55      1.0000 0.37300  0.79600  0.88610  Biso   1.000  H
  H56      1.0000 0.62700  0.20400  0.38610  Biso   1.000  H
  C57      1.0000 0.59800  0.44820  0.08770  Biso   1.000  C
  C58      1.0000 0.40200  0.55180  0.58770  Biso   1.000  C
  C59      1.0000 0.05180  0.09800  0.83770  Biso   1.000  C
  C60      1.0000 0.94820  0.90200  0.33770  Biso   1.000  C
  C61      1.0000 0.90200  0.94820  0.66230  Biso   1.000  C
  C62      1.0000 0.09800  0.05180  0.16230  Biso   1.000  C
  C63      1.0000 0.44820  0.59800  0.91230  Biso   1.000  C
  C64      1.0000 0.55180  0.40200  0.41230  Biso   1.000  C
  H57      1.0000 0.56530  0.55360  0.08730  Biso   1.000  H
  H58      1.0000 0.43470  0.44640  0.58730  Biso   1.000  H
  H59      1.0000 0.94640  0.06530  0.83730  Biso   1.000  H
  H60      1.0000 0.05360  0.93470  0.33730  Biso   1.000  H
  H61      1.0000 0.93470  0.05360  0.66270  Biso   1.000  H
  H62      1.0000 0.06530  0.94640  0.16270  Biso   1.000  H
  H63      1.0000 0.55360  0.56530  0.91270  Biso   1.000  H
  H64      1.0000 0.44640  0.43470  0.41270  Biso   1.000  H
  C65      1.0000 0.46260  0.34980  0.10315  Biso   1.000  C
  C66      1.0000 0.53740  0.65020  0.60315  Biso   1.000  C
  C67      1.0000 0.15020  0.96260  0.85315  Biso   1.000  C
  C68      1.0000 0.84980  0.03740  0.35315  Biso   1.000  C
  C69      1.0000 0.03740  0.84980  0.64685  Biso   1.000  C
  C70      1.0000 0.96260  0.15020  0.14685  Biso   1.000  C
  C71      1.0000 0.34980  0.46260  0.89685  Biso   1.000  C
  C72      1.0000 0.65020  0.53740  0.39685  Biso   1.000  C
  O9       1.0000 0.47525  0.26742  0.14543  Biso   1.000  O
  O10      1.0000 0.52475  0.73258  0.64543  Biso   1.000  O
  O11      1.0000 0.23258  0.97525  0.89543  Biso   1.000  O
  O12      1.0000 0.76742  0.02475  0.39543  Biso   1.000  O
  O13      1.0000 0.02475  0.76742  0.60457  Biso   1.000  O
  O14      1.0000 0.97525  0.23258  0.10457  Biso   1.000  O
  O15      1.0000 0.26742  0.47525  0.85457  Biso   1.000  O
  O16      1.0000 0.73258  0.52475  0.35457  Biso   1.000  O
  O17      1.0000 0.34914  0.35488  0.07448  Biso   1.000  O
  O18      1.0000 0.65086  0.64512  0.57448  Biso   1.000  O
  O19      1.0000 0.14512  0.84914  0.82448  Biso   1.000  O
  O20      1.0000 0.85488  0.15086  0.32448  Biso   1.000  O
  O21      1.0000 0.15086  0.85488  0.67552  Biso   1.000  O
  O22      1.0000 0.84914  0.14512  0.17552  Biso   1.000  O
  O23      1.0000 0.35488  0.34914  0.92552  Biso   1.000  O
  O24      1.0000 0.64512  0.65086  0.42552  Biso   1.000  O
  C73      1.0000 0.65570  0.40790  0.03166  Biso   1.000  C
  C74      1.0000 0.34430  0.59210  0.53166  Biso   1.000  C
  C75      1.0000 0.09210  0.15570  0.78166  Biso   1.000  C
  C76      1.0000 0.90790  0.84430  0.28166  Biso   1.000  C
  C77      1.0000 0.84430  0.90790  0.71834  Biso   1.000  C
  C78      1.0000 0.15570  0.09210  0.21834  Biso   1.000  C
  C79      1.0000 0.40790  0.65570  0.96834  Biso   1.000  C
  C80      1.0000 0.59210  0.34430  0.46834  Biso   1.000  C
  H65      1.0000 0.74000  0.47100  0.02290  Biso   1.000  H
  H66      1.0000 0.26000  0.52900  0.52290  Biso   1.000  H
  H67      1.0000 0.02900  0.24000  0.77290  Biso   1.000  H
  H68      1.0000 0.97100  0.76000  0.27290  Biso   1.000  H
  H69      1.0000 0.76000  0.97100  0.72710  Biso   1.000  H
  H70      1.0000 0.24000  0.02900  0.22710  Biso   1.000  H
  H71      1.0000 0.47100  0.74000  0.97710  Biso   1.000  H
  H72      1.0000 0.52900  0.26000  0.47710  Biso   1.000  H
  H73      1.0000 0.57680  0.42320  0.00600  Biso   1.000  H
  H74      1.0000 0.42320  0.57680  0.50600  Biso   1.000  H
  H75      1.0000 0.07680  0.07680  0.75600  Biso   1.000  H
  H76      1.0000 0.92320  0.92320  0.25600  Biso   1.000  H
  H77      1.0000 0.92320  0.92320  0.74400  Biso   1.000  H
  H78      1.0000 0.07680  0.07680  0.24400  Biso   1.000  H
  H79      1.0000 0.42320  0.57680  0.99400  Biso   1.000  H
  H80      1.0000 0.57680  0.42320  0.49400  Biso   1.000  H
  H81      1.0000 0.68660  0.30430  0.03100  Biso   1.000  H
  H82      1.0000 0.31340  0.69570  0.53100  Biso   1.000  H
  H83      1.0000 0.19570  0.18660  0.78100  Biso   1.000  H
  H84      1.0000 0.80430  0.81340  0.28100  Biso   1.000  H
  H85      1.0000 0.81340  0.80430  0.71900  Biso   1.000  H
  H86      1.0000 0.18660  0.19570  0.21900  Biso   1.000  H
  H87      1.0000 0.30430  0.68660  0.96900  Biso   1.000  H
  H88      1.0000 0.69570  0.31340  0.46900  Biso   1.000  H
