data_image0
_cell_length_a       8.8474
_cell_length_b       8.8474
_cell_length_c       24.917
_cell_angle_alpha    90
_cell_angle_beta     90
_cell_angle_gamma    90

_symmetry_space_group_name_H-M    "P 1"
_symmetry_int_tables_number       1

loop_
  _symmetry_equiv_pos_as_xyz
  'x, y, z'

loop_
  _atom_site_label
  _atom_site_occupancy
  _atom_site_fract_x
  _atom_site_fract_y
  _atom_site_fract_z
  _atom_site_thermal_displace_type
  _atom_site_B_iso_or_equiv
  _atom_site_type_symbol
  Cu1      1.0000 0.85032  0.81258  0.05990  Biso   1.000  Cu
  Cu2      1.0000 0.14968  0.18742  0.55990  Biso   1.000  Cu
  Cu3      1.0000 0.68742  0.35032  0.80990  Biso   1.000  Cu
  Cu4      1.0000 0.31258  0.64968  0.30990  Biso   1.000  Cu
  Cu5      1.0000 0.64968  0.31258  0.69010  Biso   1.000  Cu
  Cu6      1.0000 0.35032  0.68742  0.19010  Biso   1.000  Cu
  Cu7      1.0000 0.81258  0.85032  0.94010  Biso   1.000  Cu
  Cu8      1.0000 0.18742  0.14968  0.44010  Biso   1.000  Cu
  C1       1.0000 0.57300  0.04990  0.06996  Biso   1.000  C
  C2       1.0000 0.42700  0.95010  0.56996  Biso   1.000  C
  C3       1.0000 0.45010  0.07300  0.81996  Biso   1.000  C
  C4       1.0000 0.54990  0.92700  0.31996  Biso   1.000  C
  C5       1.0000 0.92700  0.54990  0.68004  Biso   1.000  C
  C6       1.0000 0.07300  0.45010  0.18004  Biso   1.000  C
  C7       1.0000 0.04990  0.57300  0.93004  Biso   1.000  C
  C8       1.0000 0.95010  0.42700  0.43004  Biso   1.000  C
  C9       1.0000 0.59440  0.97690  0.02041  Biso   1.000  C
  C10      1.0000 0.40560  0.02310  0.52041  Biso   1.000  C
  C11      1.0000 0.52310  0.09440  0.77041  Biso   1.000  C
  C12      1.0000 0.47690  0.90560  0.27041  Biso   1.000  C
  C13      1.0000 0.90560  0.47690  0.72959  Biso   1.000  C
  C14      1.0000 0.09440  0.52310  0.22959  Biso   1.000  C
  C15      1.0000 0.97690  0.59440  0.97959  Biso   1.000  C
  C16      1.0000 0.02310  0.40560  0.47959  Biso   1.000  C
  C17      1.0000 0.47140  0.95240  0.98689  Biso   1.000  C
  C18      1.0000 0.52860  0.04760  0.48689  Biso   1.000  C
  C19      1.0000 0.54760  0.97140  0.73689  Biso   1.000  C
  C20      1.0000 0.45240  0.02860  0.23689  Biso   1.000  C
  C21      1.0000 0.02860  0.45240  0.76311  Biso   1.000  C
  C22      1.0000 0.97140  0.54760  0.26311  Biso   1.000  C
  C23      1.0000 0.95240  0.47140  0.01311  Biso   1.000  C
  C24      1.0000 0.04760  0.52860  0.51311  Biso   1.000  C
  H1       1.0000 0.48510  0.90450  0.95400  Biso   1.000  H
  H2       1.0000 0.51490  0.09550  0.45400  Biso   1.000  H
  H3       1.0000 0.59550  0.98510  0.70400  Biso   1.000  H
  H4       1.0000 0.40450  0.01490  0.20400  Biso   1.000  H
  H5       1.0000 0.01490  0.40450  0.79600  Biso   1.000  H
  H6       1.0000 0.98510  0.59550  0.29600  Biso   1.000  H
  H7       1.0000 0.90450  0.48510  0.04600  Biso   1.000  H
  H8       1.0000 0.09550  0.51490  0.54600  Biso   1.000  H
  C25      1.0000 0.32920  0.99860  0.00212  Biso   1.000  C
  C26      1.0000 0.67080  0.00140  0.50212  Biso   1.000  C
  C27      1.0000 0.50140  0.82920  0.75212  Biso   1.000  C
  C28      1.0000 0.49860  0.17080  0.25212  Biso   1.000  C
  C29      1.0000 0.17080  0.49860  0.74788  Biso   1.000  C
  C30      1.0000 0.82920  0.50140  0.24788  Biso   1.000  C
  C31      1.0000 0.99860  0.32920  0.99788  Biso   1.000  C
  C32      1.0000 0.00140  0.67080  0.49788  Biso   1.000  C
  H9       1.0000 0.24770  0.98230  0.97930  Biso   1.000  H
  H10      1.0000 0.75230  0.01770  0.47930  Biso   1.000  H
  H11      1.0000 0.51770  0.74770  0.72930  Biso   1.000  H
  H12      1.0000 0.48230  0.25230  0.22930  Biso   1.000  H
  H13      1.0000 0.25230  0.48230  0.77070  Biso   1.000  H
  H14      1.0000 0.74770  0.51770  0.27070  Biso   1.000  H
  H15      1.0000 0.98230  0.24770  0.02070  Biso   1.000  H
  H16      1.0000 0.01770  0.75230  0.52070  Biso   1.000  H
  C33      1.0000 0.30610  0.06890  0.05096  Biso   1.000  C
  C34      1.0000 0.69390  0.93110  0.55096  Biso   1.000  C
  C35      1.0000 0.43110  0.80610  0.80096  Biso   1.000  C
  C36      1.0000 0.56890  0.19390  0.30096  Biso   1.000  C
  C37      1.0000 0.19390  0.56890  0.69904  Biso   1.000  C
  C38      1.0000 0.80610  0.43110  0.19904  Biso   1.000  C
  C39      1.0000 0.06890  0.30610  0.94904  Biso   1.000  C
  C40      1.0000 0.93110  0.69390  0.44904  Biso   1.000  C
  H17      1.0000 0.20960  0.09910  0.06120  Biso   1.000  H
  H18      1.0000 0.79040  0.90090  0.56120  Biso   1.000  H
  H19      1.0000 0.40090  0.70960  0.81120  Biso   1.000  H
  H20      1.0000 0.59910  0.29040  0.31120  Biso   1.000  H
  H21      1.0000 0.29040  0.59910  0.68880  Biso   1.000  H
  H22      1.0000 0.70960  0.40090  0.18880  Biso   1.000  H
  H23      1.0000 0.09910  0.20960  0.93880  Biso   1.000  H
  H24      1.0000 0.90090  0.79040  0.43880  Biso   1.000  H
  C41      1.0000 0.42830  0.09380  0.08445  Biso   1.000  C
  C42      1.0000 0.57170  0.90620  0.58445  Biso   1.000  C
  C43      1.0000 0.40620  0.92830  0.83445  Biso   1.000  C
  C44      1.0000 0.59380  0.07170  0.33445  Biso   1.000  C
  C45      1.0000 0.07170  0.59380  0.66555  Biso   1.000  C
  C46      1.0000 0.92830  0.40620  0.16555  Biso   1.000  C
  C47      1.0000 0.09380  0.42830  0.91555  Biso   1.000  C
  C48      1.0000 0.90620  0.57170  0.41555  Biso   1.000  C
  H25      1.0000 0.41300  0.14100  0.11740  Biso   1.000  H
  H26      1.0000 0.58700  0.85900  0.61740  Biso   1.000  H
  H27      1.0000 0.35900  0.91300  0.86740  Biso   1.000  H
  H28      1.0000 0.64100  0.08700  0.36740  Biso   1.000  H
  H29      1.0000 0.08700  0.64100  0.63260  Biso   1.000  H
  H30      1.0000 0.91300  0.35900  0.13260  Biso   1.000  H
  H31      1.0000 0.14100  0.41300  0.88260  Biso   1.000  H
  H32      1.0000 0.85900  0.58700  0.38260  Biso   1.000  H
  C49      1.0000 0.70640  0.07740  0.10578  Biso   1.000  C
  C50      1.0000 0.29360  0.92260  0.60578  Biso   1.000  C
  C51      1.0000 0.42260  0.20640  0.85578  Biso   1.000  C
  C52      1.0000 0.57740  0.79360  0.35578  Biso   1.000  C
  C53      1.0000 0.79360  0.57740  0.64422  Biso   1.000  C
  C54      1.0000 0.20640  0.42260  0.14422  Biso   1.000  C
  C55      1.0000 0.07740  0.70640  0.89422  Biso   1.000  C
  C56      1.0000 0.92260  0.29360  0.39422  Biso   1.000  C
  H33      1.0000 0.77950  0.14000  0.08710  Biso   1.000  H
  H34      1.0000 0.22050  0.86000  0.58710  Biso   1.000  H
  H35      1.0000 0.36000  0.27950  0.83710  Biso   1.000  H
  H36      1.0000 0.64000  0.72050  0.33710  Biso   1.000  H
  H37      1.0000 0.72050  0.64000  0.66290  Biso   1.000  H
  H38      1.0000 0.27950  0.36000  0.16290  Biso   1.000  H
  H39      1.0000 0.14000  0.77950  0.91290  Biso   1.000  H
  H40      1.0000 0.86000  0.22050  0.41290  Biso   1.000  H
  H41      1.0000 0.67370  0.13150  0.13760  Biso   1.000  H
  H42      1.0000 0.32630  0.86850  0.63760  Biso   1.000  H
  H43      1.0000 0.36850  0.17370  0.88760  Biso   1.000  H
  H44      1.0000 0.63150  0.82630  0.38760  Biso   1.000  H
  H45      1.0000 0.82630  0.63150  0.61240  Biso   1.000  H
  H46      1.0000 0.17370  0.36850  0.11240  Biso   1.000  H
  H47      1.0000 0.13150  0.67370  0.86240  Biso   1.000  H
  H48      1.0000 0.86850  0.32630  0.36240  Biso   1.000  H
  C57      1.0000 0.90200  0.94770  0.16236  Biso   1.000  C
  C58      1.0000 0.09800  0.05230  0.66236  Biso   1.000  C
  C59      1.0000 0.55230  0.40200  0.91236  Biso   1.000  C
  C60      1.0000 0.44770  0.59800  0.41236  Biso   1.000  C
  C61      1.0000 0.59800  0.44770  0.58764  Biso   1.000  C
  C62      1.0000 0.40200  0.55230  0.08764  Biso   1.000  C
  C63      1.0000 0.94770  0.90200  0.83764  Biso   1.000  C
  C64      1.0000 0.05230  0.09800  0.33764  Biso   1.000  C
  H49      1.0000 0.93510  0.05340  0.16280  Biso   1.000  H
  H50      1.0000 0.06490  0.94660  0.66280  Biso   1.000  H
  H51      1.0000 0.44660  0.43510  0.91280  Biso   1.000  H
  H52      1.0000 0.55340  0.56490  0.41280  Biso   1.000  H
  H53      1.0000 0.56490  0.55340  0.58720  Biso   1.000  H
  H54      1.0000 0.43510  0.44660  0.08720  Biso   1.000  H
  H55      1.0000 0.05340  0.93510  0.83720  Biso   1.000  H
  H56      1.0000 0.94660  0.06490  0.33720  Biso   1.000  H
  C65      1.0000 0.84450  0.90840  0.21818  Biso   1.000  C
  C66      1.0000 0.15550  0.09160  0.71818  Biso   1.000  C
  C67      1.0000 0.59160  0.34450  0.96818  Biso   1.000  C
  C68      1.0000 0.40840  0.65550  0.46818  Biso   1.000  C
  C69      1.0000 0.65550  0.40840  0.53182  Biso   1.000  C
  C70      1.0000 0.34450  0.59160  0.03182  Biso   1.000  C
  C71      1.0000 0.90840  0.84450  0.78182  Biso   1.000  C
  C72      1.0000 0.09160  0.15550  0.28182  Biso   1.000  C
  H57      1.0000 0.77780  0.98660  0.23050  Biso   1.000  H
  H58      1.0000 0.22220  0.01340  0.73050  Biso   1.000  H
  H59      1.0000 0.51340  0.27780  0.98050  Biso   1.000  H
  H60      1.0000 0.48660  0.72220  0.48050  Biso   1.000  H
  H61      1.0000 0.72220  0.48660  0.51950  Biso   1.000  H
  H62      1.0000 0.27780  0.51340  0.01950  Biso   1.000  H
  H63      1.0000 0.98660  0.77780  0.76950  Biso   1.000  H
  H64      1.0000 0.01340  0.22220  0.26950  Biso   1.000  H
  H65      1.0000 0.92850  0.89970  0.24240  Biso   1.000  H
  H66      1.0000 0.07150  0.10030  0.74240  Biso   1.000  H
  H67      1.0000 0.60030  0.42850  0.99240  Biso   1.000  H
  H68      1.0000 0.39970  0.57150  0.49240  Biso   1.000  H
  H69      1.0000 0.57150  0.39970  0.50760  Biso   1.000  H
  H70      1.0000 0.42850  0.60030  0.00760  Biso   1.000  H
  H71      1.0000 0.89970  0.92850  0.75760  Biso   1.000  H
  H72      1.0000 0.10030  0.07150  0.25760  Biso   1.000  H
  H73      1.0000 0.79090  0.81410  0.21690  Biso   1.000  H
  H74      1.0000 0.20910  0.18590  0.71690  Biso   1.000  H
  H75      1.0000 0.68590  0.29090  0.96690  Biso   1.000  H
  H76      1.0000 0.31410  0.70910  0.46690  Biso   1.000  H
  H77      1.0000 0.70910  0.31410  0.53310  Biso   1.000  H
  H78      1.0000 0.29090  0.68590  0.03310  Biso   1.000  H
  H79      1.0000 0.81410  0.79090  0.78310  Biso   1.000  H
  H80      1.0000 0.18590  0.20910  0.28310  Biso   1.000  H
  C73      1.0000 0.03720  0.84980  0.14685  Biso   1.000  C
  C74      1.0000 0.96280  0.15020  0.64685  Biso   1.000  C
  C75      1.0000 0.65020  0.53720  0.89685  Biso   1.000  C
  C76      1.0000 0.34980  0.46280  0.39685  Biso   1.000  C
  C77      1.0000 0.46280  0.34980  0.60315  Biso   1.000  C
  C78      1.0000 0.53720  0.65020  0.10315  Biso   1.000  C
  C79      1.0000 0.84980  0.03720  0.85315  Biso   1.000  C
  C80      1.0000 0.15020  0.96280  0.35315  Biso   1.000  C
  N1       1.0000 0.77920  0.93295  0.12193  Biso   1.000  N
  N2       1.0000 0.22080  0.06705  0.62193  Biso   1.000  N
  N3       1.0000 0.56705  0.27920  0.87193  Biso   1.000  N
  N4       1.0000 0.43295  0.72080  0.37193  Biso   1.000  N
  N5       1.0000 0.72080  0.43295  0.62807  Biso   1.000  N
  N6       1.0000 0.27920  0.56705  0.12807  Biso   1.000  N
  N7       1.0000 0.93295  0.77920  0.87807  Biso   1.000  N
  N8       1.0000 0.06705  0.22080  0.37807  Biso   1.000  N
  O1       1.0000 0.73427  0.93149  0.00714  Biso   1.000  O
  O2       1.0000 0.26573  0.06851  0.50714  Biso   1.000  O
  O3       1.0000 0.56851  0.23427  0.75714  Biso   1.000  O
  O4       1.0000 0.43149  0.76573  0.25714  Biso   1.000  O
  O5       1.0000 0.76573  0.43149  0.74286  Biso   1.000  O
  O6       1.0000 0.23427  0.56851  0.24286  Biso   1.000  O
  O7       1.0000 0.93149  0.73427  0.99286  Biso   1.000  O
  O8       1.0000 0.06851  0.26573  0.49286  Biso   1.000  O
  O9       1.0000 0.02456  0.76759  0.10465  Biso   1.000  O
  O10      1.0000 0.97544  0.23241  0.60465  Biso   1.000  O
  O11      1.0000 0.73241  0.52456  0.85465  Biso   1.000  O
  O12      1.0000 0.26759  0.47544  0.35465  Biso   1.000  O
  O13      1.0000 0.47544  0.26759  0.64535  Biso   1.000  O
  O14      1.0000 0.52456  0.73241  0.14535  Biso   1.000  O
  O15      1.0000 0.76759  0.02456  0.89535  Biso   1.000  O
  O16      1.0000 0.23241  0.97544  0.39535  Biso   1.000  O
  O17      1.0000 0.15081  0.85456  0.17562  Biso   1.000  O
  O18      1.0000 0.84919  0.14544  0.67562  Biso   1.000  O
  O19      1.0000 0.64544  0.65081  0.92562  Biso   1.000  O
  O20      1.0000 0.35456  0.34919  0.42562  Biso   1.000  O
  O21      1.0000 0.34919  0.35456  0.57438  Biso   1.000  O
  O22      1.0000 0.65081  0.64544  0.07438  Biso   1.000  O
  O23      1.0000 0.85456  0.15081  0.82438  Biso   1.000  O
  O24      1.0000 0.14544  0.84919  0.32438  Biso   1.000  O
  H81      1.0000 0.71200  0.88000  0.13560  Biso   1.000  H
  H82      1.0000 0.28800  0.12000  0.63560  Biso   1.000  H
  H83      1.0000 0.62000  0.21200  0.88560  Biso   1.000  H
  H84      1.0000 0.38000  0.78800  0.38560  Biso   1.000  H
  H85      1.0000 0.78800  0.38000  0.61440  Biso   1.000  H
  H86      1.0000 0.21200  0.62000  0.11440  Biso   1.000  H
  H87      1.0000 0.88000  0.71200  0.86440  Biso   1.000  H
  H88      1.0000 0.12000  0.28800  0.36440  Biso   1.000  H
