data_image0
_cell_length_a       28.0304
_cell_length_b       13.2373
_cell_length_c       7.9327
_cell_angle_alpha    90
_cell_angle_beta     90
_cell_angle_gamma    90

_symmetry_space_group_name_H-M    "P 1"
_symmetry_int_tables_number       1

loop_
  _symmetry_equiv_pos_as_xyz
  'x, y, z'

loop_
  _atom_site_label
  _atom_site_occupancy
  _atom_site_fract_x
  _atom_site_fract_y
  _atom_site_fract_z
  _atom_site_thermal_displace_type
  _atom_site_B_iso_or_equiv
  _atom_site_type_symbol
  Cu1      1.0000 0.08895  0.51923  0.62334  Biso   1.000  Cu
  Cu2      1.0000 0.91105  0.48077  0.12334  Biso   1.000  Cu
  Cu3      1.0000 0.41105  0.01923  0.12334  Biso   1.000  Cu
  Cu4      1.0000 0.58895  0.98077  0.62334  Biso   1.000  Cu
  S1       1.0000 0.12988  0.53970  0.22770  Biso   1.000  S
  S2       1.0000 0.87012  0.46030  0.72770  Biso   1.000  S
  S3       1.0000 0.37012  0.03970  0.72770  Biso   1.000  S
  S4       1.0000 0.62988  0.96030  0.22770  Biso   1.000  S
  F1       1.0000 0.22320  0.55040  0.22140  Biso   1.000  F
  F2       1.0000 0.77680  0.44960  0.72140  Biso   1.000  F
  F3       1.0000 0.27680  0.05040  0.72140  Biso   1.000  F
  F4       1.0000 0.72320  0.94960  0.22140  Biso   1.000  F
  F5       1.0000 0.19630  0.41780  0.34760  Biso   1.000  F
  F6       1.0000 0.80370  0.58220  0.84760  Biso   1.000  F
  F7       1.0000 0.30370  0.91780  0.84760  Biso   1.000  F
  F8       1.0000 0.69630  0.08220  0.34760  Biso   1.000  F
  F9       1.0000 0.19260  0.42960  0.07600  Biso   1.000  F
  F10      1.0000 0.80740  0.57040  0.57600  Biso   1.000  F
  F11      1.0000 0.30740  0.92960  0.57600  Biso   1.000  F
  F12      1.0000 0.69260  0.07040  0.07600  Biso   1.000  F
  O1       1.0000 0.95700  0.50340  0.40110  Biso   1.000  O
  O2       1.0000 0.04300  0.49660  0.90110  Biso   1.000  O
  O3       1.0000 0.54300  0.00340  0.90110  Biso   1.000  O
  O4       1.0000 0.45700  0.99660  0.40110  Biso   1.000  O
  O5       1.0000 0.15870  0.24970  0.69890  Biso   1.000  O
  O6       1.0000 0.84130  0.75030  0.19890  Biso   1.000  O
  O7       1.0000 0.34130  0.74970  0.19890  Biso   1.000  O
  O8       1.0000 0.65870  0.25030  0.69890  Biso   1.000  O
  O9       1.0000 0.10770  0.63940  0.75480  Biso   1.000  O
  O10      1.0000 0.89230  0.36060  0.25480  Biso   1.000  O
  O11      1.0000 0.39230  0.13940  0.25480  Biso   1.000  O
  O12      1.0000 0.60770  0.86060  0.75480  Biso   1.000  O
  H1       1.0000 0.12600  0.62190  0.83820  Biso   1.000  H
  H2       1.0000 0.87400  0.37810  0.33820  Biso   1.000  H
  H3       1.0000 0.37400  0.12190  0.33820  Biso   1.000  H
  H4       1.0000 0.62600  0.87810  0.83820  Biso   1.000  H
  H5       1.0000 0.12320  0.68250  0.69280  Biso   1.000  H
  H6       1.0000 0.87680  0.31750  0.19280  Biso   1.000  H
  H7       1.0000 0.37680  0.18250  0.19280  Biso   1.000  H
  H8       1.0000 0.62320  0.81750  0.69280  Biso   1.000  H
  O13      1.0000 0.13060  0.58730  0.39090  Biso   1.000  O
  O14      1.0000 0.86940  0.41270  0.89090  Biso   1.000  O
  O15      1.0000 0.36940  0.08730  0.89090  Biso   1.000  O
  O16      1.0000 0.63060  0.91270  0.39090  Biso   1.000  O
  O17      1.0000 0.09780  0.45370  0.22310  Biso   1.000  O
  O18      1.0000 0.90220  0.54630  0.72310  Biso   1.000  O
  O19      1.0000 0.40220  0.95370  0.72310  Biso   1.000  O
  O20      1.0000 0.59780  0.04630  0.22310  Biso   1.000  O
  O21      1.0000 0.12960  0.60560  0.08800  Biso   1.000  O
  O22      1.0000 0.87040  0.39440  0.58800  Biso   1.000  O
  O23      1.0000 0.37040  0.10560  0.58800  Biso   1.000  O
  O24      1.0000 0.62960  0.89440  0.08800  Biso   1.000  O
  N1       1.0000 0.06100  0.39030  0.56860  Biso   1.000  N
  N2       1.0000 0.93900  0.60970  0.06860  Biso   1.000  N
  N3       1.0000 0.43900  0.89030  0.06860  Biso   1.000  N
  N4       1.0000 0.56100  0.10970  0.56860  Biso   1.000  N
  N5       1.0000 0.14620  0.42310  0.68020  Biso   1.000  N
  N6       1.0000 0.85380  0.57690  0.18020  Biso   1.000  N
  N7       1.0000 0.35380  0.92310  0.18020  Biso   1.000  N
  N8       1.0000 0.64620  0.07690  0.68020  Biso   1.000  N
  N9       1.0000 0.02560  0.57000  0.52420  Biso   1.000  N
  N10      1.0000 0.97440  0.43000  0.02420  Biso   1.000  N
  N11      1.0000 0.47440  0.07000  0.02420  Biso   1.000  N
  N12      1.0000 0.52560  0.93000  0.52420  Biso   1.000  N
  N13      1.0000 0.22590  0.37510  0.74670  Biso   1.000  N
  N14      1.0000 0.77410  0.62490  0.24670  Biso   1.000  N
  N15      1.0000 0.27410  0.87510  0.24670  Biso   1.000  N
  N16      1.0000 0.72590  0.12490  0.74670  Biso   1.000  N
  H9       1.0000 0.21690  0.31150  0.74130  Biso   1.000  H
  H10      1.0000 0.78310  0.68850  0.24130  Biso   1.000  H
  H11      1.0000 0.28310  0.81150  0.24130  Biso   1.000  H
  H12      1.0000 0.71690  0.18850  0.74130  Biso   1.000  H
  N17      1.0000 0.96490  0.68980  0.56090  Biso   1.000  N
  N18      1.0000 0.03510  0.31020  0.06090  Biso   1.000  N
  N19      1.0000 0.53510  0.18980  0.06090  Biso   1.000  N
  N20      1.0000 0.46490  0.81020  0.56090  Biso   1.000  N
  H13      1.0000 0.94610  0.64250  0.60130  Biso   1.000  H
  H14      1.0000 0.05390  0.35750  0.10130  Biso   1.000  H
  H15      1.0000 0.55390  0.14250  0.10130  Biso   1.000  H
  H16      1.0000 0.44610  0.85750  0.60130  Biso   1.000  H
  C1       1.0000 0.01720  0.39100  0.50250  Biso   1.000  C
  C2       1.0000 0.98280  0.60900  0.00250  Biso   1.000  C
  C3       1.0000 0.48280  0.89100  0.00250  Biso   1.000  C
  C4       1.0000 0.51720  0.10900  0.50250  Biso   1.000  C
  C5       1.0000 0.99340  0.30080  0.47080  Biso   1.000  C
  C6       1.0000 0.00660  0.69920  0.97080  Biso   1.000  C
  C7       1.0000 0.50660  0.80080  0.97080  Biso   1.000  C
  C8       1.0000 0.49340  0.19920  0.47080  Biso   1.000  C
  H17      1.0000 0.96240  0.29990  0.42200  Biso   1.000  H
  H18      1.0000 0.03760  0.70010  0.92200  Biso   1.000  H
  H19      1.0000 0.53760  0.79990  0.92200  Biso   1.000  H
  H20      1.0000 0.46240  0.20010  0.42200  Biso   1.000  H
  C9       1.0000 0.01730  0.21070  0.51460  Biso   1.000  C
  C10      1.0000 0.98270  0.78930  0.01460  Biso   1.000  C
  C11      1.0000 0.48270  0.71070  0.01460  Biso   1.000  C
  C12      1.0000 0.51730  0.28930  0.51460  Biso   1.000  C
  H21      1.0000 0.00150  0.14780  0.50160  Biso   1.000  H
  H22      1.0000 0.99850  0.85220  0.00160  Biso   1.000  H
  H23      1.0000 0.49850  0.64780  0.00160  Biso   1.000  H
  H24      1.0000 0.50150  0.35220  0.50160  Biso   1.000  H
  C13      1.0000 0.06220  0.21270  0.57430  Biso   1.000  C
  C14      1.0000 0.93780  0.78730  0.07430  Biso   1.000  C
  C15      1.0000 0.43780  0.71270  0.07430  Biso   1.000  C
  C16      1.0000 0.56220  0.28730  0.57430  Biso   1.000  C
  H25      1.0000 0.07880  0.15180  0.59870  Biso   1.000  H
  H26      1.0000 0.92120  0.84820  0.09870  Biso   1.000  H
  H27      1.0000 0.42120  0.65180  0.09870  Biso   1.000  H
  H28      1.0000 0.57880  0.34820  0.59870  Biso   1.000  H
  C17      1.0000 0.08420  0.30840  0.60000  Biso   1.000  C
  C18      1.0000 0.91580  0.69160  0.10000  Biso   1.000  C
  C19      1.0000 0.41580  0.80840  0.10000  Biso   1.000  C
  C20      1.0000 0.58420  0.19160  0.60000  Biso   1.000  C
  C21      1.0000 0.13400  0.32450  0.66470  Biso   1.000  C
  C22      1.0000 0.86600  0.67550  0.16470  Biso   1.000  C
  C23      1.0000 0.36600  0.82450  0.16470  Biso   1.000  C
  C24      1.0000 0.63400  0.17550  0.66470  Biso   1.000  C
  C25      1.0000 0.99670  0.49370  0.46820  Biso   1.000  C
  C26      1.0000 0.00330  0.50630  0.96820  Biso   1.000  C
  C27      1.0000 0.50330  0.99370  0.96820  Biso   1.000  C
  C28      1.0000 0.49670  0.00630  0.46820  Biso   1.000  C
  C29      1.0000 0.19250  0.44790  0.71380  Biso   1.000  C
  C30      1.0000 0.80750  0.55210  0.21380  Biso   1.000  C
  C31      1.0000 0.30750  0.94790  0.21380  Biso   1.000  C
  C32      1.0000 0.69250  0.05210  0.71380  Biso   1.000  C
  C33      1.0000 0.00960  0.66430  0.51140  Biso   1.000  C
  C34      1.0000 0.99040  0.33570  0.01140  Biso   1.000  C
  C35      1.0000 0.49040  0.16430  0.01140  Biso   1.000  C
  C36      1.0000 0.50960  0.83570  0.51140  Biso   1.000  C
  C37      1.0000 0.20760  0.54790  0.71950  Biso   1.000  C
  C38      1.0000 0.79240  0.45210  0.21950  Biso   1.000  C
  C39      1.0000 0.29240  0.04790  0.21950  Biso   1.000  C
  C40      1.0000 0.70760  0.95210  0.71950  Biso   1.000  C
  H29      1.0000 0.18600  0.60090  0.69330  Biso   1.000  H
  H30      1.0000 0.81400  0.39910  0.19330  Biso   1.000  H
  H31      1.0000 0.31400  0.10090  0.19330  Biso   1.000  H
  H32      1.0000 0.68600  0.89910  0.69330  Biso   1.000  H
  C41      1.0000 0.03770  0.74100  0.44260  Biso   1.000  C
  C42      1.0000 0.96230  0.25900  0.94260  Biso   1.000  C
  C43      1.0000 0.46230  0.24100  0.94260  Biso   1.000  C
  C44      1.0000 0.53770  0.75900  0.44260  Biso   1.000  C
  H33      1.0000 0.06910  0.72530  0.40520  Biso   1.000  H
  H34      1.0000 0.93090  0.27470  0.90520  Biso   1.000  H
  H35      1.0000 0.43090  0.22530  0.90520  Biso   1.000  H
  H36      1.0000 0.56910  0.77470  0.40520  Biso   1.000  H
  C45      1.0000 0.25530  0.57040  0.76440  Biso   1.000  C
  C46      1.0000 0.74470  0.42960  0.26440  Biso   1.000  C
  C47      1.0000 0.24470  0.07040  0.26440  Biso   1.000  C
  C48      1.0000 0.75530  0.92960  0.76440  Biso   1.000  C
  C49      1.0000 0.28670  0.49220  0.80010  Biso   1.000  C
  C50      1.0000 0.71330  0.50780  0.30010  Biso   1.000  C
  C51      1.0000 0.21330  0.99220  0.30010  Biso   1.000  C
  C52      1.0000 0.78670  0.00780  0.80010  Biso   1.000  C
  H37      1.0000 0.31850  0.50720  0.83350  Biso   1.000  H
  H38      1.0000 0.68150  0.49280  0.33350  Biso   1.000  H
  H39      1.0000 0.18150  0.00720  0.33350  Biso   1.000  H
  H40      1.0000 0.81850  0.99280  0.83350  Biso   1.000  H
  C53      1.0000 0.27260  0.39510  0.78780  Biso   1.000  C
  C54      1.0000 0.72740  0.60490  0.28780  Biso   1.000  C
  C55      1.0000 0.22740  0.89510  0.28780  Biso   1.000  C
  C56      1.0000 0.77260  0.10490  0.78780  Biso   1.000  C
  C57      1.0000 0.27140  0.67980  0.76600  Biso   1.000  C
  C58      1.0000 0.72860  0.32020  0.26600  Biso   1.000  C
  C59      1.0000 0.22860  0.17980  0.26600  Biso   1.000  C
  C60      1.0000 0.77140  0.82020  0.76600  Biso   1.000  C
  H41      1.0000 0.29720  0.68900  0.68410  Biso   1.000  H
  H42      1.0000 0.70280  0.31100  0.18410  Biso   1.000  H
  H43      1.0000 0.20280  0.18900  0.18410  Biso   1.000  H
  H44      1.0000 0.79720  0.81100  0.68410  Biso   1.000  H
  H45      1.0000 0.28300  0.69740  0.87900  Biso   1.000  H
  H46      1.0000 0.71700  0.30260  0.37900  Biso   1.000  H
  H47      1.0000 0.21700  0.19740  0.37900  Biso   1.000  H
  H48      1.0000 0.78300  0.80260  0.87900  Biso   1.000  H
  H49      1.0000 0.24460  0.72370  0.73640  Biso   1.000  H
  H50      1.0000 0.75540  0.27630  0.23640  Biso   1.000  H
  H51      1.0000 0.25540  0.22370  0.23640  Biso   1.000  H
  H52      1.0000 0.74460  0.77630  0.73640  Biso   1.000  H
  C61      1.0000 0.30290  0.30320  0.81140  Biso   1.000  C
  C62      1.0000 0.69710  0.69680  0.31140  Biso   1.000  C
  C63      1.0000 0.19710  0.80320  0.31140  Biso   1.000  C
  C64      1.0000 0.80290  0.19680  0.81140  Biso   1.000  C
  H53      1.0000 0.28690  0.24450  0.76150  Biso   1.000  H
  H54      1.0000 0.71310  0.75550  0.26150  Biso   1.000  H
  H55      1.0000 0.21310  0.74450  0.26150  Biso   1.000  H
  H56      1.0000 0.78690  0.25550  0.76150  Biso   1.000  H
  H57      1.0000 0.30790  0.29130  0.93200  Biso   1.000  H
  H58      1.0000 0.69210  0.70870  0.43200  Biso   1.000  H
  H59      1.0000 0.19210  0.79130  0.43200  Biso   1.000  H
  H60      1.0000 0.80790  0.20870  0.93200  Biso   1.000  H
  H61      1.0000 0.33380  0.31340  0.75600  Biso   1.000  H
  H62      1.0000 0.66620  0.68660  0.25600  Biso   1.000  H
  H63      1.0000 0.16620  0.81340  0.25600  Biso   1.000  H
  H64      1.0000 0.83380  0.18660  0.75600  Biso   1.000  H
  C65      1.0000 0.02150  0.83940  0.42730  Biso   1.000  C
  C66      1.0000 0.97850  0.16060  0.92730  Biso   1.000  C
  C67      1.0000 0.47850  0.33940  0.92730  Biso   1.000  C
  C68      1.0000 0.52150  0.66060  0.42730  Biso   1.000  C
  C69      1.0000 0.97380  0.85930  0.48960  Biso   1.000  C
  C70      1.0000 0.02620  0.14070  0.98960  Biso   1.000  C
  C71      1.0000 0.52620  0.35930  0.98960  Biso   1.000  C
  C72      1.0000 0.47380  0.64070  0.48960  Biso   1.000  C
  H65      1.0000 0.96150  0.92610  0.48560  Biso   1.000  H
  H66      1.0000 0.03850  0.07390  0.98560  Biso   1.000  H
  H67      1.0000 0.53850  0.42610  0.98560  Biso   1.000  H
  H68      1.0000 0.46150  0.57390  0.48560  Biso   1.000  H
  C73      1.0000 0.94800  0.78790  0.55010  Biso   1.000  C
  C74      1.0000 0.05200  0.21210  0.05010  Biso   1.000  C
  C75      1.0000 0.55200  0.28790  0.05010  Biso   1.000  C
  C76      1.0000 0.44800  0.71210  0.55010  Biso   1.000  C
  C77      1.0000 0.05100  0.92380  0.34800  Biso   1.000  C
  C78      1.0000 0.94900  0.07620  0.84800  Biso   1.000  C
  C79      1.0000 0.44900  0.42380  0.84800  Biso   1.000  C
  C80      1.0000 0.55100  0.57620  0.34800  Biso   1.000  C
  H69      1.0000 0.07900  0.93750  0.41850  Biso   1.000  H
  H70      1.0000 0.92100  0.06250  0.91850  Biso   1.000  H
  H71      1.0000 0.42100  0.43750  0.91850  Biso   1.000  H
  H72      1.0000 0.57900  0.56250  0.41850  Biso   1.000  H
  H73      1.0000 0.03160  0.98510  0.33880  Biso   1.000  H
  H74      1.0000 0.96840  0.01490  0.83880  Biso   1.000  H
  H75      1.0000 0.46840  0.48510  0.83880  Biso   1.000  H
  H76      1.0000 0.53160  0.51490  0.33880  Biso   1.000  H
  H77      1.0000 0.06150  0.90300  0.23530  Biso   1.000  H
  H78      1.0000 0.93850  0.09700  0.73530  Biso   1.000  H
  H79      1.0000 0.43850  0.40300  0.73530  Biso   1.000  H
  H80      1.0000 0.56150  0.59700  0.23530  Biso   1.000  H
  C81      1.0000 0.89630  0.79840  0.61000  Biso   1.000  C
  C82      1.0000 0.10370  0.20160  0.11000  Biso   1.000  C
  C83      1.0000 0.60370  0.29840  0.11000  Biso   1.000  C
  C84      1.0000 0.39630  0.70160  0.61000  Biso   1.000  C
  H81      1.0000 0.87560  0.75590  0.54000  Biso   1.000  H
  H82      1.0000 0.12440  0.24410  0.04000  Biso   1.000  H
  H83      1.0000 0.62440  0.25590  0.04000  Biso   1.000  H
  H84      1.0000 0.37560  0.74410  0.54000  Biso   1.000  H
  H85      1.0000 0.88630  0.86900  0.60040  Biso   1.000  H
  H86      1.0000 0.11370  0.13100  0.10040  Biso   1.000  H
  H87      1.0000 0.61370  0.36900  0.10040  Biso   1.000  H
  H88      1.0000 0.38630  0.63100  0.60040  Biso   1.000  H
  H89      1.0000 0.89400  0.77680  0.72780  Biso   1.000  H
  H90      1.0000 0.10600  0.22320  0.22780  Biso   1.000  H
  H91      1.0000 0.60600  0.27680  0.22780  Biso   1.000  H
  H92      1.0000 0.39400  0.72320  0.72780  Biso   1.000  H
  C85      1.0000 0.18750  0.48020  0.21920  Biso   1.000  C
  C86      1.0000 0.81250  0.51980  0.71920  Biso   1.000  C
  C87      1.0000 0.31250  0.98020  0.71920  Biso   1.000  C
  C88      1.0000 0.68750  0.01980  0.21920  Biso   1.000  C
  S5       1.0000 0.11018  0.90950  0.79070  Biso   1.000  S
  S6       1.0000 0.88982  0.09050  0.29070  Biso   1.000  S
  S7       1.0000 0.38982  0.40950  0.29070  Biso   1.000  S
  S8       1.0000 0.61018  0.59050  0.79070  Biso   1.000  S
  F13      1.0000 0.19970  0.89590  0.87110  Biso   1.000  F
  F14      1.0000 0.80030  0.10410  0.37110  Biso   1.000  F
  F15      1.0000 0.30030  0.39590  0.37110  Biso   1.000  F
  F16      1.0000 0.69970  0.60410  0.87110  Biso   1.000  F
  F17      1.0000 0.18470  0.99560  0.66660  Biso   1.000  F
  F18      1.0000 0.81530  0.00440  0.16660  Biso   1.000  F
  F19      1.0000 0.31530  0.49560  0.16660  Biso   1.000  F
  F20      1.0000 0.68470  0.50440  0.66660  Biso   1.000  F
  F21      1.0000 0.17050  0.03420  0.92700  Biso   1.000  F
  F22      1.0000 0.82950  0.96580  0.42700  Biso   1.000  F
  F23      1.0000 0.32950  0.53420  0.42700  Biso   1.000  F
  F24      1.0000 0.67050  0.46580  0.92700  Biso   1.000  F
  O25      1.0000 0.11760  0.83010  0.67110  Biso   1.000  O
  O26      1.0000 0.88240  0.16990  0.17110  Biso   1.000  O
  O27      1.0000 0.38240  0.33010  0.17110  Biso   1.000  O
  O28      1.0000 0.61760  0.66990  0.67110  Biso   1.000  O
  O29      1.0000 0.08350  0.99140  0.74600  Biso   1.000  O
  O30      1.0000 0.91650  0.00860  0.24600  Biso   1.000  O
  O31      1.0000 0.41650  0.49140  0.24600  Biso   1.000  O
  O32      1.0000 0.58350  0.50860  0.74600  Biso   1.000  O
  O33      1.0000 0.09770  0.87360  0.96270  Biso   1.000  O
  O34      1.0000 0.90230  0.12640  0.46270  Biso   1.000  O
  O35      1.0000 0.40230  0.37360  0.46270  Biso   1.000  O
  O36      1.0000 0.59770  0.62640  0.96270  Biso   1.000  O
  C89      1.0000 0.16990  0.95840  0.82000  Biso   1.000  C
  C90      1.0000 0.83010  0.04160  0.32000  Biso   1.000  C
  C91      1.0000 0.33010  0.45840  0.32000  Biso   1.000  C
  C92      1.0000 0.66990  0.54160  0.82000  Biso   1.000  C
