data_image0
_cell_length_a       20.9911
_cell_length_b       8.5375
_cell_length_c       15.9311
_cell_angle_alpha    90
_cell_angle_beta     93.605
_cell_angle_gamma    90

_symmetry_space_group_name_H-M    "P 1"
_symmetry_int_tables_number       1

loop_
  _symmetry_equiv_pos_as_xyz
  'x, y, z'

loop_
  _atom_site_label
  _atom_site_occupancy
  _atom_site_fract_x
  _atom_site_fract_y
  _atom_site_fract_z
  _atom_site_thermal_displace_type
  _atom_site_B_iso_or_equiv
  _atom_site_type_symbol
  Cu1      1.0000 0.23356  0.52940  0.32281  Biso   1.000  Cu
  Cu2      1.0000 0.76644  0.02940  0.17719  Biso   1.000  Cu
  Cu3      1.0000 0.76644  0.47060  0.67719  Biso   1.000  Cu
  Cu4      1.0000 0.23356  0.97060  0.82281  Biso   1.000  Cu
  N1       1.0000 0.30913  0.61760  0.25565  Biso   1.000  N
  N2       1.0000 0.69087  0.11760  0.24435  Biso   1.000  N
  N3       1.0000 0.69087  0.38240  0.74435  Biso   1.000  N
  N4       1.0000 0.30913  0.88240  0.75565  Biso   1.000  N
  C1       1.0000 0.30256  0.53790  0.17210  Biso   1.000  C
  C2       1.0000 0.69744  0.03790  0.32790  Biso   1.000  C
  C3       1.0000 0.69744  0.46210  0.82790  Biso   1.000  C
  C4       1.0000 0.30256  0.96210  0.67210  Biso   1.000  C
  H1       1.0000 0.32350  0.43410  0.17580  Biso   1.000  H
  H2       1.0000 0.67650  0.93410  0.32420  Biso   1.000  H
  H3       1.0000 0.67650  0.56590  0.82420  Biso   1.000  H
  H4       1.0000 0.32350  0.06590  0.67580  Biso   1.000  H
  H5       1.0000 0.32370  0.60120  0.12980  Biso   1.000  H
  H6       1.0000 0.67630  0.10120  0.37020  Biso   1.000  H
  H7       1.0000 0.67630  0.39880  0.87020  Biso   1.000  H
  H8       1.0000 0.32370  0.89880  0.62980  Biso   1.000  H
  C5       1.0000 0.23287  0.51840  0.14560  Biso   1.000  C
  C6       1.0000 0.76713  0.01840  0.35440  Biso   1.000  C
  C7       1.0000 0.76713  0.48160  0.85440  Biso   1.000  C
  C8       1.0000 0.23287  0.98160  0.64560  Biso   1.000  C
  H9       1.0000 0.21250  0.62260  0.13850  Biso   1.000  H
  H10      1.0000 0.78750  0.12260  0.36150  Biso   1.000  H
  H11      1.0000 0.78750  0.37740  0.86150  Biso   1.000  H
  H12      1.0000 0.21250  0.87740  0.63850  Biso   1.000  H
  H13      1.0000 0.22840  0.46300  0.09090  Biso   1.000  H
  H14      1.0000 0.77160  0.96300  0.40910  Biso   1.000  H
  H15      1.0000 0.77160  0.53700  0.90910  Biso   1.000  H
  H16      1.0000 0.22840  0.03700  0.59090  Biso   1.000  H
  N5       1.0000 0.20055  0.42730  0.21014  Biso   1.000  N
  N6       1.0000 0.79945  0.92730  0.28986  Biso   1.000  N
  N7       1.0000 0.79945  0.57270  0.78986  Biso   1.000  N
  N8       1.0000 0.20055  0.07270  0.71014  Biso   1.000  N
  C9       1.0000 0.13031  0.44560  0.19170  Biso   1.000  C
  C10      1.0000 0.86969  0.94560  0.30830  Biso   1.000  C
  C11      1.0000 0.86969  0.55440  0.80830  Biso   1.000  C
  C12      1.0000 0.13031  0.05440  0.69170  Biso   1.000  C
  H17      1.0000 0.11850  0.39320  0.13750  Biso   1.000  H
  H18      1.0000 0.88150  0.89320  0.36250  Biso   1.000  H
  H19      1.0000 0.88150  0.60680  0.86250  Biso   1.000  H
  H20      1.0000 0.11850  0.10680  0.63750  Biso   1.000  H
  H21      1.0000 0.12080  0.55850  0.18440  Biso   1.000  H
  H22      1.0000 0.87920  0.05850  0.31560  Biso   1.000  H
  H23      1.0000 0.87920  0.44150  0.81560  Biso   1.000  H
  H24      1.0000 0.12080  0.94150  0.68440  Biso   1.000  H
  C13      1.0000 0.08823  0.38130  0.25720  Biso   1.000  C
  C14      1.0000 0.91177  0.88130  0.24280  Biso   1.000  C
  C15      1.0000 0.91177  0.61870  0.74280  Biso   1.000  C
  C16      1.0000 0.08823  0.11870  0.75720  Biso   1.000  C
  H25      1.0000 0.09880  0.26940  0.26680  Biso   1.000  H
  H26      1.0000 0.90120  0.76940  0.23320  Biso   1.000  H
  H27      1.0000 0.90120  0.73060  0.73320  Biso   1.000  H
  H28      1.0000 0.09880  0.23060  0.76680  Biso   1.000  H
  H29      1.0000 0.04320  0.38720  0.23500  Biso   1.000  H
  H30      1.0000 0.95680  0.88720  0.26500  Biso   1.000  H
  H31      1.0000 0.95680  0.61280  0.76500  Biso   1.000  H
  H32      1.0000 0.04320  0.11280  0.73500  Biso   1.000  H
  C17      1.0000 0.09501  0.46710  0.34040  Biso   1.000  C
  C18      1.0000 0.90499  0.96710  0.15960  Biso   1.000  C
  C19      1.0000 0.90499  0.53290  0.65960  Biso   1.000  C
  C20      1.0000 0.09501  0.03290  0.84040  Biso   1.000  C
  H33      1.0000 0.08810  0.58030  0.32990  Biso   1.000  H
  H34      1.0000 0.91190  0.08030  0.17010  Biso   1.000  H
  H35      1.0000 0.91190  0.41970  0.67010  Biso   1.000  H
  H36      1.0000 0.08810  0.91970  0.82990  Biso   1.000  H
  H37      1.0000 0.06110  0.43060  0.37610  Biso   1.000  H
  H38      1.0000 0.93890  0.93060  0.12390  Biso   1.000  H
  H39      1.0000 0.93890  0.56940  0.62390  Biso   1.000  H
  H40      1.0000 0.06110  0.06940  0.87610  Biso   1.000  H
  N9       1.0000 0.15849  0.44580  0.38801  Biso   1.000  N
  N10      1.0000 0.84151  0.94580  0.11199  Biso   1.000  N
  N11      1.0000 0.84151  0.55420  0.61199  Biso   1.000  N
  N12      1.0000 0.15849  0.05420  0.88801  Biso   1.000  N
  C21      1.0000 0.15850  0.54260  0.46470  Biso   1.000  C
  C22      1.0000 0.84150  0.04260  0.03530  Biso   1.000  C
  C23      1.0000 0.84150  0.45740  0.53530  Biso   1.000  C
  C24      1.0000 0.15850  0.95740  0.96470  Biso   1.000  C
  H41      1.0000 0.19010  0.50060  0.50770  Biso   1.000  H
  H42      1.0000 0.80990  0.00060  0.99230  Biso   1.000  H
  H43      1.0000 0.80990  0.49940  0.49230  Biso   1.000  H
  H44      1.0000 0.19010  0.99940  0.00770  Biso   1.000  H
  H45      1.0000 0.11590  0.53840  0.48790  Biso   1.000  H
  H46      1.0000 0.88410  0.03840  0.01210  Biso   1.000  H
  H47      1.0000 0.88410  0.46160  0.51210  Biso   1.000  H
  H48      1.0000 0.11590  0.96160  0.98790  Biso   1.000  H
  C25      1.0000 0.17490  0.70960  0.44510  Biso   1.000  C
  C26      1.0000 0.82510  0.20960  0.05490  Biso   1.000  C
  C27      1.0000 0.82510  0.29040  0.55490  Biso   1.000  C
  C28      1.0000 0.17490  0.79040  0.94510  Biso   1.000  C
  H49      1.0000 0.14180  0.75410  0.40480  Biso   1.000  H
  H50      1.0000 0.85820  0.25410  0.09520  Biso   1.000  H
  H51      1.0000 0.85820  0.24590  0.59520  Biso   1.000  H
  H52      1.0000 0.14180  0.74590  0.90480  Biso   1.000  H
  H53      1.0000 0.17610  0.77310  0.49720  Biso   1.000  H
  H54      1.0000 0.82390  0.27310  0.00280  Biso   1.000  H
  H55      1.0000 0.82390  0.22690  0.50280  Biso   1.000  H
  H56      1.0000 0.17610  0.72690  0.99720  Biso   1.000  H
  N13      1.0000 0.23838  0.71460  0.40797  Biso   1.000  N
  N14      1.0000 0.76162  0.21460  0.09203  Biso   1.000  N
  N15      1.0000 0.76162  0.28540  0.59203  Biso   1.000  N
  N16      1.0000 0.23838  0.78540  0.90797  Biso   1.000  N
  C29      1.0000 0.24520  0.87030  0.36730  Biso   1.000  C
  C30      1.0000 0.75480  0.37030  0.13270  Biso   1.000  C
  C31      1.0000 0.75480  0.12970  0.63270  Biso   1.000  C
  C32      1.0000 0.24520  0.62970  0.86730  Biso   1.000  C
  H57      1.0000 0.24500  0.95220  0.41130  Biso   1.000  H
  H58      1.0000 0.75500  0.45220  0.08870  Biso   1.000  H
  H59      1.0000 0.75500  0.04780  0.58870  Biso   1.000  H
  H60      1.0000 0.24500  0.54780  0.91130  Biso   1.000  H
  H61      1.0000 0.20750  0.88810  0.32800  Biso   1.000  H
  H62      1.0000 0.79250  0.38810  0.17200  Biso   1.000  H
  H63      1.0000 0.79250  0.11190  0.67200  Biso   1.000  H
  H64      1.0000 0.20750  0.61190  0.82800  Biso   1.000  H
  C33      1.0000 0.30464  0.89000  0.31960  Biso   1.000  C
  C34      1.0000 0.69536  0.39000  0.18040  Biso   1.000  C
  C35      1.0000 0.69536  0.11000  0.68040  Biso   1.000  C
  C36      1.0000 0.30464  0.61000  0.81960  Biso   1.000  C
  H65      1.0000 0.34230  0.86300  0.35740  Biso   1.000  H
  H66      1.0000 0.65770  0.36300  0.14260  Biso   1.000  H
  H67      1.0000 0.65770  0.13700  0.64260  Biso   1.000  H
  H68      1.0000 0.34230  0.63700  0.85740  Biso   1.000  H
  H69      1.0000 0.30860  0.00150  0.30370  Biso   1.000  H
  H70      1.0000 0.69140  0.50150  0.19630  Biso   1.000  H
  H71      1.0000 0.69140  0.99850  0.69630  Biso   1.000  H
  H72      1.0000 0.30860  0.49850  0.80370  Biso   1.000  H
  C37      1.0000 0.30588  0.79080  0.24070  Biso   1.000  C
  C38      1.0000 0.69412  0.29080  0.25930  Biso   1.000  C
  C39      1.0000 0.69412  0.20920  0.75930  Biso   1.000  C
  C40      1.0000 0.30588  0.70920  0.74070  Biso   1.000  C
  H73      1.0000 0.26710  0.81390  0.20430  Biso   1.000  H
  H74      1.0000 0.73290  0.31390  0.29570  Biso   1.000  H
  H75      1.0000 0.73290  0.18610  0.79570  Biso   1.000  H
  H76      1.0000 0.26710  0.68610  0.70430  Biso   1.000  H
  H77      1.0000 0.34320  0.82230  0.20970  Biso   1.000  H
  H78      1.0000 0.65680  0.32230  0.29030  Biso   1.000  H
  H79      1.0000 0.65680  0.17770  0.79030  Biso   1.000  H
  H80      1.0000 0.34320  0.67770  0.70970  Biso   1.000  H
  C41      1.0000 0.37334  0.57710  0.29510  Biso   1.000  C
  C42      1.0000 0.62666  0.07710  0.20490  Biso   1.000  C
  C43      1.0000 0.62666  0.42290  0.70490  Biso   1.000  C
  C44      1.0000 0.37334  0.92290  0.79510  Biso   1.000  C
  H81      1.0000 0.38590  0.65460  0.33940  Biso   1.000  H
  H82      1.0000 0.61410  0.15460  0.16060  Biso   1.000  H
  H83      1.0000 0.61410  0.34540  0.66060  Biso   1.000  H
  H84      1.0000 0.38590  0.84540  0.83940  Biso   1.000  H
  H85      1.0000 0.40540  0.58010  0.25220  Biso   1.000  H
  H86      1.0000 0.59460  0.08010  0.24780  Biso   1.000  H
  H87      1.0000 0.59460  0.41990  0.74780  Biso   1.000  H
  H88      1.0000 0.40540  0.91990  0.75220  Biso   1.000  H
  P1       1.0000 0.37097  0.38236  0.34092  Biso   1.000  P
  P2       1.0000 0.62903  0.88236  0.15908  Biso   1.000  P
  P3       1.0000 0.62903  0.61764  0.65908  Biso   1.000  P
  P4       1.0000 0.37097  0.11764  0.84092  Biso   1.000  P
  O1       1.0000 0.30897  0.37580  0.38487  Biso   1.000  O
  O2       1.0000 0.69103  0.87580  0.11513  Biso   1.000  O
  O3       1.0000 0.69103  0.62420  0.61513  Biso   1.000  O
  O4       1.0000 0.30897  0.12420  0.88487  Biso   1.000  O
  O5       1.0000 0.37494  0.25990  0.27221  Biso   1.000  O
  O6       1.0000 0.62506  0.75990  0.22779  Biso   1.000  O
  O7       1.0000 0.62506  0.74010  0.72779  Biso   1.000  O
  O8       1.0000 0.37494  0.24010  0.77221  Biso   1.000  O
  C45      1.0000 0.44004  0.37170  0.41390  Biso   1.000  C
  C46      1.0000 0.55996  0.87170  0.08610  Biso   1.000  C
  C47      1.0000 0.55996  0.62830  0.58610  Biso   1.000  C
  C48      1.0000 0.44004  0.12830  0.91390  Biso   1.000  C
  H89      1.0000 0.43180  0.29560  0.45880  Biso   1.000  H
  H90      1.0000 0.56820  0.79560  0.04120  Biso   1.000  H
  H91      1.0000 0.56820  0.70440  0.54120  Biso   1.000  H
  H92      1.0000 0.43180  0.20440  0.95880  Biso   1.000  H
  H93      1.0000 0.44740  0.47540  0.44050  Biso   1.000  H
  H94      1.0000 0.55260  0.97540  0.05950  Biso   1.000  H
  H95      1.0000 0.55260  0.52460  0.55950  Biso   1.000  H
  H96      1.0000 0.44740  0.02460  0.94050  Biso   1.000  H
  P5       1.0000 0.51118  0.31289  0.36296  Biso   1.000  P
  P6       1.0000 0.48882  0.81289  0.13704  Biso   1.000  P
  P7       1.0000 0.48882  0.68711  0.63704  Biso   1.000  P
  P8       1.0000 0.51118  0.18711  0.86296  Biso   1.000  P
  O9       1.0000 0.49608  0.15080  0.32600  Biso   1.000  O
  O10      1.0000 0.50392  0.65080  0.17400  Biso   1.000  O
  O11      1.0000 0.50392  0.84920  0.67400  Biso   1.000  O
  O12      1.0000 0.49608  0.34920  0.82600  Biso   1.000  O
  O13      1.0000 0.51835  0.43080  0.29178  Biso   1.000  O
  O14      1.0000 0.48165  0.93080  0.20822  Biso   1.000  O
  O15      1.0000 0.48165  0.56920  0.70822  Biso   1.000  O
  O16      1.0000 0.51835  0.06920  0.79178  Biso   1.000  O
  O17      1.0000 0.56759  0.31150  0.42692  Biso   1.000  O
  O18      1.0000 0.43241  0.81150  0.07308  Biso   1.000  O
  O19      1.0000 0.43241  0.68850  0.57308  Biso   1.000  O
  O20      1.0000 0.56759  0.18850  0.92692  Biso   1.000  O
  C49      1.0000 0.21766  0.25790  0.20390  Biso   1.000  C
  C50      1.0000 0.78234  0.75790  0.29610  Biso   1.000  C
  C51      1.0000 0.78234  0.74210  0.79610  Biso   1.000  C
  C52      1.0000 0.21766  0.24210  0.70390  Biso   1.000  C
  H97      1.0000 0.20630  0.22030  0.14680  Biso   1.000  H
  H98      1.0000 0.79370  0.72030  0.35320  Biso   1.000  H
  H99      1.0000 0.79370  0.77970  0.85320  Biso   1.000  H
  H100     1.0000 0.20630  0.27970  0.64680  Biso   1.000  H
  H101     1.0000 0.19430  0.19740  0.24420  Biso   1.000  H
  H102     1.0000 0.80570  0.69740  0.25580  Biso   1.000  H
  H103     1.0000 0.80570  0.80260  0.75580  Biso   1.000  H
  H104     1.0000 0.19430  0.30260  0.74420  Biso   1.000  H
  H105     1.0000 0.26360  0.24490  0.21650  Biso   1.000  H
  H106     1.0000 0.73640  0.74490  0.28350  Biso   1.000  H
  H107     1.0000 0.73640  0.75510  0.78350  Biso   1.000  H
  H108     1.0000 0.26360  0.25510  0.71650  Biso   1.000  H
  C53      1.0000 0.16520  0.27980  0.41530  Biso   1.000  C
  C54      1.0000 0.83480  0.77980  0.08470  Biso   1.000  C
  C55      1.0000 0.83480  0.72020  0.58470  Biso   1.000  C
  C56      1.0000 0.16520  0.22020  0.91530  Biso   1.000  C
  H109     1.0000 0.16190  0.21140  0.36580  Biso   1.000  H
  H110     1.0000 0.83810  0.71140  0.13420  Biso   1.000  H
  H111     1.0000 0.83810  0.78860  0.63420  Biso   1.000  H
  H112     1.0000 0.16190  0.28860  0.86580  Biso   1.000  H
  H113     1.0000 0.13120  0.25390  0.45240  Biso   1.000  H
  H114     1.0000 0.86880  0.75390  0.04760  Biso   1.000  H
  H115     1.0000 0.86880  0.74610  0.54760  Biso   1.000  H
  H116     1.0000 0.13120  0.24610  0.95240  Biso   1.000  H
  H117     1.0000 0.20680  0.26490  0.44560  Biso   1.000  H
  H118     1.0000 0.79320  0.76490  0.05440  Biso   1.000  H
  H119     1.0000 0.79320  0.73510  0.55440  Biso   1.000  H
  H120     1.0000 0.20680  0.23510  0.94560  Biso   1.000  H
  C57      1.0000 0.28970  0.69370  0.47580  Biso   1.000  C
  C58      1.0000 0.71030  0.19370  0.02420  Biso   1.000  C
  C59      1.0000 0.71030  0.30630  0.52420  Biso   1.000  C
  C60      1.0000 0.28970  0.80630  0.97580  Biso   1.000  C
  H121     1.0000 0.33120  0.68830  0.45100  Biso   1.000  H
  H122     1.0000 0.66880  0.18830  0.04900  Biso   1.000  H
  H123     1.0000 0.66880  0.31170  0.54900  Biso   1.000  H
  H124     1.0000 0.33120  0.81170  0.95100  Biso   1.000  H
  H125     1.0000 0.28230  0.59640  0.50640  Biso   1.000  H
  H126     1.0000 0.71770  0.09640  0.99360  Biso   1.000  H
  H127     1.0000 0.71770  0.40360  0.49360  Biso   1.000  H
  H128     1.0000 0.28230  0.90360  0.00640  Biso   1.000  H
  H129     1.0000 0.28930  0.78250  0.51480  Biso   1.000  H
  H130     1.0000 0.71070  0.28250  0.98520  Biso   1.000  H
  H131     1.0000 0.71070  0.21750  0.48520  Biso   1.000  H
  H132     1.0000 0.28930  0.71750  0.01480  Biso   1.000  H
  Cu5      1.0000 0.43679  0.12128  0.22791  Biso   1.000  Cu
  Cu6      1.0000 0.56321  0.62128  0.27209  Biso   1.000  Cu
  Cu7      1.0000 0.56321  0.87872  0.77209  Biso   1.000  Cu
  Cu8      1.0000 0.43679  0.37872  0.72791  Biso   1.000  Cu
  O21      1.0000 0.48582  0.30370  0.13747  Biso   1.000  O
  O22      1.0000 0.51418  0.80370  0.36253  Biso   1.000  O
  O23      1.0000 0.51418  0.69630  0.86253  Biso   1.000  O
  O24      1.0000 0.48582  0.19630  0.63747  Biso   1.000  O
  H133     1.0000 0.49750  0.35800  0.18160  Biso   1.000  H
  H134     1.0000 0.50250  0.85800  0.31840  Biso   1.000  H
  H135     1.0000 0.50250  0.64200  0.81840  Biso   1.000  H
  H136     1.0000 0.49750  0.14200  0.68160  Biso   1.000  H
  H137     1.0000 0.46740  0.36280  0.10150  Biso   1.000  H
  H138     1.0000 0.53260  0.86280  0.39850  Biso   1.000  H
  H139     1.0000 0.53260  0.63720  0.89850  Biso   1.000  H
  H140     1.0000 0.46740  0.13720  0.60150  Biso   1.000  H
  O25      1.0000 0.37344  0.06930  0.13391  Biso   1.000  O
  O26      1.0000 0.62656  0.56930  0.36609  Biso   1.000  O
  O27      1.0000 0.62656  0.93070  0.86609  Biso   1.000  O
  O28      1.0000 0.37344  0.43070  0.63391  Biso   1.000  O
  H141     1.0000 0.36160  0.13760  0.10290  Biso   1.000  H
  H142     1.0000 0.63840  0.63760  0.39710  Biso   1.000  H
  H143     1.0000 0.63840  0.86240  0.89710  Biso   1.000  H
  H144     1.0000 0.36160  0.36240  0.60290  Biso   1.000  H
  H145     1.0000 0.38670  0.99680  0.10210  Biso   1.000  H
  H146     1.0000 0.61330  0.49680  0.39790  Biso   1.000  H
  H147     1.0000 0.61330  0.00320  0.89790  Biso   1.000  H
  H148     1.0000 0.38670  0.50320  0.60210  Biso   1.000  H
  O29      1.0000 0.32424  0.20130  0.52895  Biso   1.000  O
  O30      1.0000 0.67576  0.70130  0.97105  Biso   1.000  O
  O31      1.0000 0.67576  0.79870  0.47105  Biso   1.000  O
  O32      1.0000 0.32424  0.29870  0.02895  Biso   1.000  O
  H149     1.0000 0.32040  0.24690  0.48020  Biso   1.000  H
  H150     1.0000 0.67960  0.74690  0.01980  Biso   1.000  H
  H151     1.0000 0.67960  0.75310  0.51980  Biso   1.000  H
  H152     1.0000 0.32040  0.25310  0.98020  Biso   1.000  H
  H153     1.0000 0.35280  0.12100  0.51530  Biso   1.000  H
  H154     1.0000 0.64720  0.62100  0.98470  Biso   1.000  H
  H155     1.0000 0.64720  0.87900  0.48470  Biso   1.000  H
  H156     1.0000 0.35280  0.37900  0.01530  Biso   1.000  H
  O33      1.0000 0.57861  0.01810  0.49820  Biso   1.000  O
  O34      1.0000 0.42139  0.51810  0.00180  Biso   1.000  O
  O35      1.0000 0.42139  0.98190  0.50180  Biso   1.000  O
  O36      1.0000 0.57861  0.48190  0.99820  Biso   1.000  O
  H157     1.0000 0.57680  0.10920  0.48200  Biso   1.000  H
  H158     1.0000 0.42320  0.60920  0.01800  Biso   1.000  H
  H159     1.0000 0.42320  0.89080  0.51800  Biso   1.000  H
  H160     1.0000 0.57680  0.39080  0.98200  Biso   1.000  H
  H161     1.0000 0.55070  0.01420  0.54190  Biso   1.000  H
  H162     1.0000 0.44930  0.51420  0.95810  Biso   1.000  H
  H163     1.0000 0.44930  0.98580  0.45810  Biso   1.000  H
  H164     1.0000 0.55070  0.48580  0.04190  Biso   1.000  H
  Cl1      1.0000 0.09374  0.58676  0.68372  Biso   1.000  Cl
  Cl2      1.0000 0.90626  0.08676  0.81628  Biso   1.000  Cl
  Cl3      1.0000 0.90626  0.41324  0.31628  Biso   1.000  Cl
  Cl4      1.0000 0.09374  0.91324  0.18372  Biso   1.000  Cl
  O37      1.0000 0.15745  0.62460  0.66350  Biso   1.000  O
  O38      1.0000 0.84255  0.12460  0.83650  Biso   1.000  O
  O39      1.0000 0.84255  0.37540  0.33650  Biso   1.000  O
  O40      1.0000 0.15745  0.87540  0.16350  Biso   1.000  O
  O41      1.0000 0.07257  0.45030  0.63850  Biso   1.000  O
  O42      1.0000 0.92743  0.95030  0.86150  Biso   1.000  O
  O43      1.0000 0.92743  0.54970  0.36150  Biso   1.000  O
  O44      1.0000 0.07257  0.04970  0.13850  Biso   1.000  O
  O45      1.0000 0.09425  0.55220  0.77230  Biso   1.000  O
  O46      1.0000 0.90575  0.05220  0.72770  Biso   1.000  O
  O47      1.0000 0.90575  0.44780  0.22770  Biso   1.000  O
  O48      1.0000 0.09425  0.94780  0.27230  Biso   1.000  O
  O49      1.0000 0.05200  0.71330  0.66300  Biso   1.000  O
  O50      1.0000 0.94800  0.21330  0.83700  Biso   1.000  O
  O51      1.0000 0.94800  0.28670  0.33700  Biso   1.000  O
  O52      1.0000 0.05200  0.78670  0.16300  Biso   1.000  O
  C61      1.0000 0.00660  0.81780  0.46590  Biso   1.000  C
  C62      1.0000 0.99340  0.31780  0.03410  Biso   1.000  C
  C63      1.0000 0.99340  0.18220  0.53410  Biso   1.000  C
  C64      1.0000 0.00660  0.68220  0.96590  Biso   1.000  C
  H165     1.0000 0.03200  0.77960  0.42050  Biso   1.000  H
  H166     1.0000 0.96800  0.27960  0.07950  Biso   1.000  H
  H167     1.0000 0.96800  0.22040  0.57950  Biso   1.000  H
  H168     1.0000 0.03200  0.72040  0.92050  Biso   1.000  H
  H169     1.0000 0.96230  0.83290  0.44430  Biso   1.000  H
  H170     1.0000 0.03770  0.33290  0.05570  Biso   1.000  H
  H171     1.0000 0.03770  0.16710  0.55570  Biso   1.000  H
  H172     1.0000 0.96230  0.66710  0.94430  Biso   1.000  H
  H173     1.0000 0.00810  0.74110  0.51170  Biso   1.000  H
  H174     1.0000 0.99190  0.24110  0.98830  Biso   1.000  H
  H175     1.0000 0.99190  0.25890  0.48830  Biso   1.000  H
  H176     1.0000 0.00810  0.75890  0.01170  Biso   1.000  H
  C65      1.0000 0.03290  0.97180  0.49940  Biso   1.000  C
  C66      1.0000 0.96710  0.47180  0.00060  Biso   1.000  C
  C67      1.0000 0.96710  0.02820  0.50060  Biso   1.000  C
  C68      1.0000 0.03290  0.52820  0.99940  Biso   1.000  C
  O53      1.0000 0.08840  0.00410  0.49380  Biso   1.000  O
  O54      1.0000 0.91160  0.50410  0.00620  Biso   1.000  O
  O55      1.0000 0.91160  0.99590  0.50620  Biso   1.000  O
  O56      1.0000 0.08840  0.49590  0.99380  Biso   1.000  O
  C69      1.0000 0.98680  0.07820  0.53640  Biso   1.000  C
  C70      1.0000 0.01320  0.57820  0.96360  Biso   1.000  C
  C71      1.0000 0.01320  0.92180  0.46360  Biso   1.000  C
  C72      1.0000 0.98680  0.42180  0.03640  Biso   1.000  C
  H177     1.0000 0.00740  0.18120  0.54060  Biso   1.000  H
  H178     1.0000 0.99260  0.68120  0.95940  Biso   1.000  H
  H179     1.0000 0.99260  0.81880  0.45940  Biso   1.000  H
  H180     1.0000 0.00740  0.31880  0.04060  Biso   1.000  H
  H181     1.0000 0.97730  0.04210  0.59260  Biso   1.000  H
  H182     1.0000 0.02270  0.54210  0.90740  Biso   1.000  H
  H183     1.0000 0.02270  0.95790  0.40740  Biso   1.000  H
  H184     1.0000 0.97730  0.45790  0.09260  Biso   1.000  H
  H185     1.0000 0.94710  0.08630  0.50090  Biso   1.000  H
  H186     1.0000 0.05290  0.58630  0.99910  Biso   1.000  H
  H187     1.0000 0.05290  0.91370  0.49910  Biso   1.000  H
  H188     1.0000 0.94710  0.41370  0.00090  Biso   1.000  H
