data_image0
_cell_length_a       8.0138
_cell_length_b       8.3802
_cell_length_c       19.8594
_cell_angle_alpha    92.912
_cell_angle_beta     101.06
_cell_angle_gamma    102.543

_symmetry_space_group_name_H-M    "P 1"
_symmetry_int_tables_number       1

loop_
  _symmetry_equiv_pos_as_xyz
  'x, y, z'

loop_
  _atom_site_label
  _atom_site_occupancy
  _atom_site_fract_x
  _atom_site_fract_y
  _atom_site_fract_z
  _atom_site_thermal_displace_type
  _atom_site_B_iso_or_equiv
  _atom_site_type_symbol
  Cu1      1.0000 0.50103  0.34528  0.19791  Biso   1.000  Cu
  Cu2      1.0000 0.49897  0.65472  0.80209  Biso   1.000  Cu
  N1       1.0000 0.43563  0.42432  0.28969  Biso   1.000  N
  N2       1.0000 0.56437  0.57568  0.71031  Biso   1.000  N
  C1       1.0000 0.26493  0.31122  0.29210  Biso   1.000  C
  C2       1.0000 0.73507  0.68878  0.70790  Biso   1.000  C
  H1       1.0000 0.20280  0.36480  0.32180  Biso   1.000  H
  H2       1.0000 0.79720  0.63520  0.67820  Biso   1.000  H
  H3       1.0000 0.28590  0.20960  0.31200  Biso   1.000  H
  H4       1.0000 0.71410  0.79040  0.68800  Biso   1.000  H
  C3       1.0000 0.15401  0.26895  0.21990  Biso   1.000  C
  C4       1.0000 0.84599  0.73105  0.78010  Biso   1.000  C
  H5       1.0000 0.04230  0.19170  0.22120  Biso   1.000  H
  H6       1.0000 0.95770  0.80830  0.77880  Biso   1.000  H
  H7       1.0000 0.12700  0.36980  0.20120  Biso   1.000  H
  H8       1.0000 0.87300  0.63020  0.79880  Biso   1.000  H
  N3       1.0000 0.24881  0.19281  0.17462  Biso   1.000  N
  N4       1.0000 0.75119  0.80719  0.82538  Biso   1.000  N
  C5       1.0000 0.15527  0.19182  0.10188  Biso   1.000  C
  C6       1.0000 0.84473  0.80818  0.89812  Biso   1.000  C
  H9       1.0000 0.13770  0.30340  0.09440  Biso   1.000  H
  H10      1.0000 0.86230  0.69660  0.90560  Biso   1.000  H
  H11      1.0000 0.03840  0.11650  0.09510  Biso   1.000  H
  H12      1.0000 0.96160  0.88350  0.90490  Biso   1.000  H
  C7       1.0000 0.24872  0.13991  0.04787  Biso   1.000  C
  C8       1.0000 0.75128  0.86009  0.95213  Biso   1.000  C
  H13      1.0000 0.16960  0.12610  0.00200  Biso   1.000  H
  H14      1.0000 0.83040  0.87390  0.99800  Biso   1.000  H
  H15      1.0000 0.27440  0.03190  0.05730  Biso   1.000  H
  H16      1.0000 0.72560  0.96810  0.94270  Biso   1.000  H
  C9       1.0000 0.41808  0.26086  0.04551  Biso   1.000  C
  C10      1.0000 0.58192  0.73914  0.95449  Biso   1.000  C
  H17      1.0000 0.45770  0.23000  0.00350  Biso   1.000  H
  H18      1.0000 0.54230  0.77000  0.99650  Biso   1.000  H
  H19      1.0000 0.39410  0.37130  0.04140  Biso   1.000  H
  H20      1.0000 0.60590  0.62870  0.95860  Biso   1.000  H
  N5       1.0000 0.56365  0.27096  0.10652  Biso   1.000  N
  N6       1.0000 0.43635  0.72904  0.89348  Biso   1.000  N
  C11      1.0000 0.71610  0.40250  0.09788  Biso   1.000  C
  C12      1.0000 0.28390  0.59750  0.90212  Biso   1.000  C
  H21      1.0000 0.72360  0.40080  0.04870  Biso   1.000  H
  H22      1.0000 0.27640  0.59920  0.95130  Biso   1.000  H
  H23      1.0000 0.82580  0.38180  0.12450  Biso   1.000  H
  H24      1.0000 0.17420  0.61820  0.87550  Biso   1.000  H
  C13      1.0000 0.69410  0.56786  0.12284  Biso   1.000  C
  C14      1.0000 0.30590  0.43214  0.87716  Biso   1.000  C
  H25      1.0000 0.79620  0.65430  0.11840  Biso   1.000  H
  H26      1.0000 0.20380  0.34570  0.88160  Biso   1.000  H
  H27      1.0000 0.58810  0.59160  0.09440  Biso   1.000  H
  H28      1.0000 0.41190  0.40840  0.90560  Biso   1.000  H
  N7       1.0000 0.67789  0.56795  0.19633  Biso   1.000  N
  N8       1.0000 0.32211  0.43205  0.80367  Biso   1.000  N
  C15      1.0000 0.61530  0.71673  0.21418  Biso   1.000  C
  C16      1.0000 0.38470  0.28327  0.78582  Biso   1.000  C
  H29      1.0000 0.51050  0.71980  0.17900  Biso   1.000  H
  H30      1.0000 0.48950  0.28020  0.82100  Biso   1.000  H
  H31      1.0000 0.70700  0.81540  0.21170  Biso   1.000  H
  H32      1.0000 0.29300  0.18460  0.78830  Biso   1.000  H
  C17      1.0000 0.57000  0.72640  0.28454  Biso   1.000  C
  C18      1.0000 0.43000  0.27360  0.71546  Biso   1.000  C
  H33      1.0000 0.54820  0.83620  0.29430  Biso   1.000  H
  H34      1.0000 0.45180  0.16380  0.70570  Biso   1.000  H
  H35      1.0000 0.67190  0.71560  0.31960  Biso   1.000  H
  H36      1.0000 0.32810  0.28440  0.68040  Biso   1.000  H
  C19      1.0000 0.41174  0.59679  0.29209  Biso   1.000  C
  C20      1.0000 0.58826  0.40321  0.70791  Biso   1.000  C
  H37      1.0000 0.38050  0.62360  0.33650  Biso   1.000  H
  H38      1.0000 0.61950  0.37640  0.66350  Biso   1.000  H
  H39      1.0000 0.31210  0.60230  0.25480  Biso   1.000  H
  H40      1.0000 0.68790  0.39770  0.74520  Biso   1.000  H
  C21      1.0000 0.56859  0.40486  0.35069  Biso   1.000  C
  C22      1.0000 0.43141  0.59514  0.64931  Biso   1.000  C
  H41      1.0000 0.51710  0.40010  0.39230  Biso   1.000  H
  H42      1.0000 0.48290  0.59990  0.60770  Biso   1.000  H
  H43      1.0000 0.66970  0.50060  0.35870  Biso   1.000  H
  H44      1.0000 0.33030  0.49940  0.64130  Biso   1.000  H
  P1       1.0000 0.64186  0.21603  0.33575  Biso   1.000  P
  P2       1.0000 0.35814  0.78397  0.66425  Biso   1.000  P
  O1       1.0000 0.65469  0.20643  0.26073  Biso   1.000  O
  O2       1.0000 0.34531  0.79357  0.73927  Biso   1.000  O
  O3       1.0000 0.52329  0.07347  0.35810  Biso   1.000  O
  O4       1.0000 0.47671  0.92653  0.64190  Biso   1.000  O
  C23      1.0000 0.85741  0.24964  0.38996  Biso   1.000  C
  C24      1.0000 0.14259  0.75036  0.61004  Biso   1.000  C
  H45      1.0000 0.93880  0.33800  0.37340  Biso   1.000  H
  H46      1.0000 0.06120  0.66200  0.62660  Biso   1.000  H
  H47      1.0000 0.85320  0.28490  0.43780  Biso   1.000  H
  H48      1.0000 0.14680  0.71510  0.56220  Biso   1.000  H
  C25      1.0000 0.92338  0.09204  0.38871  Biso   1.000  C
  C26      1.0000 0.07662  0.90796  0.61129  Biso   1.000  C
  H49      1.0000 0.84170  0.00620  0.40650  Biso   1.000  H
  H50      1.0000 0.15830  0.99380  0.59350  Biso   1.000  H
  H51      1.0000 0.91910  0.05500  0.34010  Biso   1.000  H
  H52      1.0000 0.08090  0.94500  0.65990  Biso   1.000  H
  C27      1.0000 0.10697  0.10361  0.42972  Biso   1.000  C
  C28      1.0000 0.89303  0.89639  0.57028  Biso   1.000  C
  O5       1.0000 0.17804  0.22307  0.47518  Biso   1.000  O
  O6       1.0000 0.82196  0.77693  0.52482  Biso   1.000  O
  O7       1.0000 0.17888  0.99014  0.41661  Biso   1.000  O
  O8       1.0000 0.82112  0.00986  0.58339  Biso   1.000  O
  C29      1.0000 0.24655  0.02143  0.19120  Biso   1.000  C
  C30      1.0000 0.75345  0.97857  0.80880  Biso   1.000  C
  H53      1.0000 0.30230  0.02210  0.23970  Biso   1.000  H
  H54      1.0000 0.69770  0.97790  0.76030  Biso   1.000  H
  H55      1.0000 0.31040  0.97160  0.16180  Biso   1.000  H
  H56      1.0000 0.68960  0.02840  0.83820  Biso   1.000  H
  H57      1.0000 0.12540  0.95760  0.18310  Biso   1.000  H
  H58      1.0000 0.87460  0.04240  0.81690  Biso   1.000  H
  C31      1.0000 0.62090  0.11399  0.10717  Biso   1.000  C
  C32      1.0000 0.37910  0.88601  0.89283  Biso   1.000  C
  H59      1.0000 0.52070  0.02290  0.10710  Biso   1.000  H
  H60      1.0000 0.47930  0.97710  0.89290  Biso   1.000  H
  H61      1.0000 0.71090  0.11760  0.14870  Biso   1.000  H
  H62      1.0000 0.28910  0.88240  0.85130  Biso   1.000  H
  H63      1.0000 0.66890  0.09770  0.06620  Biso   1.000  H
  H64      1.0000 0.33110  0.90230  0.93380  Biso   1.000  H
  C33      1.0000 0.85217  0.57558  0.24057  Biso   1.000  C
  C34      1.0000 0.14783  0.42442  0.75943  Biso   1.000  C
  H65      1.0000 0.88720  0.47260  0.23220  Biso   1.000  H
  H66      1.0000 0.11280  0.52740  0.76780  Biso   1.000  H
  H67      1.0000 0.84590  0.59190  0.28910  Biso   1.000  H
  H68      1.0000 0.15410  0.40810  0.71090  Biso   1.000  H
  H69      1.0000 0.93830  0.66730  0.22950  Biso   1.000  H
  H70      1.0000 0.06170  0.33270  0.77050  Biso   1.000  H
  Li1      1.0000 0.42930  0.00570  0.43216  Biso   1.000  Li
  Li2      1.0000 0.57070  0.99430  0.56784  Biso   1.000  Li
  O9       1.0000 0.49783  0.82784  0.48186  Biso   1.000  O
  O10      1.0000 0.50217  0.17216  0.51814  Biso   1.000  O
  H71      1.0000 0.42600  0.74800  0.47530  Biso   1.000  H
  H72      1.0000 0.57400  0.25200  0.52470  Biso   1.000  H
  H73      1.0000 0.59000  0.81000  0.48960  Biso   1.000  H
  H74      1.0000 0.41000  0.19000  0.51040  Biso   1.000  H
  N9       1.0000 0.16738  0.67340  0.08299  Biso   1.000  N
  N10      1.0000 0.83262  0.32660  0.91701  Biso   1.000  N
  O11      1.0000 0.14680  0.59839  0.13363  Biso   1.000  O
  O12      1.0000 0.85320  0.40161  0.86637  Biso   1.000  O
  O13      1.0000 0.31315  0.72020  0.06853  Biso   1.000  O
  O14      1.0000 0.68685  0.27980  0.93147  Biso   1.000  O
  O15      1.0000 0.04110  0.71340  0.04732  Biso   1.000  O
  O16      1.0000 0.95890  0.28660  0.95268  Biso   1.000  O
  O17      1.0000 0.24669  0.55230  0.45472  Biso   1.000  O
  O18      1.0000 0.75331  0.44770  0.54528  Biso   1.000  O
  H75      1.0000 0.15800  0.58200  0.44510  Biso   1.000  H
  H76      1.0000 0.84200  0.41800  0.55490  Biso   1.000  H
  H77      1.0000 0.23300  0.46000  0.46370  Biso   1.000  H
  H78      1.0000 0.76700  0.54000  0.53630  Biso   1.000  H
  O19      1.0000 0.96452  0.68438  0.41458  Biso   1.000  O
  O20      1.0000 0.03548  0.31562  0.58542  Biso   1.000  O
  H79      1.0000 0.01800  0.76900  0.40820  Biso   1.000  H
  H80      1.0000 0.98200  0.23100  0.59180  Biso   1.000  H
  H81      1.0000 0.90800  0.71400  0.44900  Biso   1.000  H
  H82      1.0000 0.09200  0.28600  0.55100  Biso   1.000  H
