data_image0
_cell_length_a       11.377
_cell_length_b       11.377
_cell_length_c       25.411
_cell_angle_alpha    90
_cell_angle_beta     90
_cell_angle_gamma    120

_symmetry_space_group_name_H-M    "P 1"
_symmetry_int_tables_number       1

loop_
  _symmetry_equiv_pos_as_xyz
  'x, y, z'

loop_
  _atom_site_label
  _atom_site_occupancy
  _atom_site_fract_x
  _atom_site_fract_y
  _atom_site_fract_z
  _atom_site_thermal_displace_type
  _atom_site_B_iso_or_equiv
  _atom_site_type_symbol
  Cd1      1.0000 0.50426  0.50426  0.00000  Biso   1.000  Cd
  Cd2      1.0000 0.49574  0.00000  0.66667  Biso   1.000  Cd
  Cd3      1.0000 0.00000  0.49574  0.33333  Biso   1.000  Cd
  Cu1      1.0000 0.31136  0.25130  0.92243  Biso   1.000  Cu
  Cu2      1.0000 0.74870  0.06006  0.58910  Biso   1.000  Cu
  Cu3      1.0000 0.93994  0.68864  0.25577  Biso   1.000  Cu
  Cu4      1.0000 0.06006  0.74870  0.41090  Biso   1.000  Cu
  Cu5      1.0000 0.68864  0.93994  0.74423  Biso   1.000  Cu
  Cu6      1.0000 0.25130  0.31136  0.07757  Biso   1.000  Cu
  O1       1.0000 0.50150  0.38380  0.92989  Biso   1.000  O
  O2       1.0000 0.61620  0.11770  0.59656  Biso   1.000  O
  O3       1.0000 0.88230  0.49850  0.26322  Biso   1.000  O
  O4       1.0000 0.11770  0.61620  0.40344  Biso   1.000  O
  O5       1.0000 0.49850  0.88230  0.73678  Biso   1.000  O
  O6       1.0000 0.38380  0.50150  0.07011  Biso   1.000  O
  O7       1.0000 0.29320  0.39390  0.95625  Biso   1.000  O
  O8       1.0000 0.60610  0.89930  0.62292  Biso   1.000  O
  O9       1.0000 0.10070  0.70680  0.28958  Biso   1.000  O
  O10      1.0000 0.89930  0.60610  0.37708  Biso   1.000  O
  O11      1.0000 0.70680  0.10070  0.71042  Biso   1.000  O
  O12      1.0000 0.39390  0.29320  0.04375  Biso   1.000  O
  C1       1.0000 0.71770  0.51820  0.89284  Biso   1.000  C
  C2       1.0000 0.48180  0.19950  0.55951  Biso   1.000  C
  C3       1.0000 0.80050  0.28230  0.22617  Biso   1.000  C
  C4       1.0000 0.19950  0.48180  0.44049  Biso   1.000  C
  C5       1.0000 0.28230  0.80050  0.77383  Biso   1.000  C
  C6       1.0000 0.51820  0.71770  0.10716  Biso   1.000  C
  H1       1.0000 0.72830  0.59290  0.91180  Biso   1.000  H
  H2       1.0000 0.40710  0.13540  0.57847  Biso   1.000  H
  H3       1.0000 0.86460  0.27170  0.24513  Biso   1.000  H
  H4       1.0000 0.13540  0.40710  0.42153  Biso   1.000  H
  H5       1.0000 0.27170  0.86460  0.75487  Biso   1.000  H
  H6       1.0000 0.59290  0.72830  0.08820  Biso   1.000  H
  C7       1.0000 0.58670  0.28390  0.86955  Biso   1.000  C
  C8       1.0000 0.71610  0.30280  0.53622  Biso   1.000  C
  C9       1.0000 0.69720  0.41330  0.20288  Biso   1.000  C
  C10      1.0000 0.30280  0.71610  0.46378  Biso   1.000  C
  C11      1.0000 0.41330  0.69720  0.79712  Biso   1.000  C
  C12      1.0000 0.28390  0.58670  0.13045  Biso   1.000  C
  C13      1.0000 0.19800  0.53010  0.97691  Biso   1.000  C
  C14      1.0000 0.46990  0.66790  0.64358  Biso   1.000  C
  C15      1.0000 0.33210  0.80200  0.31024  Biso   1.000  C
  C16      1.0000 0.66790  0.46990  0.35642  Biso   1.000  C
  C17      1.0000 0.80200  0.33210  0.68976  Biso   1.000  C
  C18      1.0000 0.53010  0.19800  0.02309  Biso   1.000  C
  H7       1.0000 0.28240  0.60050  0.98730  Biso   1.000  H
  H8       1.0000 0.39950  0.68190  0.65397  Biso   1.000  H
  H9       1.0000 0.31810  0.71760  0.32063  Biso   1.000  H
  H10      1.0000 0.68190  0.39950  0.34603  Biso   1.000  H
  H11      1.0000 0.71760  0.31810  0.67937  Biso   1.000  H
  H12      1.0000 0.60050  0.28240  0.01270  Biso   1.000  H
  C19      1.0000 0.59920  0.39520  0.89822  Biso   1.000  C
  C20      1.0000 0.60480  0.20400  0.56489  Biso   1.000  C
  C21      1.0000 0.79600  0.40080  0.23155  Biso   1.000  C
  C22      1.0000 0.20400  0.60480  0.43511  Biso   1.000  C
  C23      1.0000 0.40080  0.79600  0.76845  Biso   1.000  C
  C24      1.0000 0.39520  0.59920  0.10178  Biso   1.000  C
  N1       1.0000 0.36380  0.11450  0.90053  Biso   1.000  N
  N2       1.0000 0.88550  0.24930  0.56720  Biso   1.000  N
  N3       1.0000 0.75070  0.63620  0.23386  Biso   1.000  N
  N4       1.0000 0.24930  0.88550  0.43280  Biso   1.000  N
  N5       1.0000 0.63620  0.75070  0.76614  Biso   1.000  N
  N6       1.0000 0.11450  0.36380  0.09947  Biso   1.000  N
  N7       1.0000 0.30310  0.29990  0.83067  Biso   1.000  N
  N8       1.0000 0.70010  0.00320  0.49734  Biso   1.000  N
  N9       1.0000 0.99680  0.69690  0.16400  Biso   1.000  N
  N10      1.0000 0.00320  0.70010  0.50266  Biso   1.000  N
  N11      1.0000 0.69690  0.99680  0.83600  Biso   1.000  N
  N12      1.0000 0.29990  0.30310  0.16933  Biso   1.000  N
  N13      1.0000 0.43230  0.14320  0.69966  Biso   1.000  N
  N14      1.0000 0.85680  0.28910  0.36633  Biso   1.000  N
  N15      1.0000 0.71090  0.56770  0.03299  Biso   1.000  N
  N16      1.0000 0.28910  0.85680  0.63367  Biso   1.000  N
  N17      1.0000 0.56770  0.71090  0.96701  Biso   1.000  N
  N18      1.0000 0.14320  0.43230  0.30034  Biso   1.000  N
  C25      1.0000 0.69450  0.30310  0.83607  Biso   1.000  C
  C26      1.0000 0.69690  0.39140  0.50274  Biso   1.000  C
  C27      1.0000 0.60860  0.30550  0.16940  Biso   1.000  C
  C28      1.0000 0.39140  0.69690  0.49726  Biso   1.000  C
  C29      1.0000 0.30550  0.60860  0.83060  Biso   1.000  C
  C30      1.0000 0.30310  0.69450  0.16393  Biso   1.000  C
  H13      1.0000 0.68710  0.22950  0.81720  Biso   1.000  H
  H14      1.0000 0.77050  0.45760  0.48387  Biso   1.000  H
  H15      1.0000 0.54240  0.31290  0.15053  Biso   1.000  H
  H16      1.0000 0.45760  0.77050  0.51613  Biso   1.000  H
  H17      1.0000 0.31290  0.54240  0.84947  Biso   1.000  H
  H18      1.0000 0.22950  0.68710  0.18280  Biso   1.000  H
  N19      1.0000 0.33260  0.26170  0.74056  Biso   1.000  N
  N20      1.0000 0.73830  0.07090  0.40723  Biso   1.000  N
  N21      1.0000 0.92910  0.66740  0.07389  Biso   1.000  N
  N22      1.0000 0.07090  0.73830  0.59277  Biso   1.000  N
  N23      1.0000 0.66740  0.92910  0.92611  Biso   1.000  N
  N24      1.0000 0.26170  0.33260  0.25944  Biso   1.000  N
  C31      1.0000 0.32340  0.27980  0.78989  Biso   1.000  C
  C32      1.0000 0.72020  0.04360  0.45656  Biso   1.000  C
  C33      1.0000 0.95640  0.67660  0.12322  Biso   1.000  C
  C34      1.0000 0.04360  0.72020  0.54344  Biso   1.000  C
  C35      1.0000 0.67660  0.95640  0.87678  Biso   1.000  C
  C36      1.0000 0.27980  0.32340  0.21011  Biso   1.000  C
  C37      1.0000 0.18670  0.40950  0.95830  Biso   1.000  C
  C38      1.0000 0.59050  0.77720  0.62497  Biso   1.000  C
  C39      1.0000 0.22280  0.81330  0.29163  Biso   1.000  C
  C40      1.0000 0.77720  0.59050  0.37503  Biso   1.000  C
  C41      1.0000 0.81330  0.22280  0.70837  Biso   1.000  C
  C42      1.0000 0.40950  0.18670  0.04170  Biso   1.000  C
  C43      1.0000 0.08650  0.54690  0.98014  Biso   1.000  C
  C44      1.0000 0.45310  0.53960  0.64681  Biso   1.000  C
  C45      1.0000 0.46040  0.91350  0.31347  Biso   1.000  C
  C46      1.0000 0.53960  0.45310  0.35319  Biso   1.000  C
  C47      1.0000 0.91350  0.46040  0.68653  Biso   1.000  C
  C48      1.0000 0.54690  0.08650  0.01986  Biso   1.000  C
  H19      1.0000 0.09660  0.62800  0.99300  Biso   1.000  H
  H20      1.0000 0.37200  0.46860  0.65967  Biso   1.000  H
  H21      1.0000 0.53140  0.90340  0.32633  Biso   1.000  H
  H22      1.0000 0.46860  0.37200  0.34033  Biso   1.000  H
  H23      1.0000 0.90340  0.53140  0.67367  Biso   1.000  H
  H24      1.0000 0.62800  0.09660  0.00700  Biso   1.000  H
  C49      1.0000 0.05670  0.30490  0.94323  Biso   1.000  C
  C50      1.0000 0.69510  0.75180  0.60990  Biso   1.000  C
  C51      1.0000 0.24820  0.94330  0.27656  Biso   1.000  C
  C52      1.0000 0.75180  0.69510  0.39010  Biso   1.000  C
  C53      1.0000 0.94330  0.24820  0.72344  Biso   1.000  C
  C54      1.0000 0.30490  0.05670  0.05677  Biso   1.000  C
  C55      1.0000 0.47510  0.14930  0.87675  Biso   1.000  C
  C56      1.0000 0.85070  0.32580  0.54342  Biso   1.000  C
  C57      1.0000 0.67420  0.52490  0.21008  Biso   1.000  C
  C58      1.0000 0.32580  0.85070  0.45658  Biso   1.000  C
  C59      1.0000 0.52490  0.67420  0.78992  Biso   1.000  C
  C60      1.0000 0.14930  0.47510  0.12325  Biso   1.000  C
  H25      1.0000 0.48490  0.07940  0.86250  Biso   1.000  H
  H26      1.0000 0.92060  0.40550  0.52917  Biso   1.000  H
  H27      1.0000 0.59450  0.51510  0.19583  Biso   1.000  H
  H28      1.0000 0.40550  0.92060  0.47083  Biso   1.000  H
  H29      1.0000 0.51510  0.59450  0.80417  Biso   1.000  H
  H30      1.0000 0.07940  0.48490  0.13750  Biso   1.000  H
  N25      1.0000 0.11520  0.12570  0.92590  Biso   1.000  N
  N26      1.0000 0.87430  0.98950  0.59257  Biso   1.000  N
  N27      1.0000 0.01050  0.88480  0.25923  Biso   1.000  N
  N28      1.0000 0.98950  0.87430  0.40743  Biso   1.000  N
  N29      1.0000 0.88480  0.01050  0.74077  Biso   1.000  N
  N30      1.0000 0.12570  0.11520  0.07410  Biso   1.000  N
  C61      1.0000 0.26910  0.96800  0.90770  Biso   1.000  C
  C62      1.0000 0.03200  0.30110  0.57437  Biso   1.000  C
  C63      1.0000 0.69890  0.73090  0.24103  Biso   1.000  C
  C64      1.0000 0.30110  0.03200  0.42563  Biso   1.000  C
  C65      1.0000 0.73090  0.69890  0.75897  Biso   1.000  C
  C66      1.0000 0.96800  0.26910  0.09230  Biso   1.000  C
  H31      1.0000 0.29590  0.91790  0.88450  Biso   1.000  H
  H32      1.0000 0.08210  0.37800  0.55117  Biso   1.000  H
  H33      1.0000 0.62200  0.70410  0.21783  Biso   1.000  H
  H34      1.0000 0.37800  0.08210  0.44883  Biso   1.000  H
  H35      1.0000 0.70410  0.62200  0.78217  Biso   1.000  H
  H36      1.0000 0.91790  0.29590  0.11550  Biso   1.000  H
  H37      1.0000 0.27650  0.94340  0.94360  Biso   1.000  H
  H38      1.0000 0.05660  0.33310  0.61027  Biso   1.000  H
  H39      1.0000 0.66690  0.72350  0.27693  Biso   1.000  H
  H40      1.0000 0.33310  0.05660  0.38973  Biso   1.000  H
  H41      1.0000 0.72350  0.66690  0.72307  Biso   1.000  H
  H42      1.0000 0.94340  0.27650  0.05640  Biso   1.000  H
  C67      1.0000 0.03120  0.16880  0.93020  Biso   1.000  C
  C68      1.0000 0.83120  0.86240  0.59687  Biso   1.000  C
  C69      1.0000 0.13760  0.96880  0.26353  Biso   1.000  C
  C70      1.0000 0.86240  0.83120  0.40313  Biso   1.000  C
  C71      1.0000 0.96880  0.13760  0.73647  Biso   1.000  C
  C72      1.0000 0.16880  0.03120  0.06980  Biso   1.000  C
  H43      1.0000 0.94080  0.10430  0.92420  Biso   1.000  H
  H44      1.0000 0.89570  0.83650  0.59087  Biso   1.000  H
  H45      1.0000 0.16350  0.05920  0.25753  Biso   1.000  H
  H46      1.0000 0.83650  0.89570  0.40913  Biso   1.000  H
  H47      1.0000 0.05920  0.16350  0.74247  Biso   1.000  H
  H48      1.0000 0.10430  0.94080  0.07580  Biso   1.000  H
  C73      1.0000 0.82090  0.53260  0.85994  Biso   1.000  C
  C74      1.0000 0.46740  0.28830  0.52661  Biso   1.000  C
  C75      1.0000 0.71170  0.17910  0.19327  Biso   1.000  C
  C76      1.0000 0.28830  0.46740  0.47339  Biso   1.000  C
  C77      1.0000 0.17910  0.71170  0.80673  Biso   1.000  C
  C78      1.0000 0.53260  0.82090  0.14006  Biso   1.000  C
  H49      1.0000 0.90020  0.61630  0.85770  Biso   1.000  H
  H50      1.0000 0.38370  0.28390  0.52437  Biso   1.000  H
  H51      1.0000 0.71610  0.09980  0.19103  Biso   1.000  H
  H52      1.0000 0.28390  0.38370  0.47563  Biso   1.000  H
  H53      1.0000 0.09980  0.71610  0.80897  Biso   1.000  H
  H54      1.0000 0.61630  0.90020  0.14230  Biso   1.000  H
  C79      1.0000 0.80890  0.42670  0.83079  Biso   1.000  C
  C80      1.0000 0.57330  0.38220  0.49746  Biso   1.000  C
  C81      1.0000 0.61780  0.19110  0.16412  Biso   1.000  C
  C82      1.0000 0.38220  0.57330  0.50254  Biso   1.000  C
  C83      1.0000 0.19110  0.61780  0.83588  Biso   1.000  C
  C84      1.0000 0.42670  0.80890  0.16921  Biso   1.000  C
  H55      1.0000 0.87740  0.43840  0.80770  Biso   1.000  H
  H56      1.0000 0.56160  0.43900  0.47437  Biso   1.000  H
  H57      1.0000 0.56100  0.12260  0.14103  Biso   1.000  H
  H58      1.0000 0.43900  0.56160  0.52563  Biso   1.000  H
  H59      1.0000 0.12260  0.56100  0.85897  Biso   1.000  H
  H60      1.0000 0.43840  0.87740  0.19230  Biso   1.000  H
  C85      1.0000 0.95810  0.44350  0.96430  Biso   1.000  C
  C86      1.0000 0.55650  0.51460  0.63097  Biso   1.000  C
  C87      1.0000 0.48540  0.04190  0.29763  Biso   1.000  C
  C88      1.0000 0.51460  0.55650  0.36903  Biso   1.000  C
  C89      1.0000 0.04190  0.48540  0.70237  Biso   1.000  C
  C90      1.0000 0.44350  0.95810  0.03570  Biso   1.000  C
  H61      1.0000 0.88290  0.45510  0.96640  Biso   1.000  H
  H62      1.0000 0.54490  0.42780  0.63307  Biso   1.000  H
  H63      1.0000 0.57220  0.11710  0.29973  Biso   1.000  H
  H64      1.0000 0.42780  0.54490  0.36693  Biso   1.000  H
  H65      1.0000 0.11710  0.57220  0.70027  Biso   1.000  H
  H66      1.0000 0.45510  0.88290  0.03360  Biso   1.000  H
  C91      1.0000 0.94620  0.32750  0.94620  Biso   1.000  C
  C92      1.0000 0.67250  0.61870  0.61287  Biso   1.000  C
  C93      1.0000 0.38130  0.05380  0.27953  Biso   1.000  C
  C94      1.0000 0.61870  0.67250  0.38713  Biso   1.000  C
  C95      1.0000 0.05380  0.38130  0.72047  Biso   1.000  C
  C96      1.0000 0.32750  0.94620  0.05380  Biso   1.000  C
  H67      1.0000 0.86140  0.25910  0.93520  Biso   1.000  H
  H68      1.0000 0.74090  0.60230  0.60187  Biso   1.000  H
  H69      1.0000 0.39770  0.13860  0.26853  Biso   1.000  H
  H70      1.0000 0.60230  0.74090  0.39813  Biso   1.000  H
  H71      1.0000 0.13860  0.39770  0.73147  Biso   1.000  H
  H72      1.0000 0.25910  0.86140  0.06480  Biso   1.000  H
  C97      1.0000 0.13000  0.92800  0.89730  Biso   1.000  C
  C98      1.0000 0.07200  0.20200  0.56397  Biso   1.000  C
  C99      1.0000 0.79800  0.87000  0.23063  Biso   1.000  C
  C100     1.0000 0.20200  0.07200  0.43603  Biso   1.000  C
  C101     1.0000 0.87000  0.79800  0.76937  Biso   1.000  C
  C102     1.0000 0.92800  0.13000  0.10270  Biso   1.000  C
  H73      1.0000 0.12560  0.94510  0.86020  Biso   1.000  H
  H74      1.0000 0.05490  0.18050  0.52687  Biso   1.000  H
  H75      1.0000 0.81950  0.87440  0.19353  Biso   1.000  H
  H76      1.0000 0.18050  0.05490  0.47313  Biso   1.000  H
  H77      1.0000 0.87440  0.81950  0.80647  Biso   1.000  H
  H78      1.0000 0.94510  0.12560  0.13980  Biso   1.000  H
  H79      1.0000 0.07900  0.83020  0.90170  Biso   1.000  H
  H80      1.0000 0.16980  0.24880  0.56837  Biso   1.000  H
  H81      1.0000 0.75120  0.92100  0.23503  Biso   1.000  H
  H82      1.0000 0.24880  0.16980  0.43163  Biso   1.000  H
  H83      1.0000 0.92100  0.75120  0.76497  Biso   1.000  H
  H84      1.0000 0.83020  0.07900  0.09830  Biso   1.000  H
  C103     1.0000 0.06100  0.97410  0.92130  Biso   1.000  C
  C104     1.0000 0.02590  0.08690  0.58797  Biso   1.000  C
  C105     1.0000 0.91310  0.93900  0.25463  Biso   1.000  C
  C106     1.0000 0.08690  0.02590  0.41203  Biso   1.000  C
  C107     1.0000 0.93900  0.91310  0.74537  Biso   1.000  C
  C108     1.0000 0.97410  0.06100  0.07870  Biso   1.000  C
  H85      1.0000 0.04440  0.93780  0.95680  Biso   1.000  H
  H86      1.0000 0.06220  0.10660  0.62347  Biso   1.000  H
  H87      1.0000 0.89340  0.95560  0.29013  Biso   1.000  H
  H88      1.0000 0.10660  0.06220  0.37653  Biso   1.000  H
  H89      1.0000 0.95560  0.89340  0.70987  Biso   1.000  H
  H90      1.0000 0.93780  0.04440  0.04320  Biso   1.000  H
  H91      1.0000 0.97350  0.93520  0.90400  Biso   1.000  H
  H92      1.0000 0.06480  0.03830  0.57067  Biso   1.000  H
  H93      1.0000 0.96170  0.02650  0.23733  Biso   1.000  H
  H94      1.0000 0.03830  0.06480  0.42933  Biso   1.000  H
  H95      1.0000 0.02650  0.96170  0.76267  Biso   1.000  H
  H96      1.0000 0.93520  0.97350  0.09600  Biso   1.000  H
  C109     1.0000 0.38770  0.19760  0.72192  Biso   1.000  C
  C110     1.0000 0.80240  0.19010  0.38859  Biso   1.000  C
  C111     1.0000 0.80990  0.61230  0.05525  Biso   1.000  C
  C112     1.0000 0.19010  0.80240  0.61141  Biso   1.000  C
  C113     1.0000 0.61230  0.80990  0.94475  Biso   1.000  C
  C114     1.0000 0.19760  0.38770  0.27808  Biso   1.000  C
