data_image0
_cell_length_a       8.89
_cell_length_b       13.226
_cell_length_c       17.248
_cell_angle_alpha    101.448
_cell_angle_beta     98.822
_cell_angle_gamma    107.349

_symmetry_space_group_name_H-M    "P 1"
_symmetry_int_tables_number       1

loop_
  _symmetry_equiv_pos_as_xyz
  'x, y, z'

loop_
  _atom_site_label
  _atom_site_occupancy
  _atom_site_fract_x
  _atom_site_fract_y
  _atom_site_fract_z
  _atom_site_thermal_displace_type
  _atom_site_B_iso_or_equiv
  _atom_site_type_symbol
  Cd1      1.0000 0.19801  0.35503  0.86697  Biso   1.000  Cd
  Cd2      1.0000 0.80199  0.64497  0.13303  Biso   1.000  Cd
  Cu1      1.0000 0.14610  0.34290  0.67317  Biso   1.000  Cu
  Cu2      1.0000 0.85390  0.65710  0.32683  Biso   1.000  Cu
  Cu3      1.0000 0.46240  0.23808  0.81714  Biso   1.000  Cu
  Cu4      1.0000 0.53760  0.76192  0.18286  Biso   1.000  Cu
  O1       1.0000 0.10480  0.43020  0.76620  Biso   1.000  O
  O2       1.0000 0.89520  0.56980  0.23380  Biso   1.000  O
  C1       1.0000 0.09300  0.53000  0.77790  Biso   1.000  C
  C2       1.0000 0.90700  0.47000  0.22210  Biso   1.000  C
  C3       1.0000 0.04500  0.57340  0.84800  Biso   1.000  C
  C4       1.0000 0.95500  0.42660  0.15200  Biso   1.000  C
  H1       1.0000 0.01420  0.53030  0.88320  Biso   1.000  H
  H2       1.0000 0.98580  0.46970  0.11680  Biso   1.000  H
  C5       1.0000 0.04500  0.68000  0.86410  Biso   1.000  C
  C6       1.0000 0.95500  0.32000  0.13590  Biso   1.000  C
  H3       1.0000 0.01950  0.70920  0.91200  Biso   1.000  H
  H4       1.0000 0.98050  0.29080  0.08800  Biso   1.000  H
  C7       1.0000 0.08200  0.74490  0.81190  Biso   1.000  C
  C8       1.0000 0.91800  0.25510  0.18810  Biso   1.000  C
  H5       1.0000 0.07250  0.81420  0.82140  Biso   1.000  H
  H6       1.0000 0.92750  0.18580  0.17860  Biso   1.000  H
  C9       1.0000 0.13400  0.70400  0.74430  Biso   1.000  C
  C10      1.0000 0.86600  0.29600  0.25570  Biso   1.000  C
  H7       1.0000 0.17100  0.74920  0.71140  Biso   1.000  H
  H8       1.0000 0.82900  0.25080  0.28860  Biso   1.000  H
  C11      1.0000 0.13100  0.59340  0.72470  Biso   1.000  C
  C12      1.0000 0.86900  0.40660  0.27530  Biso   1.000  C
  C13      1.0000 0.18300  0.55800  0.65280  Biso   1.000  C
  C14      1.0000 0.81700  0.44200  0.34720  Biso   1.000  C
  H9       1.0000 0.21310  0.61110  0.62450  Biso   1.000  H
  H10      1.0000 0.78690  0.38890  0.37550  Biso   1.000  H
  N1       1.0000 0.19500  0.46450  0.62090  Biso   1.000  N
  N2       1.0000 0.80500  0.53550  0.37910  Biso   1.000  N
  C15      1.0000 0.24500  0.46200  0.54580  Biso   1.000  C
  C16      1.0000 0.75500  0.53800  0.45420  Biso   1.000  C
  H11      1.0000 0.35650  0.51020  0.55700  Biso   1.000  H
  H12      1.0000 0.64350  0.48980  0.44300  Biso   1.000  H
  H13      1.0000 0.17930  0.48970  0.51170  Biso   1.000  H
  H14      1.0000 0.82070  0.51030  0.48830  Biso   1.000  H
  C17      1.0000 0.23400  0.34800  0.49900  Biso   1.000  C
  C18      1.0000 0.76600  0.65200  0.50100  Biso   1.000  C
  H15      1.0000 0.12050  0.31040  0.47310  Biso   1.000  H
  H16      1.0000 0.87950  0.68960  0.52690  Biso   1.000  H
  H17      1.0000 0.28860  0.36030  0.45490  Biso   1.000  H
  H18      1.0000 0.71140  0.63970  0.54510  Biso   1.000  H
  C19      1.0000 0.28900  0.27000  0.53070  Biso   1.000  C
  C20      1.0000 0.71100  0.73000  0.46930  Biso   1.000  C
  H19      1.0000 0.40520  0.30150  0.55320  Biso   1.000  H
  H20      1.0000 0.59480  0.69850  0.44680  Biso   1.000  H
  H21      1.0000 0.26860  0.20520  0.48740  Biso   1.000  H
  H22      1.0000 0.73140  0.79480  0.51260  Biso   1.000  H
  N3       1.0000 0.20700  0.24120  0.59280  Biso   1.000  N
  N4       1.0000 0.79300  0.75880  0.40720  Biso   1.000  N
  C21      1.0000 0.16900  0.13800  0.59170  Biso   1.000  C
  C22      1.0000 0.83100  0.86200  0.40830  Biso   1.000  C
  H23      1.0000 0.19610  0.09520  0.55020  Biso   1.000  H
  H24      1.0000 0.80390  0.90480  0.44980  Biso   1.000  H
  C23      1.0000 0.09000  0.07850  0.64480  Biso   1.000  C
  C24      1.0000 0.91000  0.92150  0.35520  Biso   1.000  C
  C25      1.0000 0.05200  0.96400  0.62320  Biso   1.000  C
  C26      1.0000 0.94800  0.03600  0.37680  Biso   1.000  C
  H25      1.0000 0.08050  0.92960  0.57810  Biso   1.000  H
  H26      1.0000 0.91950  0.07040  0.42190  Biso   1.000  H
  C27      1.0000 0.97300  0.90460  0.66990  Biso   1.000  C
  C28      1.0000 0.02700  0.09540  0.33010  Biso   1.000  C
  H27      1.0000 0.93990  0.82850  0.65380  Biso   1.000  H
  H28      1.0000 0.06010  0.17150  0.34620  Biso   1.000  H
  C29      1.0000 0.94000  0.95580  0.74240  Biso   1.000  C
  C30      1.0000 0.06000  0.04420  0.25760  Biso   1.000  C
  H29      1.0000 0.88710  0.91470  0.77430  Biso   1.000  H
  H30      1.0000 0.11290  0.08530  0.22570  Biso   1.000  H
  C31      1.0000 0.98900  0.06930  0.76410  Biso   1.000  C
  C32      1.0000 0.01100  0.93070  0.23590  Biso   1.000  C
  H31      1.0000 0.97490  0.10530  0.81310  Biso   1.000  H
  H32      1.0000 0.02510  0.89470  0.18690  Biso   1.000  H
  C33      1.0000 0.05800  0.12920  0.71480  Biso   1.000  C
  C34      1.0000 0.94200  0.87080  0.28520  Biso   1.000  C
  O3       1.0000 0.09850  0.23950  0.73870  Biso   1.000  O
  O4       1.0000 0.90150  0.76050  0.26130  Biso   1.000  O
  O5       1.0000 0.43650  0.37840  0.82300  Biso   1.000  O
  O6       1.0000 0.56350  0.62160  0.17700  Biso   1.000  O
  C35      1.0000 0.51200  0.46150  0.79280  Biso   1.000  C
  C36      1.0000 0.48800  0.53850  0.20720  Biso   1.000  C
  C37      1.0000 0.50000  0.56030  0.81560  Biso   1.000  C
  C38      1.0000 0.50000  0.43970  0.18440  Biso   1.000  C
  H33      1.0000 0.44770  0.57370  0.85740  Biso   1.000  H
  H34      1.0000 0.55230  0.42630  0.14260  Biso   1.000  H
  C39      1.0000 0.56300  0.64600  0.77940  Biso   1.000  C
  C40      1.0000 0.43700  0.35400  0.22060  Biso   1.000  C
  H35      1.0000 0.54000  0.71070  0.79110  Biso   1.000  H
  H36      1.0000 0.46000  0.28930  0.20890  Biso   1.000  H
  C41      1.0000 0.65800  0.63000  0.72670  Biso   1.000  C
  C42      1.0000 0.34200  0.37000  0.27330  Biso   1.000  C
  H37      1.0000 0.70270  0.68530  0.70270  Biso   1.000  H
  H38      1.0000 0.29730  0.31470  0.29730  Biso   1.000  H
  C43      1.0000 0.68900  0.53300  0.70840  Biso   1.000  C
  C44      1.0000 0.31100  0.46700  0.29160  Biso   1.000  C
  H39      1.0000 0.76150  0.52650  0.67580  Biso   1.000  H
  H40      1.0000 0.23850  0.47350  0.32420  Biso   1.000  H
  C45      1.0000 0.61300  0.44480  0.73820  Biso   1.000  C
  C46      1.0000 0.38700  0.55520  0.26180  Biso   1.000  C
  C47      1.0000 0.65400  0.35100  0.71850  Biso   1.000  C
  C48      1.0000 0.34600  0.64900  0.28150  Biso   1.000  C
  H41      1.0000 0.72590  0.35260  0.68450  Biso   1.000  H
  H42      1.0000 0.27410  0.64740  0.31550  Biso   1.000  H
  N5       1.0000 0.60600  0.26120  0.74100  Biso   1.000  N
  N6       1.0000 0.39400  0.73880  0.25900  Biso   1.000  N
  C49      1.0000 0.67700  0.17800  0.71290  Biso   1.000  C
  C50      1.0000 0.32300  0.82200  0.28710  Biso   1.000  C
  H43      1.0000 0.75240  0.17340  0.75800  Biso   1.000  H
  H44      1.0000 0.24760  0.82660  0.24200  Biso   1.000  H
  H45      1.0000 0.73460  0.19700  0.67180  Biso   1.000  H
  H46      1.0000 0.26540  0.80300  0.32820  Biso   1.000  H
  C51      1.0000 0.54500  0.07100  0.67880  Biso   1.000  C
  C52      1.0000 0.45500  0.92900  0.32120  Biso   1.000  C
  H47      1.0000 0.58310  0.02300  0.64250  Biso   1.000  H
  H48      1.0000 0.41690  0.97700  0.35750  Biso   1.000  H
  H49      1.0000 0.45490  0.08220  0.64650  Biso   1.000  H
  H50      1.0000 0.54510  0.91780  0.35350  Biso   1.000  H
  C53      1.0000 0.48500  0.01400  0.74100  Biso   1.000  C
  C54      1.0000 0.51500  0.98600  0.25900  Biso   1.000  C
  H51      1.0000 0.39120  0.94940  0.71330  Biso   1.000  H
  H52      1.0000 0.60880  0.05060  0.28670  Biso   1.000  H
  H53      1.0000 0.56830  0.98890  0.76530  Biso   1.000  H
  H54      1.0000 0.43170  0.01110  0.23470  Biso   1.000  H
  N7       1.0000 0.43900  0.08030  0.80670  Biso   1.000  N
  N8       1.0000 0.56100  0.91970  0.19330  Biso   1.000  N
  C55      1.0000 0.39000  0.02960  0.85990  Biso   1.000  C
  C56      1.0000 0.61000  0.97040  0.14010  Biso   1.000  C
  H55      1.0000 0.39510  0.95930  0.85410  Biso   1.000  H
  H56      1.0000 0.60490  0.04070  0.14590  Biso   1.000  H
  C57      1.0000 0.32700  0.07290  0.92900  Biso   1.000  C
  C58      1.0000 0.67300  0.92710  0.07100  Biso   1.000  C
  C59      1.0000 0.29200  0.00280  0.98050  Biso   1.000  C
  C60      1.0000 0.70800  0.99720  0.01950  Biso   1.000  C
  H57      1.0000 0.31120  0.93660  0.96980  Biso   1.000  H
  H58      1.0000 0.68880  0.06340  0.03020  Biso   1.000  H
  C61      1.0000 0.23000  0.03200  0.04620  Biso   1.000  C
  C62      1.0000 0.77000  0.96800  0.95380  Biso   1.000  C
  H59      1.0000 0.20750  0.98570  0.08050  Biso   1.000  H
  H60      1.0000 0.79250  0.01430  0.91950  Biso   1.000  H
  C63      1.0000 0.20200  0.13400  0.06050  Biso   1.000  C
  C64      1.0000 0.79800  0.86600  0.93950  Biso   1.000  C
  H61      1.0000 0.16030  0.15470  0.10490  Biso   1.000  H
  H62      1.0000 0.83970  0.84530  0.89510  Biso   1.000  H
  C65      1.0000 0.23400  0.19980  0.01140  Biso   1.000  C
  C66      1.0000 0.76600  0.80020  0.98860  Biso   1.000  C
  H63      1.0000 0.21430  0.26590  0.02210  Biso   1.000  H
  H64      1.0000 0.78570  0.73410  0.97790  Biso   1.000  H
  C67      1.0000 0.29800  0.16990  0.94180  Biso   1.000  C
  C68      1.0000 0.70200  0.83010  0.05820  Biso   1.000  C
  O7       1.0000 0.32360  0.23450  0.89560  Biso   1.000  O
  O8       1.0000 0.67640  0.76550  0.10440  Biso   1.000  O
  N9       1.0000 0.96300  0.29880  0.91030  Biso   1.000  N
  N10      1.0000 0.03700  0.70120  0.08970  Biso   1.000  N
  C69      1.0000 0.84700  0.31850  0.92330  Biso   1.000  C
  C70      1.0000 0.15300  0.68150  0.07670  Biso   1.000  C
  N11      1.0000 0.71740  0.33090  0.93670  Biso   1.000  N
  N12      1.0000 0.28260  0.66910  0.06330  Biso   1.000  N
  C71      1.0000 0.71700  0.42110  0.98400  Biso   1.000  C
  C72      1.0000 0.28300  0.57890  0.01600  Biso   1.000  C
  N13      1.0000 0.71000  0.49770  0.02260  Biso   1.000  N
  N14      1.0000 0.29000  0.50230  0.97740  Biso   1.000  N
  Cl1      1.0000 0.73970  0.22720  0.50160  Biso   1.000  Cl
  Cl2      1.0000 0.26030  0.77280  0.49840  Biso   1.000  Cl
  O9       1.0000 0.78100  0.22520  0.42220  Biso   1.000  O
  O10      1.0000 0.21900  0.77480  0.57780  Biso   1.000  O
  O11      1.0000 0.83900  0.33000  0.56000  Biso   1.000  O
  O12      1.0000 0.16100  0.67000  0.44000  Biso   1.000  O
  O13      1.0000 0.77500  0.13600  0.52900  Biso   1.000  O
  O14      1.0000 0.22500  0.86400  0.47100  Biso   1.000  O
  O15      1.0000 0.56900  0.21000  0.49400  Biso   1.000  O
  O16      1.0000 0.43100  0.79000  0.50600  Biso   1.000  O
  H65      1.0000 0.30640  0.53590  0.54610  Biso   1.000  H
  H66      1.0000 0.69360  0.46410  0.45390  Biso   1.000  H
  H67      1.0000 0.14920  0.43650  0.50210  Biso   1.000  H
  H68      1.0000 0.85080  0.56350  0.49790  Biso   1.000  H
  C73      1.0000 0.34800  0.39000  0.52600  Biso   1.000  C
  C74      1.0000 0.65200  0.61000  0.47400  Biso   1.000  C
  H69      1.0000 0.45390  0.42570  0.56170  Biso   1.000  H
  H70      1.0000 0.54610  0.57430  0.43830  Biso   1.000  H
  H71      1.0000 0.36140  0.38900  0.47090  Biso   1.000  H
  H72      1.0000 0.63860  0.61100  0.52910  Biso   1.000  H
  H73      1.0000 0.21790  0.22670  0.47880  Biso   1.000  H
  H74      1.0000 0.78210  0.77330  0.52120  Biso   1.000  H
  H75      1.0000 0.38330  0.24700  0.53620  Biso   1.000  H
  H76      1.0000 0.61670  0.75300  0.46380  Biso   1.000  H
  O17      1.0000 0.59200  0.13600  0.49400  Biso   1.000  O
  O18      1.0000 0.40800  0.86400  0.50600  Biso   1.000  O
  O19      1.0000 0.87100  0.22400  0.56000  Biso   1.000  O
  O20      1.0000 0.12900  0.77600  0.44000  Biso   1.000  O
  O21      1.0000 0.70700  0.33000  0.53000  Biso   1.000  O
  O22      1.0000 0.29300  0.67000  0.47000  Biso   1.000  O
