data_image0
_cell_length_a       8.09
_cell_length_b       27.992
_cell_length_c       17.987
_cell_angle_alpha    90
_cell_angle_beta     90
_cell_angle_gamma    90

_symmetry_space_group_name_H-M    "P 1"
_symmetry_int_tables_number       1

loop_
  _symmetry_equiv_pos_as_xyz
  'x, y, z'

loop_
  _atom_site_label
  _atom_site_occupancy
  _atom_site_fract_x
  _atom_site_fract_y
  _atom_site_fract_z
  _atom_site_thermal_displace_type
  _atom_site_B_iso_or_equiv
  _atom_site_type_symbol
  Cd1      1.0000 0.00000  0.22867  0.75000  Biso   1.000  Cd
  Cd2      1.0000 0.00000  0.77133  0.25000  Biso   1.000  Cd
  Cd3      1.0000 0.50000  0.72867  0.75000  Biso   1.000  Cd
  Cd4      1.0000 0.50000  0.27133  0.25000  Biso   1.000  Cd
  Cu1      1.0000 0.00345  0.16057  0.90255  Biso   1.000  Cu
  Cu2      1.0000 0.99655  0.83943  0.40255  Biso   1.000  Cu
  Cu3      1.0000 0.00345  0.83943  0.09745  Biso   1.000  Cu
  Cu4      1.0000 0.99655  0.16057  0.59745  Biso   1.000  Cu
  Cu5      1.0000 0.50345  0.66057  0.90255  Biso   1.000  Cu
  Cu6      1.0000 0.49655  0.33943  0.40255  Biso   1.000  Cu
  Cu7      1.0000 0.50345  0.33943  0.09745  Biso   1.000  Cu
  Cu8      1.0000 0.49655  0.66057  0.59745  Biso   1.000  Cu
  O1       1.0000 0.04890  0.22677  0.87716  Biso   1.000  O
  O2       1.0000 0.95110  0.77323  0.37716  Biso   1.000  O
  O3       1.0000 0.04890  0.77323  0.12284  Biso   1.000  O
  O4       1.0000 0.95110  0.22677  0.62284  Biso   1.000  O
  O5       1.0000 0.54890  0.72677  0.87716  Biso   1.000  O
  O6       1.0000 0.45110  0.27323  0.37716  Biso   1.000  O
  O7       1.0000 0.54890  0.27323  0.12284  Biso   1.000  O
  O8       1.0000 0.45110  0.72677  0.62284  Biso   1.000  O
  O9       1.0000 0.87680  0.16548  0.81194  Biso   1.000  O
  O10      1.0000 0.12320  0.83452  0.31194  Biso   1.000  O
  O11      1.0000 0.87680  0.83452  0.18806  Biso   1.000  O
  O12      1.0000 0.12320  0.16548  0.68806  Biso   1.000  O
  O13      1.0000 0.37680  0.66548  0.81194  Biso   1.000  O
  O14      1.0000 0.62320  0.33452  0.31194  Biso   1.000  O
  O15      1.0000 0.37680  0.33452  0.18806  Biso   1.000  O
  O16      1.0000 0.62320  0.66548  0.68806  Biso   1.000  O
  C1       1.0000 0.11740  0.25581  0.99740  Biso   1.000  C
  C2       1.0000 0.88260  0.74419  0.49740  Biso   1.000  C
  C3       1.0000 0.11740  0.74419  0.00260  Biso   1.000  C
  C4       1.0000 0.88260  0.25581  0.50260  Biso   1.000  C
  C5       1.0000 0.61740  0.75581  0.99740  Biso   1.000  C
  C6       1.0000 0.38260  0.24419  0.49740  Biso   1.000  C
  C7       1.0000 0.61740  0.24419  0.00260  Biso   1.000  C
  C8       1.0000 0.38260  0.75581  0.50260  Biso   1.000  C
  C9       1.0000 0.63920  0.28813  0.75550  Biso   1.000  C
  C10      1.0000 0.36080  0.71187  0.25550  Biso   1.000  C
  C11      1.0000 0.63920  0.71187  0.24450  Biso   1.000  C
  C12      1.0000 0.36080  0.28813  0.74450  Biso   1.000  C
  C13      1.0000 0.13920  0.78813  0.75550  Biso   1.000  C
  C14      1.0000 0.86080  0.21187  0.25550  Biso   1.000  C
  C15      1.0000 0.13920  0.21187  0.24450  Biso   1.000  C
  C16      1.0000 0.86080  0.78813  0.74450  Biso   1.000  C
  N1       1.0000 0.97850  0.09138  0.90657  Biso   1.000  N
  N2       1.0000 0.02150  0.90862  0.40657  Biso   1.000  N
  N3       1.0000 0.97850  0.90862  0.09343  Biso   1.000  N
  N4       1.0000 0.02150  0.09138  0.59343  Biso   1.000  N
  N5       1.0000 0.47850  0.59138  0.90657  Biso   1.000  N
  N6       1.0000 0.52150  0.40862  0.40657  Biso   1.000  N
  N7       1.0000 0.47850  0.40862  0.09343  Biso   1.000  N
  N8       1.0000 0.52150  0.59138  0.59343  Biso   1.000  N
  C17      1.0000 0.81470  0.08277  0.79370  Biso   1.000  C
  C18      1.0000 0.18530  0.91723  0.29370  Biso   1.000  C
  C19      1.0000 0.81470  0.91723  0.20630  Biso   1.000  C
  C20      1.0000 0.18530  0.08277  0.70630  Biso   1.000  C
  C21      1.0000 0.31470  0.58277  0.79370  Biso   1.000  C
  C22      1.0000 0.68530  0.41723  0.29370  Biso   1.000  C
  C23      1.0000 0.31470  0.41723  0.20630  Biso   1.000  C
  C24      1.0000 0.68530  0.58277  0.70630  Biso   1.000  C
  C25      1.0000 0.63780  0.10750  0.66650  Biso   1.000  C
  C26      1.0000 0.36220  0.89250  0.16650  Biso   1.000  C
  C27      1.0000 0.63780  0.89250  0.33350  Biso   1.000  C
  C28      1.0000 0.36220  0.10750  0.83350  Biso   1.000  C
  C29      1.0000 0.13780  0.60750  0.66650  Biso   1.000  C
  C30      1.0000 0.86220  0.39250  0.16650  Biso   1.000  C
  C31      1.0000 0.13780  0.39250  0.33350  Biso   1.000  C
  C32      1.0000 0.86220  0.60750  0.83350  Biso   1.000  C
  H1       1.0000 0.57760  0.11590  0.62450  Biso   1.000  H
  H2       1.0000 0.42240  0.88410  0.12450  Biso   1.000  H
  H3       1.0000 0.57760  0.88410  0.37550  Biso   1.000  H
  H4       1.0000 0.42240  0.11590  0.87550  Biso   1.000  H
  H5       1.0000 0.07760  0.61590  0.62450  Biso   1.000  H
  H6       1.0000 0.92240  0.38410  0.12450  Biso   1.000  H
  H7       1.0000 0.07760  0.38410  0.37550  Biso   1.000  H
  H8       1.0000 0.92240  0.61590  0.87550  Biso   1.000  H
  C33      1.0000 0.71130  0.14260  0.70930  Biso   1.000  C
  C34      1.0000 0.28870  0.85740  0.20930  Biso   1.000  C
  C35      1.0000 0.71130  0.85740  0.29070  Biso   1.000  C
  C36      1.0000 0.28870  0.14260  0.79070  Biso   1.000  C
  C37      1.0000 0.21130  0.64260  0.70930  Biso   1.000  C
  C38      1.0000 0.78870  0.35740  0.20930  Biso   1.000  C
  C39      1.0000 0.21130  0.35740  0.29070  Biso   1.000  C
  C40      1.0000 0.78870  0.64260  0.79070  Biso   1.000  C
  H9       1.0000 0.70000  0.17450  0.69580  Biso   1.000  H
  H10      1.0000 0.30000  0.82550  0.19580  Biso   1.000  H
  H11      1.0000 0.70000  0.82550  0.30420  Biso   1.000  H
  H12      1.0000 0.30000  0.17450  0.80420  Biso   1.000  H
  H13      1.0000 0.20000  0.67450  0.69580  Biso   1.000  H
  H14      1.0000 0.80000  0.32550  0.19580  Biso   1.000  H
  H15      1.0000 0.20000  0.32550  0.30420  Biso   1.000  H
  H16      1.0000 0.80000  0.67450  0.80420  Biso   1.000  H
  C41      1.0000 0.73840  0.04807  0.74500  Biso   1.000  C
  C42      1.0000 0.26160  0.95193  0.24500  Biso   1.000  C
  C43      1.0000 0.73840  0.95193  0.25500  Biso   1.000  C
  C44      1.0000 0.26160  0.04807  0.75500  Biso   1.000  C
  C45      1.0000 0.23840  0.54807  0.74500  Biso   1.000  C
  C46      1.0000 0.76160  0.45193  0.24500  Biso   1.000  C
  C47      1.0000 0.23840  0.45193  0.25500  Biso   1.000  C
  C48      1.0000 0.76160  0.54807  0.75500  Biso   1.000  C
  H17      1.0000 0.75000  0.01580  0.75620  Biso   1.000  H
  H18      1.0000 0.25000  0.98420  0.25620  Biso   1.000  H
  H19      1.0000 0.75000  0.98420  0.24380  Biso   1.000  H
  H20      1.0000 0.25000  0.01580  0.74380  Biso   1.000  H
  H21      1.0000 0.25000  0.51580  0.75620  Biso   1.000  H
  H22      1.0000 0.75000  0.48420  0.25620  Biso   1.000  H
  H23      1.0000 0.25000  0.48420  0.24380  Biso   1.000  H
  H24      1.0000 0.75000  0.51580  0.74380  Biso   1.000  H
  C49      1.0000 0.07760  0.26295  0.92230  Biso   1.000  C
  C50      1.0000 0.92240  0.73705  0.42230  Biso   1.000  C
  C51      1.0000 0.07760  0.73705  0.07770  Biso   1.000  C
  C52      1.0000 0.92240  0.26295  0.57770  Biso   1.000  C
  C53      1.0000 0.57760  0.76295  0.92230  Biso   1.000  C
  C54      1.0000 0.42240  0.23705  0.42230  Biso   1.000  C
  C55      1.0000 0.57760  0.23705  0.07770  Biso   1.000  C
  C56      1.0000 0.42240  0.76295  0.57770  Biso   1.000  C
  C57      1.0000 0.06860  0.30995  0.89490  Biso   1.000  C
  C58      1.0000 0.93140  0.69005  0.39490  Biso   1.000  C
  C59      1.0000 0.06860  0.69005  0.10510  Biso   1.000  C
  C60      1.0000 0.93140  0.30995  0.60510  Biso   1.000  C
  C61      1.0000 0.56860  0.80995  0.89490  Biso   1.000  C
  C62      1.0000 0.43140  0.19005  0.39490  Biso   1.000  C
  C63      1.0000 0.56860  0.19005  0.10510  Biso   1.000  C
  C64      1.0000 0.43140  0.80995  0.60510  Biso   1.000  C
  H25      1.0000 0.04190  0.31520  0.84530  Biso   1.000  H
  H26      1.0000 0.95810  0.68480  0.34530  Biso   1.000  H
  H27      1.0000 0.04190  0.68480  0.15470  Biso   1.000  H
  H28      1.0000 0.95810  0.31520  0.65470  Biso   1.000  H
  H29      1.0000 0.54190  0.81520  0.84530  Biso   1.000  H
  H30      1.0000 0.45810  0.18480  0.34530  Biso   1.000  H
  H31      1.0000 0.54190  0.18480  0.15470  Biso   1.000  H
  H32      1.0000 0.45810  0.81520  0.65470  Biso   1.000  H
  C65      1.0000 0.65310  0.06020  0.68570  Biso   1.000  C
  C66      1.0000 0.34690  0.93980  0.18570  Biso   1.000  C
  C67      1.0000 0.65310  0.93980  0.31430  Biso   1.000  C
  C68      1.0000 0.34690  0.06020  0.81430  Biso   1.000  C
  C69      1.0000 0.15310  0.56020  0.68570  Biso   1.000  C
  C70      1.0000 0.84690  0.43980  0.18570  Biso   1.000  C
  C71      1.0000 0.15310  0.43980  0.31430  Biso   1.000  C
  C72      1.0000 0.84690  0.56020  0.81430  Biso   1.000  C
  H33      1.0000 0.60310  0.03680  0.65670  Biso   1.000  H
  H34      1.0000 0.39690  0.96320  0.15670  Biso   1.000  H
  H35      1.0000 0.60310  0.96320  0.34330  Biso   1.000  H
  H36      1.0000 0.39690  0.03680  0.84330  Biso   1.000  H
  H37      1.0000 0.10310  0.53680  0.65670  Biso   1.000  H
  H38      1.0000 0.89690  0.46320  0.15670  Biso   1.000  H
  H39      1.0000 0.10310  0.46320  0.34330  Biso   1.000  H
  H40      1.0000 0.89690  0.53680  0.84330  Biso   1.000  H
  C73      1.0000 0.90100  0.06628  0.85840  Biso   1.000  C
  C74      1.0000 0.09900  0.93372  0.35840  Biso   1.000  C
  C75      1.0000 0.90100  0.93372  0.14160  Biso   1.000  C
  C76      1.0000 0.09900  0.06628  0.64160  Biso   1.000  C
  C77      1.0000 0.40100  0.56628  0.85840  Biso   1.000  C
  C78      1.0000 0.59900  0.43372  0.35840  Biso   1.000  C
  C79      1.0000 0.40100  0.43372  0.14160  Biso   1.000  C
  C80      1.0000 0.59900  0.56628  0.64160  Biso   1.000  C
  H41      1.0000 0.90070  0.03350  0.86630  Biso   1.000  H
  H42      1.0000 0.09930  0.96650  0.36630  Biso   1.000  H
  H43      1.0000 0.90070  0.96650  0.13370  Biso   1.000  H
  H44      1.0000 0.09930  0.03350  0.63370  Biso   1.000  H
  H45      1.0000 0.40070  0.53350  0.86630  Biso   1.000  H
  H46      1.0000 0.59930  0.46650  0.36630  Biso   1.000  H
  H47      1.0000 0.40070  0.46650  0.13370  Biso   1.000  H
  H48      1.0000 0.59930  0.53350  0.63370  Biso   1.000  H
  C81      1.0000 0.05090  0.06180  0.96660  Biso   1.000  C
  C82      1.0000 0.94910  0.93820  0.46660  Biso   1.000  C
  C83      1.0000 0.05090  0.93820  0.03340  Biso   1.000  C
  C84      1.0000 0.94910  0.06180  0.53340  Biso   1.000  C
  C85      1.0000 0.55090  0.56180  0.96660  Biso   1.000  C
  C86      1.0000 0.44910  0.43820  0.46660  Biso   1.000  C
  C87      1.0000 0.55090  0.43820  0.03340  Biso   1.000  C
  C88      1.0000 0.44910  0.56180  0.53340  Biso   1.000  C
  H49      1.0000 0.99070  0.03190  0.96960  Biso   1.000  H
  H50      1.0000 0.00930  0.96810  0.46960  Biso   1.000  H
  H51      1.0000 0.99070  0.96810  0.03040  Biso   1.000  H
  H52      1.0000 0.00930  0.03190  0.53040  Biso   1.000  H
  H53      1.0000 0.49070  0.53190  0.96960  Biso   1.000  H
  H54      1.0000 0.50930  0.46810  0.46960  Biso   1.000  H
  H55      1.0000 0.49070  0.46810  0.03040  Biso   1.000  H
  H56      1.0000 0.50930  0.53190  0.53040  Biso   1.000  H
  H57      1.0000 0.16460  0.05440  0.95390  Biso   1.000  H
  H58      1.0000 0.83540  0.94560  0.45390  Biso   1.000  H
  H59      1.0000 0.16460  0.94560  0.04610  Biso   1.000  H
  H60      1.0000 0.83540  0.05440  0.54610  Biso   1.000  H
  H61      1.0000 0.66460  0.55440  0.95390  Biso   1.000  H
  H62      1.0000 0.33540  0.44560  0.45390  Biso   1.000  H
  H63      1.0000 0.66460  0.44560  0.04610  Biso   1.000  H
  H64      1.0000 0.33540  0.55440  0.54610  Biso   1.000  H
  C89      1.0000 0.04720  0.08510  0.03890  Biso   1.000  C
  C90      1.0000 0.95280  0.91490  0.53890  Biso   1.000  C
  C91      1.0000 0.04720  0.91490  0.96110  Biso   1.000  C
  C92      1.0000 0.95280  0.08510  0.46110  Biso   1.000  C
  C93      1.0000 0.54720  0.58510  0.03890  Biso   1.000  C
  C94      1.0000 0.45280  0.41490  0.53890  Biso   1.000  C
  C95      1.0000 0.54720  0.41490  0.96110  Biso   1.000  C
  C96      1.0000 0.45280  0.58510  0.46110  Biso   1.000  C
  H65      1.0000 0.93410  0.09450  0.04940  Biso   1.000  H
  H66      1.0000 0.06590  0.90550  0.54940  Biso   1.000  H
  H67      1.0000 0.93410  0.90550  0.95060  Biso   1.000  H
  H68      1.0000 0.06590  0.09450  0.45060  Biso   1.000  H
  H69      1.0000 0.43410  0.59450  0.04940  Biso   1.000  H
  H70      1.0000 0.56590  0.40550  0.54940  Biso   1.000  H
  H71      1.0000 0.43410  0.40550  0.95060  Biso   1.000  H
  H72      1.0000 0.56590  0.59450  0.45060  Biso   1.000  H
  H73      1.0000 0.07920  0.06190  0.07630  Biso   1.000  H
  H74      1.0000 0.92080  0.93810  0.57630  Biso   1.000  H
  H75      1.0000 0.07920  0.93810  0.92370  Biso   1.000  H
  H76      1.0000 0.92080  0.06190  0.42370  Biso   1.000  H
  H77      1.0000 0.57920  0.56190  0.07630  Biso   1.000  H
  H78      1.0000 0.42080  0.43810  0.57630  Biso   1.000  H
  H79      1.0000 0.57920  0.43810  0.92370  Biso   1.000  H
  H80      1.0000 0.42080  0.56190  0.42370  Biso   1.000  H
  C97      1.0000 0.14010  0.34078  0.01560  Biso   1.000  C
  C98      1.0000 0.85990  0.65922  0.51560  Biso   1.000  C
  C99      1.0000 0.14010  0.65922  0.98440  Biso   1.000  C
  C100     1.0000 0.85990  0.34078  0.48440  Biso   1.000  C
  C101     1.0000 0.64010  0.84078  0.01560  Biso   1.000  C
  C102     1.0000 0.35990  0.15922  0.51560  Biso   1.000  C
  C103     1.0000 0.64010  0.15922  0.98440  Biso   1.000  C
  C104     1.0000 0.35990  0.84078  0.48440  Biso   1.000  C
  H81      1.0000 0.16250  0.36660  0.04650  Biso   1.000  H
  H82      1.0000 0.83750  0.63340  0.54650  Biso   1.000  H
  H83      1.0000 0.16250  0.63340  0.95350  Biso   1.000  H
  H84      1.0000 0.83750  0.36660  0.45350  Biso   1.000  H
  H85      1.0000 0.66250  0.86660  0.04650  Biso   1.000  H
  H86      1.0000 0.33750  0.13340  0.54650  Biso   1.000  H
  H87      1.0000 0.66250  0.13340  0.95350  Biso   1.000  H
  H88      1.0000 0.33750  0.86660  0.45350  Biso   1.000  H
  N9       1.0000 0.50000  0.31000  0.75000  Biso   1.000  N
  N10      1.0000 0.50000  0.69000  0.25000  Biso   1.000  N
  N11      1.0000 0.00000  0.81000  0.75000  Biso   1.000  N
  N12      1.0000 0.00000  0.19000  0.25000  Biso   1.000  N
  C105     1.0000 0.09950  0.34872  0.94140  Biso   1.000  C
  C106     1.0000 0.90050  0.65128  0.44140  Biso   1.000  C
  C107     1.0000 0.09950  0.65128  0.05860  Biso   1.000  C
  C108     1.0000 0.90050  0.34872  0.55860  Biso   1.000  C
  C109     1.0000 0.59950  0.84872  0.94140  Biso   1.000  C
  C110     1.0000 0.40050  0.15128  0.44140  Biso   1.000  C
  C111     1.0000 0.59950  0.15128  0.05860  Biso   1.000  C
  C112     1.0000 0.40050  0.84872  0.55860  Biso   1.000  C
  H89      1.0000 0.09300  0.37970  0.92300  Biso   1.000  H
  H90      1.0000 0.90700  0.62030  0.42300  Biso   1.000  H
  H91      1.0000 0.09300  0.62030  0.07700  Biso   1.000  H
  H92      1.0000 0.90700  0.37970  0.57700  Biso   1.000  H
  H93      1.0000 0.59300  0.87970  0.92300  Biso   1.000  H
  H94      1.0000 0.40700  0.12030  0.42300  Biso   1.000  H
  H95      1.0000 0.59300  0.12030  0.07700  Biso   1.000  H
  H96      1.0000 0.40700  0.87970  0.57700  Biso   1.000  H
  C113     1.0000 0.14700  0.29700  0.04250  Biso   1.000  C
  C114     1.0000 0.85300  0.70300  0.54250  Biso   1.000  C
  C115     1.0000 0.14700  0.70300  0.95750  Biso   1.000  C
  C116     1.0000 0.85300  0.29700  0.45750  Biso   1.000  C
  C117     1.0000 0.64700  0.79700  0.04250  Biso   1.000  C
  C118     1.0000 0.35300  0.20300  0.54250  Biso   1.000  C
  C119     1.0000 0.64700  0.20300  0.95750  Biso   1.000  C
  C120     1.0000 0.35300  0.79700  0.45750  Biso   1.000  C
  H97      1.0000 0.17200  0.29270  0.09260  Biso   1.000  H
  H98      1.0000 0.82800  0.70730  0.59260  Biso   1.000  H
  H99      1.0000 0.17200  0.70730  0.90740  Biso   1.000  H
  H100     1.0000 0.82800  0.29270  0.40740  Biso   1.000  H
  H101     1.0000 0.67200  0.79270  0.09260  Biso   1.000  H
  H102     1.0000 0.32800  0.20730  0.59260  Biso   1.000  H
  H103     1.0000 0.67200  0.20730  0.90740  Biso   1.000  H
  H104     1.0000 0.32800  0.79270  0.40740  Biso   1.000  H
  C121     1.0000 0.80360  0.13041  0.77341  Biso   1.000  C
  C122     1.0000 0.19640  0.86959  0.27341  Biso   1.000  C
  C123     1.0000 0.80360  0.86959  0.22659  Biso   1.000  C
  C124     1.0000 0.19640  0.13041  0.72659  Biso   1.000  C
  C125     1.0000 0.30360  0.63041  0.77341  Biso   1.000  C
  C126     1.0000 0.69640  0.36959  0.27341  Biso   1.000  C
  C127     1.0000 0.30360  0.36959  0.22659  Biso   1.000  C
  C128     1.0000 0.69640  0.63041  0.72659  Biso   1.000  C
  C129     1.0000 0.13180  0.21050  0.02980  Biso   1.000  C
  C130     1.0000 0.86820  0.78950  0.52980  Biso   1.000  C
  C131     1.0000 0.13180  0.78950  0.97020  Biso   1.000  C
  C132     1.0000 0.86820  0.21050  0.47020  Biso   1.000  C
  C133     1.0000 0.63180  0.71050  0.02980  Biso   1.000  C
  C134     1.0000 0.36820  0.28950  0.52980  Biso   1.000  C
  C135     1.0000 0.63180  0.28950  0.97020  Biso   1.000  C
  C136     1.0000 0.36820  0.71050  0.47020  Biso   1.000  C
  H105     1.0000 0.16760  0.21040  0.07890  Biso   1.000  H
  H106     1.0000 0.83240  0.78960  0.57890  Biso   1.000  H
  H107     1.0000 0.16760  0.78960  0.92110  Biso   1.000  H
  H108     1.0000 0.83240  0.21040  0.42110  Biso   1.000  H
  H109     1.0000 0.66760  0.71040  0.07890  Biso   1.000  H
  H110     1.0000 0.33240  0.28960  0.57890  Biso   1.000  H
  H111     1.0000 0.66760  0.28960  0.92110  Biso   1.000  H
  H112     1.0000 0.33240  0.71040  0.42110  Biso   1.000  H
  C137     1.0000 0.14610  0.12450  0.04680  Biso   1.000  C
  C138     1.0000 0.85390  0.87550  0.54680  Biso   1.000  C
  C139     1.0000 0.14610  0.87550  0.95320  Biso   1.000  C
  C140     1.0000 0.85390  0.12450  0.45320  Biso   1.000  C
  C141     1.0000 0.64610  0.62450  0.04680  Biso   1.000  C
  C142     1.0000 0.35390  0.37550  0.54680  Biso   1.000  C
  C143     1.0000 0.64610  0.37550  0.95320  Biso   1.000  C
  C144     1.0000 0.35390  0.62450  0.45320  Biso   1.000  C
  H113     1.0000 0.25810  0.11530  0.03390  Biso   1.000  H
  H114     1.0000 0.74190  0.88470  0.53390  Biso   1.000  H
  H115     1.0000 0.25810  0.88470  0.96610  Biso   1.000  H
  H116     1.0000 0.74190  0.11530  0.46610  Biso   1.000  H
  H117     1.0000 0.75810  0.61530  0.03390  Biso   1.000  H
  H118     1.0000 0.24190  0.38470  0.53390  Biso   1.000  H
  H119     1.0000 0.75810  0.38470  0.96610  Biso   1.000  H
  H120     1.0000 0.24190  0.61530  0.46610  Biso   1.000  H
  H121     1.0000 0.14650  0.13330  0.09890  Biso   1.000  H
  H122     1.0000 0.85350  0.86670  0.59890  Biso   1.000  H
  H123     1.0000 0.14650  0.86670  0.90110  Biso   1.000  H
  H124     1.0000 0.85350  0.13330  0.40110  Biso   1.000  H
  H125     1.0000 0.64650  0.63330  0.09890  Biso   1.000  H
  H126     1.0000 0.35350  0.36670  0.59890  Biso   1.000  H
  H127     1.0000 0.64650  0.36670  0.90110  Biso   1.000  H
  H128     1.0000 0.35350  0.63330  0.40110  Biso   1.000  H
  N13      1.0000 0.10300  0.16910  0.00180  Biso   1.000  N
  N14      1.0000 0.89700  0.83090  0.50180  Biso   1.000  N
  N15      1.0000 0.10300  0.83090  0.99820  Biso   1.000  N
  N16      1.0000 0.89700  0.16910  0.49820  Biso   1.000  N
  N17      1.0000 0.60300  0.66910  0.00180  Biso   1.000  N
  N18      1.0000 0.39700  0.33090  0.50180  Biso   1.000  N
  N19      1.0000 0.60300  0.33090  0.99820  Biso   1.000  N
  N20      1.0000 0.39700  0.66910  0.49820  Biso   1.000  N
  N21      1.0000 0.76910  0.27379  0.76370  Biso   1.000  N
  N22      1.0000 0.23090  0.72621  0.26370  Biso   1.000  N
  N23      1.0000 0.76910  0.72621  0.23630  Biso   1.000  N
  N24      1.0000 0.23090  0.27379  0.73630  Biso   1.000  N
  N25      1.0000 0.26910  0.77379  0.76370  Biso   1.000  N
  N26      1.0000 0.73090  0.22621  0.26370  Biso   1.000  N
  N27      1.0000 0.26910  0.22621  0.23630  Biso   1.000  N
  N28      1.0000 0.73090  0.77379  0.73630  Biso   1.000  N
  Cl1      1.0000 0.57260  0.00000  0.00000  Biso   1.000  Cl
  Cl2      1.0000 0.42740  0.00000  0.50000  Biso   1.000  Cl
  Cl3      1.0000 0.07260  0.50000  0.00000  Biso   1.000  Cl
  Cl4      1.0000 0.92740  0.50000  0.50000  Biso   1.000  Cl
  O17      1.0000 0.62190  0.02520  0.95230  Biso   1.000  O
  O18      1.0000 0.37810  0.97480  0.45230  Biso   1.000  O
  O19      1.0000 0.62190  0.97480  0.04770  Biso   1.000  O
  O20      1.0000 0.37810  0.02520  0.54770  Biso   1.000  O
  O21      1.0000 0.12190  0.52520  0.95230  Biso   1.000  O
  O22      1.0000 0.87810  0.47480  0.45230  Biso   1.000  O
  O23      1.0000 0.12190  0.47480  0.04770  Biso   1.000  O
  O24      1.0000 0.87810  0.52520  0.54770  Biso   1.000  O
  O25      1.0000 0.42220  0.97260  0.97690  Biso   1.000  O
  O26      1.0000 0.57780  0.02740  0.47690  Biso   1.000  O
  O27      1.0000 0.42220  0.02740  0.02310  Biso   1.000  O
  O28      1.0000 0.57780  0.97260  0.52310  Biso   1.000  O
  O29      1.0000 0.92220  0.47260  0.97690  Biso   1.000  O
  O30      1.0000 0.07780  0.52740  0.47690  Biso   1.000  O
  O31      1.0000 0.92220  0.52740  0.02310  Biso   1.000  O
  O32      1.0000 0.07780  0.47260  0.52310  Biso   1.000  O
