data_image0
_cell_length_a       16.4217
_cell_length_b       19.8241
_cell_length_c       10.233
_cell_angle_alpha    90
_cell_angle_beta     90
_cell_angle_gamma    90

_symmetry_space_group_name_H-M    "P 1"
_symmetry_int_tables_number       1

loop_
  _symmetry_equiv_pos_as_xyz
  'x, y, z'

loop_
  _atom_site_label
  _atom_site_occupancy
  _atom_site_fract_x
  _atom_site_fract_y
  _atom_site_fract_z
  _atom_site_thermal_displace_type
  _atom_site_B_iso_or_equiv
  _atom_site_type_symbol
  Cu1      1.0000 0.22518  0.32421  0.08718  Biso   1.000  Cu
  Cu2      1.0000 0.27482  0.67579  0.08718  Biso   1.000  Cu
  Cu3      1.0000 0.22518  0.17579  0.41282  Biso   1.000  Cu
  Cu4      1.0000 0.27482  0.82421  0.41282  Biso   1.000  Cu
  Cu5      1.0000 0.77482  0.67579  0.91282  Biso   1.000  Cu
  Cu6      1.0000 0.72518  0.32421  0.91282  Biso   1.000  Cu
  Cu7      1.0000 0.77482  0.82421  0.58718  Biso   1.000  Cu
  Cu8      1.0000 0.72518  0.17579  0.58718  Biso   1.000  Cu
  O1       1.0000 0.18301  0.42796  0.94661  Biso   1.000  O
  O2       1.0000 0.31699  0.57204  0.94661  Biso   1.000  O
  O3       1.0000 0.18301  0.07204  0.55339  Biso   1.000  O
  O4       1.0000 0.31699  0.92796  0.55339  Biso   1.000  O
  O5       1.0000 0.81699  0.57204  0.05339  Biso   1.000  O
  O6       1.0000 0.68301  0.42796  0.05339  Biso   1.000  O
  O7       1.0000 0.81699  0.92796  0.44661  Biso   1.000  O
  O8       1.0000 0.68301  0.07204  0.44661  Biso   1.000  O
  O9       1.0000 0.23083  0.32725  0.88925  Biso   1.000  O
  O10      1.0000 0.26917  0.67275  0.88925  Biso   1.000  O
  O11      1.0000 0.23083  0.17275  0.61075  Biso   1.000  O
  O12      1.0000 0.26917  0.82725  0.61075  Biso   1.000  O
  O13      1.0000 0.76917  0.67275  0.11075  Biso   1.000  O
  O14      1.0000 0.73083  0.32725  0.11075  Biso   1.000  O
  O15      1.0000 0.76917  0.82725  0.38925  Biso   1.000  O
  O16      1.0000 0.73083  0.17275  0.38925  Biso   1.000  O
  O17      1.0000 0.27713  0.28518  0.40501  Biso   1.000  O
  O18      1.0000 0.22287  0.71482  0.40501  Biso   1.000  O
  O19      1.0000 0.27713  0.21482  0.09499  Biso   1.000  O
  O20      1.0000 0.22287  0.78518  0.09499  Biso   1.000  O
  O21      1.0000 0.72287  0.71482  0.59499  Biso   1.000  O
  O22      1.0000 0.77713  0.28518  0.59499  Biso   1.000  O
  O23      1.0000 0.72287  0.78518  0.90501  Biso   1.000  O
  O24      1.0000 0.77713  0.21482  0.90501  Biso   1.000  O
  O25      1.0000 0.20307  0.35036  0.26898  Biso   1.000  O
  O26      1.0000 0.29693  0.64964  0.26898  Biso   1.000  O
  O27      1.0000 0.20307  0.14964  0.23102  Biso   1.000  O
  O28      1.0000 0.29693  0.85036  0.23102  Biso   1.000  O
  O29      1.0000 0.79693  0.64964  0.73102  Biso   1.000  O
  O30      1.0000 0.70307  0.35036  0.73102  Biso   1.000  O
  O31      1.0000 0.79693  0.85036  0.76898  Biso   1.000  O
  O32      1.0000 0.70307  0.14964  0.76898  Biso   1.000  O
  O33      1.0000 0.07780  0.55605  0.42200  Biso   1.000  O
  O34      1.0000 0.42220  0.44395  0.42200  Biso   1.000  O
  O35      1.0000 0.07780  0.94395  0.07800  Biso   1.000  O
  O36      1.0000 0.42220  0.05605  0.07800  Biso   1.000  O
  O37      1.0000 0.92220  0.44395  0.57800  Biso   1.000  O
  O38      1.0000 0.57780  0.55605  0.57800  Biso   1.000  O
  O39      1.0000 0.92220  0.05605  0.92200  Biso   1.000  O
  O40      1.0000 0.57780  0.94395  0.92200  Biso   1.000  O
  O41      1.0000 0.06914  0.57637  0.62770  Biso   1.000  O
  O42      1.0000 0.43086  0.42363  0.62770  Biso   1.000  O
  O43      1.0000 0.06914  0.92363  0.87230  Biso   1.000  O
  O44      1.0000 0.43086  0.07637  0.87230  Biso   1.000  O
  O45      1.0000 0.93086  0.42363  0.37230  Biso   1.000  O
  O46      1.0000 0.56914  0.57637  0.37230  Biso   1.000  O
  O47      1.0000 0.93086  0.07637  0.12770  Biso   1.000  O
  O48      1.0000 0.56914  0.92363  0.12770  Biso   1.000  O
  N1       1.0000 0.11061  0.29273  0.07230  Biso   1.000  N
  N2       1.0000 0.38939  0.70727  0.07230  Biso   1.000  N
  N3       1.0000 0.11061  0.20727  0.42770  Biso   1.000  N
  N4       1.0000 0.38939  0.79273  0.42770  Biso   1.000  N
  N5       1.0000 0.88939  0.70727  0.92770  Biso   1.000  N
  N6       1.0000 0.61061  0.29273  0.92770  Biso   1.000  N
  N7       1.0000 0.88939  0.79273  0.57230  Biso   1.000  N
  N8       1.0000 0.61061  0.20727  0.57230  Biso   1.000  N
  N9       1.0000 0.98177  0.27576  0.12160  Biso   1.000  N
  N10      1.0000 0.51823  0.72424  0.12160  Biso   1.000  N
  N11      1.0000 0.98177  0.22424  0.37840  Biso   1.000  N
  N12      1.0000 0.51823  0.77576  0.37840  Biso   1.000  N
  N13      1.0000 0.01823  0.72424  0.87840  Biso   1.000  N
  N14      1.0000 0.48177  0.27576  0.87840  Biso   1.000  N
  N15      1.0000 0.01823  0.77576  0.62160  Biso   1.000  N
  N16      1.0000 0.48177  0.22424  0.62160  Biso   1.000  N
  N17      1.0000 0.33385  0.36639  0.10113  Biso   1.000  N
  N18      1.0000 0.16615  0.63361  0.10113  Biso   1.000  N
  N19      1.0000 0.33385  0.13361  0.39887  Biso   1.000  N
  N20      1.0000 0.16615  0.86639  0.39887  Biso   1.000  N
  N21      1.0000 0.66615  0.63361  0.89887  Biso   1.000  N
  N22      1.0000 0.83385  0.36639  0.89887  Biso   1.000  N
  N23      1.0000 0.66615  0.86639  0.60113  Biso   1.000  N
  N24      1.0000 0.83385  0.13361  0.60113  Biso   1.000  N
  N25      1.0000 0.43218  0.44205  0.09360  Biso   1.000  N
  N26      1.0000 0.06782  0.55795  0.09360  Biso   1.000  N
  N27      1.0000 0.43218  0.05795  0.40640  Biso   1.000  N
  N28      1.0000 0.06782  0.94205  0.40640  Biso   1.000  N
  N29      1.0000 0.56782  0.55795  0.90640  Biso   1.000  N
  N30      1.0000 0.93218  0.44205  0.90640  Biso   1.000  N
  N31      1.0000 0.56782  0.94205  0.59360  Biso   1.000  N
  N32      1.0000 0.93218  0.05795  0.59360  Biso   1.000  N
  N33      1.0000 0.09280  0.54259  0.53520  Biso   1.000  N
  N34      1.0000 0.40720  0.45741  0.53520  Biso   1.000  N
  N35      1.0000 0.09280  0.95741  0.96480  Biso   1.000  N
  N36      1.0000 0.40720  0.04259  0.96480  Biso   1.000  N
  N37      1.0000 0.90720  0.45741  0.46480  Biso   1.000  N
  N38      1.0000 0.59280  0.54259  0.46480  Biso   1.000  N
  N39      1.0000 0.90720  0.04259  0.03520  Biso   1.000  N
  N40      1.0000 0.59280  0.95741  0.03520  Biso   1.000  N
  C1       1.0000 0.20432  0.38603  0.86280  Biso   1.000  C
  C2       1.0000 0.29568  0.61397  0.86280  Biso   1.000  C
  C3       1.0000 0.20432  0.11397  0.63720  Biso   1.000  C
  C4       1.0000 0.29568  0.88603  0.63720  Biso   1.000  C
  C5       1.0000 0.79568  0.61397  0.13720  Biso   1.000  C
  C6       1.0000 0.70432  0.38603  0.13720  Biso   1.000  C
  C7       1.0000 0.79568  0.88603  0.36280  Biso   1.000  C
  C8       1.0000 0.70432  0.11397  0.36280  Biso   1.000  C
  C9       1.0000 0.23322  0.33445  0.37900  Biso   1.000  C
  C10      1.0000 0.26678  0.66555  0.37900  Biso   1.000  C
  C11      1.0000 0.23322  0.16555  0.12100  Biso   1.000  C
  C12      1.0000 0.26678  0.83445  0.12100  Biso   1.000  C
  C13      1.0000 0.76678  0.66555  0.62100  Biso   1.000  C
  C14      1.0000 0.73322  0.33445  0.62100  Biso   1.000  C
  C15      1.0000 0.76678  0.83445  0.87900  Biso   1.000  C
  C16      1.0000 0.73322  0.16555  0.87900  Biso   1.000  C
  C17      1.0000 0.19593  0.40525  0.72060  Biso   1.000  C
  C18      1.0000 0.30407  0.59475  0.72060  Biso   1.000  C
  C19      1.0000 0.19593  0.09475  0.77940  Biso   1.000  C
  C20      1.0000 0.30407  0.90525  0.77940  Biso   1.000  C
  C21      1.0000 0.80407  0.59475  0.27940  Biso   1.000  C
  C22      1.0000 0.69593  0.40525  0.27940  Biso   1.000  C
  C23      1.0000 0.80407  0.90525  0.22060  Biso   1.000  C
  C24      1.0000 0.69593  0.09475  0.22060  Biso   1.000  C
  C25      1.0000 0.22308  0.36423  0.61920  Biso   1.000  C
  C26      1.0000 0.27692  0.63577  0.61920  Biso   1.000  C
  C27      1.0000 0.22308  0.13577  0.88080  Biso   1.000  C
  C28      1.0000 0.27692  0.86423  0.88080  Biso   1.000  C
  C29      1.0000 0.77692  0.63577  0.38080  Biso   1.000  C
  C30      1.0000 0.72308  0.36423  0.38080  Biso   1.000  C
  C31      1.0000 0.77692  0.86423  0.11920  Biso   1.000  C
  C32      1.0000 0.72308  0.13577  0.11920  Biso   1.000  C
  H1       1.0000 0.25150  0.32370  0.63870  Biso   1.000  H
  H2       1.0000 0.24850  0.67630  0.63870  Biso   1.000  H
  H3       1.0000 0.25150  0.17630  0.86130  Biso   1.000  H
  H4       1.0000 0.24850  0.82370  0.86130  Biso   1.000  H
  H5       1.0000 0.74850  0.67630  0.36130  Biso   1.000  H
  H6       1.0000 0.75150  0.32370  0.36130  Biso   1.000  H
  H7       1.0000 0.74850  0.82370  0.13870  Biso   1.000  H
  H8       1.0000 0.75150  0.17630  0.13870  Biso   1.000  H
  C33      1.0000 0.20901  0.38199  0.48910  Biso   1.000  C
  C34      1.0000 0.29099  0.61801  0.48910  Biso   1.000  C
  C35      1.0000 0.20901  0.11801  0.01090  Biso   1.000  C
  C36      1.0000 0.29099  0.88199  0.01090  Biso   1.000  C
  C37      1.0000 0.79099  0.61801  0.51090  Biso   1.000  C
  C38      1.0000 0.70901  0.38199  0.51090  Biso   1.000  C
  C39      1.0000 0.79099  0.88199  0.98910  Biso   1.000  C
  C40      1.0000 0.70901  0.11801  0.98910  Biso   1.000  C
  C41      1.0000 0.16669  0.44122  0.45940  Biso   1.000  C
  C42      1.0000 0.33331  0.55878  0.45940  Biso   1.000  C
  C43      1.0000 0.16669  0.05878  0.04060  Biso   1.000  C
  C44      1.0000 0.33331  0.94122  0.04060  Biso   1.000  C
  C45      1.0000 0.83331  0.55878  0.54060  Biso   1.000  C
  C46      1.0000 0.66669  0.44122  0.54060  Biso   1.000  C
  C47      1.0000 0.83331  0.94122  0.95940  Biso   1.000  C
  C48      1.0000 0.66669  0.05878  0.95940  Biso   1.000  C
  H9       1.0000 0.15610  0.45370  0.37150  Biso   1.000  H
  H10      1.0000 0.34390  0.54630  0.37150  Biso   1.000  H
  H11      1.0000 0.15610  0.04630  0.12850  Biso   1.000  H
  H12      1.0000 0.34390  0.95370  0.12850  Biso   1.000  H
  H13      1.0000 0.84390  0.54630  0.62850  Biso   1.000  H
  H14      1.0000 0.65610  0.45370  0.62850  Biso   1.000  H
  H15      1.0000 0.84390  0.95370  0.87150  Biso   1.000  H
  H16      1.0000 0.65610  0.04630  0.87150  Biso   1.000  H
  C49      1.0000 0.14058  0.48114  0.56270  Biso   1.000  C
  C50      1.0000 0.35942  0.51886  0.56270  Biso   1.000  C
  C51      1.0000 0.14058  0.01886  0.93730  Biso   1.000  C
  C52      1.0000 0.35942  0.98114  0.93730  Biso   1.000  C
  C53      1.0000 0.85942  0.51886  0.43730  Biso   1.000  C
  C54      1.0000 0.64058  0.48114  0.43730  Biso   1.000  C
  C55      1.0000 0.85942  0.98114  0.06270  Biso   1.000  C
  C56      1.0000 0.64058  0.01886  0.06270  Biso   1.000  C
  C57      1.0000 0.15522  0.46520  0.69180  Biso   1.000  C
  C58      1.0000 0.34478  0.53480  0.69180  Biso   1.000  C
  C59      1.0000 0.15522  0.03480  0.80820  Biso   1.000  C
  C60      1.0000 0.34478  0.96520  0.80820  Biso   1.000  C
  C61      1.0000 0.84478  0.53480  0.30820  Biso   1.000  C
  C62      1.0000 0.65522  0.46520  0.30820  Biso   1.000  C
  C63      1.0000 0.84478  0.96520  0.19180  Biso   1.000  C
  C64      1.0000 0.65522  0.03480  0.19180  Biso   1.000  C
  H17      1.0000 0.13790  0.49450  0.75990  Biso   1.000  H
  H18      1.0000 0.36210  0.50550  0.75990  Biso   1.000  H
  H19      1.0000 0.13790  0.00550  0.74010  Biso   1.000  H
  H20      1.0000 0.36210  0.99450  0.74010  Biso   1.000  H
  H21      1.0000 0.86210  0.50550  0.24010  Biso   1.000  H
  H22      1.0000 0.63790  0.49450  0.24010  Biso   1.000  H
  H23      1.0000 0.86210  0.99450  0.25990  Biso   1.000  H
  H24      1.0000 0.63790  0.00550  0.25990  Biso   1.000  H
  C65      1.0000 0.07805  0.24629  0.98570  Biso   1.000  C
  C66      1.0000 0.42195  0.75371  0.98570  Biso   1.000  C
  C67      1.0000 0.07805  0.25371  0.51430  Biso   1.000  C
  C68      1.0000 0.42195  0.74629  0.51430  Biso   1.000  C
  C69      1.0000 0.92195  0.75371  0.01430  Biso   1.000  C
  C70      1.0000 0.57805  0.24629  0.01430  Biso   1.000  C
  C71      1.0000 0.92195  0.74629  0.48570  Biso   1.000  C
  C72      1.0000 0.57805  0.25371  0.48570  Biso   1.000  C
  H25      1.0000 0.10650  0.22580  0.91530  Biso   1.000  H
  H26      1.0000 0.39350  0.77420  0.91530  Biso   1.000  H
  H27      1.0000 0.10650  0.27420  0.58470  Biso   1.000  H
  H28      1.0000 0.39350  0.72580  0.58470  Biso   1.000  H
  H29      1.0000 0.89350  0.77420  0.08470  Biso   1.000  H
  H30      1.0000 0.60650  0.22580  0.08470  Biso   1.000  H
  H31      1.0000 0.89350  0.72580  0.41530  Biso   1.000  H
  H32      1.0000 0.60650  0.27420  0.41530  Biso   1.000  H
  C73      1.0000 0.99872  0.23459  0.01750  Biso   1.000  C
  C74      1.0000 0.50128  0.76541  0.01750  Biso   1.000  C
  C75      1.0000 0.99872  0.26541  0.48250  Biso   1.000  C
  C76      1.0000 0.50128  0.73459  0.48250  Biso   1.000  C
  C77      1.0000 0.00128  0.76541  0.98250  Biso   1.000  C
  C78      1.0000 0.49872  0.23459  0.98250  Biso   1.000  C
  C79      1.0000 0.00128  0.73459  0.51750  Biso   1.000  C
  C80      1.0000 0.49872  0.26541  0.51750  Biso   1.000  C
  H33      1.0000 0.96250  0.20410  0.97590  Biso   1.000  H
  H34      1.0000 0.53750  0.79590  0.97590  Biso   1.000  H
  H35      1.0000 0.96250  0.29590  0.52410  Biso   1.000  H
  H36      1.0000 0.53750  0.70410  0.52410  Biso   1.000  H
  H37      1.0000 0.03750  0.79590  0.02410  Biso   1.000  H
  H38      1.0000 0.46250  0.20410  0.02410  Biso   1.000  H
  H39      1.0000 0.03750  0.70410  0.47590  Biso   1.000  H
  H40      1.0000 0.46250  0.29590  0.47590  Biso   1.000  H
  C81      1.0000 0.05071  0.30934  0.15260  Biso   1.000  C
  C82      1.0000 0.44929  0.69066  0.15260  Biso   1.000  C
  C83      1.0000 0.05071  0.19066  0.34740  Biso   1.000  C
  C84      1.0000 0.44929  0.80934  0.34740  Biso   1.000  C
  C85      1.0000 0.94929  0.69066  0.84740  Biso   1.000  C
  C86      1.0000 0.55071  0.30934  0.84740  Biso   1.000  C
  C87      1.0000 0.94929  0.80934  0.65260  Biso   1.000  C
  C88      1.0000 0.55071  0.19066  0.65260  Biso   1.000  C
  H41      1.0000 0.05550  0.34060  0.22240  Biso   1.000  H
  H42      1.0000 0.44450  0.65940  0.22240  Biso   1.000  H
  H43      1.0000 0.05550  0.15940  0.27760  Biso   1.000  H
  H44      1.0000 0.44450  0.84060  0.27760  Biso   1.000  H
  H45      1.0000 0.94450  0.65940  0.77760  Biso   1.000  H
  H46      1.0000 0.55550  0.34060  0.77760  Biso   1.000  H
  H47      1.0000 0.94450  0.84060  0.72240  Biso   1.000  H
  H48      1.0000 0.55550  0.15940  0.72240  Biso   1.000  H
  C89      1.0000 0.90653  0.27767  0.19830  Biso   1.000  C
  C90      1.0000 0.59347  0.72233  0.19830  Biso   1.000  C
  C91      1.0000 0.90653  0.22233  0.30170  Biso   1.000  C
  C92      1.0000 0.59347  0.77767  0.30170  Biso   1.000  C
  C93      1.0000 0.09347  0.72233  0.80170  Biso   1.000  C
  C94      1.0000 0.40653  0.27767  0.80170  Biso   1.000  C
  C95      1.0000 0.09347  0.77767  0.69830  Biso   1.000  C
  C96      1.0000 0.40653  0.22233  0.69830  Biso   1.000  C
  H49      1.0000 0.85920  0.27160  0.13950  Biso   1.000  H
  H50      1.0000 0.64080  0.72840  0.13950  Biso   1.000  H
  H51      1.0000 0.85920  0.22840  0.36050  Biso   1.000  H
  H52      1.0000 0.64080  0.77160  0.36050  Biso   1.000  H
  H53      1.0000 0.14080  0.72840  0.86050  Biso   1.000  H
  H54      1.0000 0.35920  0.27160  0.86050  Biso   1.000  H
  H55      1.0000 0.14080  0.77160  0.63950  Biso   1.000  H
  H56      1.0000 0.35920  0.22840  0.63950  Biso   1.000  H
  H57      1.0000 0.90130  0.32220  0.24120  Biso   1.000  H
  H58      1.0000 0.59870  0.67780  0.24120  Biso   1.000  H
  H59      1.0000 0.90130  0.17780  0.25880  Biso   1.000  H
  H60      1.0000 0.59870  0.82220  0.25880  Biso   1.000  H
  H61      1.0000 0.09870  0.67780  0.75880  Biso   1.000  H
  H62      1.0000 0.40130  0.32220  0.75880  Biso   1.000  H
  H63      1.0000 0.09870  0.82220  0.74120  Biso   1.000  H
  H64      1.0000 0.40130  0.17780  0.74120  Biso   1.000  H
  C97      1.0000 0.40228  0.33966  0.15750  Biso   1.000  C
  C98      1.0000 0.09772  0.66034  0.15750  Biso   1.000  C
  C99      1.0000 0.40228  0.16034  0.34250  Biso   1.000  C
  C100     1.0000 0.09772  0.83966  0.34250  Biso   1.000  C
  C101     1.0000 0.59772  0.66034  0.84250  Biso   1.000  C
  C102     1.0000 0.90228  0.33966  0.84250  Biso   1.000  C
  C103     1.0000 0.59772  0.83966  0.65750  Biso   1.000  C
  C104     1.0000 0.90228  0.16034  0.65750  Biso   1.000  C
  H65      1.0000 0.40600  0.29590  0.19470  Biso   1.000  H
  H66      1.0000 0.09400  0.70410  0.19470  Biso   1.000  H
  H67      1.0000 0.40600  0.20410  0.30530  Biso   1.000  H
  H68      1.0000 0.09400  0.79590  0.30530  Biso   1.000  H
  H69      1.0000 0.59400  0.70410  0.80530  Biso   1.000  H
  H70      1.0000 0.90600  0.29590  0.80530  Biso   1.000  H
  H71      1.0000 0.59400  0.79590  0.69470  Biso   1.000  H
  H72      1.0000 0.90600  0.20410  0.69470  Biso   1.000  H
  C105     1.0000 0.46394  0.38522  0.15200  Biso   1.000  C
  C106     1.0000 0.03606  0.61478  0.15200  Biso   1.000  C
  C107     1.0000 0.46394  0.11478  0.34800  Biso   1.000  C
  C108     1.0000 0.03606  0.88522  0.34800  Biso   1.000  C
  C109     1.0000 0.53606  0.61478  0.84800  Biso   1.000  C
  C110     1.0000 0.96394  0.38522  0.84800  Biso   1.000  C
  C111     1.0000 0.53606  0.88522  0.65200  Biso   1.000  C
  C112     1.0000 0.96394  0.11478  0.65200  Biso   1.000  C
  H73      1.0000 0.51810  0.37910  0.18250  Biso   1.000  H
  H74      1.0000 0.98190  0.62090  0.18250  Biso   1.000  H
  H75      1.0000 0.51810  0.12090  0.31750  Biso   1.000  H
  H76      1.0000 0.98190  0.87910  0.31750  Biso   1.000  H
  H77      1.0000 0.48190  0.62090  0.81750  Biso   1.000  H
  H78      1.0000 0.01810  0.37910  0.81750  Biso   1.000  H
  H79      1.0000 0.48190  0.87910  0.68250  Biso   1.000  H
  H80      1.0000 0.01810  0.12090  0.68250  Biso   1.000  H
  C113     1.0000 0.35364  0.42844  0.06440  Biso   1.000  C
  C114     1.0000 0.14636  0.57156  0.06440  Biso   1.000  C
  C115     1.0000 0.35364  0.07156  0.43560  Biso   1.000  C
  C116     1.0000 0.14636  0.92844  0.43560  Biso   1.000  C
  C117     1.0000 0.64636  0.57156  0.93560  Biso   1.000  C
  C118     1.0000 0.85364  0.42844  0.93560  Biso   1.000  C
  C119     1.0000 0.64636  0.92844  0.56440  Biso   1.000  C
  C120     1.0000 0.85364  0.07156  0.56440  Biso   1.000  C
  H81      1.0000 0.31750  0.45920  0.02320  Biso   1.000  H
  H82      1.0000 0.18250  0.54080  0.02320  Biso   1.000  H
  H83      1.0000 0.31750  0.04080  0.47680  Biso   1.000  H
  H84      1.0000 0.18250  0.95920  0.47680  Biso   1.000  H
  H85      1.0000 0.68250  0.54080  0.97680  Biso   1.000  H
  H86      1.0000 0.81750  0.45920  0.97680  Biso   1.000  H
  H87      1.0000 0.68250  0.95920  0.52320  Biso   1.000  H
  H88      1.0000 0.81750  0.04080  0.52320  Biso   1.000  H
  C121     1.0000 0.47518  0.50422  0.06230  Biso   1.000  C
  C122     1.0000 0.02482  0.49578  0.06230  Biso   1.000  C
  C123     1.0000 0.47518  0.99578  0.43770  Biso   1.000  C
  C124     1.0000 0.02482  0.00422  0.43770  Biso   1.000  C
  C125     1.0000 0.52482  0.49578  0.93770  Biso   1.000  C
  C126     1.0000 0.97518  0.50422  0.93770  Biso   1.000  C
  C127     1.0000 0.52482  0.00422  0.56230  Biso   1.000  C
  C128     1.0000 0.97518  0.99578  0.56230  Biso   1.000  C
  H89      1.0000 0.51180  0.51640  0.13550  Biso   1.000  H
  H90      1.0000 0.98820  0.48360  0.13550  Biso   1.000  H
  H91      1.0000 0.51180  0.98360  0.36450  Biso   1.000  H
  H92      1.0000 0.98820  0.01640  0.36450  Biso   1.000  H
  H93      1.0000 0.48820  0.48360  0.86450  Biso   1.000  H
  H94      1.0000 0.01180  0.51640  0.86450  Biso   1.000  H
  H95      1.0000 0.48820  0.01640  0.63550  Biso   1.000  H
  H96      1.0000 0.01180  0.98360  0.63550  Biso   1.000  H
  H97      1.0000 0.43540  0.54130  0.05080  Biso   1.000  H
  H98      1.0000 0.06460  0.45870  0.05080  Biso   1.000  H
  H99      1.0000 0.43540  0.95870  0.44920  Biso   1.000  H
  H100     1.0000 0.06460  0.04130  0.44920  Biso   1.000  H
  H101     1.0000 0.56460  0.45870  0.94920  Biso   1.000  H
  H102     1.0000 0.93540  0.54130  0.94920  Biso   1.000  H
  H103     1.0000 0.56460  0.04130  0.55080  Biso   1.000  H
  H104     1.0000 0.93540  0.95870  0.55080  Biso   1.000  H
