data_image0
_cell_length_a       18.473
_cell_length_b       10.805
_cell_length_c       20.863
_cell_angle_alpha    90
_cell_angle_beta     98.94
_cell_angle_gamma    90

_symmetry_space_group_name_H-M    "P 1"
_symmetry_int_tables_number       1

loop_
  _symmetry_equiv_pos_as_xyz
  'x, y, z'

loop_
  _atom_site_label
  _atom_site_occupancy
  _atom_site_fract_x
  _atom_site_fract_y
  _atom_site_fract_z
  _atom_site_thermal_displace_type
  _atom_site_B_iso_or_equiv
  _atom_site_type_symbol
  O1       1.0000 0.34890  0.73800  0.15040  Biso   1.000  O
  O2       1.0000 0.34890  0.26200  0.65040  Biso   1.000  O
  O3       1.0000 0.84890  0.23800  0.15040  Biso   1.000  O
  O4       1.0000 0.84890  0.76200  0.65040  Biso   1.000  O
  O5       1.0000 0.32480  0.02790  0.07200  Biso   1.000  O
  O6       1.0000 0.32480  0.97210  0.57200  Biso   1.000  O
  O7       1.0000 0.82480  0.52790  0.07200  Biso   1.000  O
  O8       1.0000 0.82480  0.47210  0.57200  Biso   1.000  O
  O9       1.0000 0.28000  0.63750  0.25190  Biso   1.000  O
  O10      1.0000 0.28000  0.36250  0.75190  Biso   1.000  O
  O11      1.0000 0.78000  0.13750  0.25190  Biso   1.000  O
  O12      1.0000 0.78000  0.86250  0.75190  Biso   1.000  O
  O13      1.0000 0.39520  0.13300  0.97510  Biso   1.000  O
  O14      1.0000 0.39520  0.86700  0.47510  Biso   1.000  O
  O15      1.0000 0.89520  0.63300  0.97510  Biso   1.000  O
  O16      1.0000 0.89520  0.36700  0.47510  Biso   1.000  O
  O17      1.0000 0.40380  0.31570  0.07120  Biso   1.000  O
  O18      1.0000 0.40380  0.68430  0.57120  Biso   1.000  O
  O19      1.0000 0.90380  0.81570  0.07120  Biso   1.000  O
  O20      1.0000 0.90380  0.18430  0.57120  Biso   1.000  O
  O21      1.0000 0.00660  0.55460  0.07980  Biso   1.000  O
  O22      1.0000 0.00660  0.44540  0.57980  Biso   1.000  O
  O23      1.0000 0.50660  0.05460  0.07980  Biso   1.000  O
  O24      1.0000 0.50660  0.94540  0.57980  Biso   1.000  O
  O25      1.0000 0.26760  0.45110  0.14950  Biso   1.000  O
  O26      1.0000 0.26760  0.54890  0.64950  Biso   1.000  O
  O27      1.0000 0.76760  0.95110  0.14950  Biso   1.000  O
  O28      1.0000 0.76760  0.04890  0.64950  Biso   1.000  O
  O29      1.0000 0.16450  0.71300  0.15400  Biso   1.000  O
  O30      1.0000 0.16450  0.28700  0.65400  Biso   1.000  O
  O31      1.0000 0.66450  0.21300  0.15400  Biso   1.000  O
  O32      1.0000 0.66450  0.78700  0.65400  Biso   1.000  O
  O33      1.0000 0.33700  0.35650  0.29210  Biso   1.000  O
  O34      1.0000 0.33700  0.64350  0.79210  Biso   1.000  O
  O35      1.0000 0.83700  0.85650  0.29210  Biso   1.000  O
  O36      1.0000 0.83700  0.14350  0.79210  Biso   1.000  O
  O37      1.0000 0.43070  0.16700  0.29030  Biso   1.000  O
  O38      1.0000 0.43070  0.83300  0.79030  Biso   1.000  O
  O39      1.0000 0.93070  0.66700  0.29030  Biso   1.000  O
  O40      1.0000 0.93070  0.33300  0.79030  Biso   1.000  O
  O41      1.0000 0.19460  0.62180  0.93380  Biso   1.000  O
  O42      1.0000 0.19460  0.37820  0.43380  Biso   1.000  O
  O43      1.0000 0.69460  0.12180  0.93380  Biso   1.000  O
  O44      1.0000 0.69460  0.87820  0.43380  Biso   1.000  O
  O45      1.0000 0.57680  0.51570  0.86020  Biso   1.000  O
  O46      1.0000 0.57680  0.48430  0.36020  Biso   1.000  O
  O47      1.0000 0.07680  0.01570  0.86020  Biso   1.000  O
  O48      1.0000 0.07680  0.98430  0.36020  Biso   1.000  O
  O49      1.0000 0.59940  0.45600  0.84350  Biso   1.000  O
  O50      1.0000 0.59940  0.54400  0.34350  Biso   1.000  O
  O51      1.0000 0.09940  0.95600  0.84350  Biso   1.000  O
  O52      1.0000 0.09940  0.04400  0.34350  Biso   1.000  O
  O53      1.0000 0.55450  0.06150  0.93820  Biso   1.000  O
  O54      1.0000 0.55450  0.93850  0.43820  Biso   1.000  O
  O55      1.0000 0.05450  0.56150  0.93820  Biso   1.000  O
  O56      1.0000 0.05450  0.43850  0.43820  Biso   1.000  O
  N1       1.0000 0.44500  0.57860  0.26610  Biso   1.000  N
  N2       1.0000 0.44500  0.42140  0.76610  Biso   1.000  N
  N3       1.0000 0.94500  0.07860  0.26610  Biso   1.000  N
  N4       1.0000 0.94500  0.92140  0.76610  Biso   1.000  N
  N5       1.0000 0.17630  0.42020  0.27330  Biso   1.000  N
  N6       1.0000 0.17630  0.57980  0.77330  Biso   1.000  N
  N7       1.0000 0.67630  0.92020  0.27330  Biso   1.000  N
  N8       1.0000 0.67630  0.07980  0.77330  Biso   1.000  N
  N9       1.0000 0.22910  0.90480  0.26740  Biso   1.000  N
  N10      1.0000 0.22910  0.09520  0.76740  Biso   1.000  N
  N11      1.0000 0.72910  0.40480  0.26740  Biso   1.000  N
  N12      1.0000 0.72910  0.59520  0.76740  Biso   1.000  N
  N13      1.0000 0.29090  0.95310  0.16750  Biso   1.000  N
  N14      1.0000 0.29090  0.04690  0.66750  Biso   1.000  N
  N15      1.0000 0.79090  0.45310  0.16750  Biso   1.000  N
  N16      1.0000 0.79090  0.54690  0.66750  Biso   1.000  N
  N17      1.0000 0.38430  0.81390  0.05620  Biso   1.000  N
  N18      1.0000 0.38430  0.18610  0.55620  Biso   1.000  N
  N19      1.0000 0.88430  0.31390  0.05620  Biso   1.000  N
  N20      1.0000 0.88430  0.68610  0.55620  Biso   1.000  N
  N21      1.0000 0.44400  0.86410  0.95290  Biso   1.000  N
  N22      1.0000 0.44400  0.13590  0.45290  Biso   1.000  N
  N23      1.0000 0.94400  0.36410  0.95290  Biso   1.000  N
  N24      1.0000 0.94400  0.63590  0.45290  Biso   1.000  N
  N25      1.0000 0.08970  0.51170  0.17050  Biso   1.000  N
  N26      1.0000 0.08970  0.48830  0.67050  Biso   1.000  N
  N27      1.0000 0.58970  0.01170  0.17050  Biso   1.000  N
  N28      1.0000 0.58970  0.98830  0.67050  Biso   1.000  N
  N29      1.0000 0.41020  0.43550  0.16410  Biso   1.000  N
  N30      1.0000 0.41020  0.56450  0.66410  Biso   1.000  N
  N31      1.0000 0.91020  0.93550  0.16410  Biso   1.000  N
  N32      1.0000 0.91020  0.06450  0.66410  Biso   1.000  N
  N33      1.0000 0.26140  0.33290  0.05750  Biso   1.000  N
  N34      1.0000 0.26140  0.66710  0.55750  Biso   1.000  N
  N35      1.0000 0.76140  0.83290  0.05750  Biso   1.000  N
  N36      1.0000 0.76140  0.16710  0.55750  Biso   1.000  N
  N37      1.0000 0.22730  0.18910  0.95800  Biso   1.000  N
  N38      1.0000 0.22730  0.81090  0.45800  Biso   1.000  N
  N39      1.0000 0.72730  0.68910  0.95800  Biso   1.000  N
  N40      1.0000 0.72730  0.31090  0.45800  Biso   1.000  N
  N41      1.0000 0.00400  0.83670  0.95730  Biso   1.000  N
  N42      1.0000 0.00400  0.16330  0.45730  Biso   1.000  N
  N43      1.0000 0.50400  0.33670  0.95730  Biso   1.000  N
  N44      1.0000 0.50400  0.66330  0.45730  Biso   1.000  N
  N45      1.0000 0.08090  0.75320  0.06130  Biso   1.000  N
  N46      1.0000 0.08090  0.24680  0.56130  Biso   1.000  N
  N47      1.0000 0.58090  0.25320  0.06130  Biso   1.000  N
  N48      1.0000 0.58090  0.74680  0.56130  Biso   1.000  N
  C1       1.0000 0.19900  0.00860  0.22820  Biso   1.000  C
  C2       1.0000 0.19900  0.99140  0.72820  Biso   1.000  C
  C3       1.0000 0.69900  0.50860  0.22820  Biso   1.000  C
  C4       1.0000 0.69900  0.49140  0.72820  Biso   1.000  C
  C5       1.0000 0.25360  0.06150  0.18720  Biso   1.000  C
  C6       1.0000 0.25360  0.93850  0.68720  Biso   1.000  C
  C7       1.0000 0.75360  0.56150  0.18720  Biso   1.000  C
  C8       1.0000 0.75360  0.43850  0.68720  Biso   1.000  C
  C9       1.0000 0.32150  0.94670  0.11390  Biso   1.000  C
  C10      1.0000 0.32150  0.05330  0.61390  Biso   1.000  C
  C11      1.0000 0.82150  0.44670  0.11390  Biso   1.000  C
  C12      1.0000 0.82150  0.55330  0.61390  Biso   1.000  C
  C13      1.0000 0.35360  0.82050  0.10610  Biso   1.000  C
  C14      1.0000 0.35360  0.17950  0.60610  Biso   1.000  C
  C15      1.0000 0.85360  0.32050  0.10610  Biso   1.000  C
  C16      1.0000 0.85360  0.67950  0.60610  Biso   1.000  C
  C17      1.0000 0.42090  0.70790  0.03230  Biso   1.000  C
  C18      1.0000 0.42090  0.29210  0.53230  Biso   1.000  C
  C19      1.0000 0.92090  0.20790  0.03230  Biso   1.000  C
  C20      1.0000 0.92090  0.79210  0.53230  Biso   1.000  C
  C21      1.0000 0.43600  0.73220  0.96750  Biso   1.000  C
  C22      1.0000 0.43600  0.26780  0.46750  Biso   1.000  C
  C23      1.0000 0.93600  0.23220  0.96750  Biso   1.000  C
  C24      1.0000 0.93600  0.76780  0.46750  Biso   1.000  C
  C25      1.0000 0.10880  0.69120  0.11340  Biso   1.000  C
  C26      1.0000 0.10880  0.30880  0.61340  Biso   1.000  C
  C27      1.0000 0.60880  0.19120  0.11340  Biso   1.000  C
  C28      1.0000 0.60880  0.80880  0.61340  Biso   1.000  C
  C29      1.0000 0.06380  0.57570  0.12070  Biso   1.000  C
  C30      1.0000 0.06380  0.42430  0.62070  Biso   1.000  C
  C31      1.0000 0.56380  0.07570  0.12070  Biso   1.000  C
  C32      1.0000 0.56380  0.92430  0.62070  Biso   1.000  C
  C33      1.0000 0.06230  0.39620  0.19560  Biso   1.000  C
  C34      1.0000 0.06230  0.60380  0.69560  Biso   1.000  C
  C35      1.0000 0.56230  0.89620  0.19560  Biso   1.000  C
  C36      1.0000 0.56230  0.10380  0.69560  Biso   1.000  C
  C37      1.0000 0.10940  0.36680  0.26010  Biso   1.000  C
  C38      1.0000 0.10940  0.63320  0.76010  Biso   1.000  C
  C39      1.0000 0.60940  0.86680  0.26010  Biso   1.000  C
  C40      1.0000 0.60940  0.13320  0.76010  Biso   1.000  C
  C41      1.0000 0.29300  0.38960  0.10790  Biso   1.000  C
  C42      1.0000 0.29300  0.61040  0.60790  Biso   1.000  C
  C43      1.0000 0.79300  0.88960  0.10790  Biso   1.000  C
  C44      1.0000 0.79300  0.11040  0.60790  Biso   1.000  C
  C45      1.0000 0.37590  0.37560  0.11280  Biso   1.000  C
  C46      1.0000 0.37590  0.62440  0.61280  Biso   1.000  C
  C47      1.0000 0.87590  0.87560  0.11280  Biso   1.000  C
  C48      1.0000 0.87590  0.12440  0.61280  Biso   1.000  C
  C49      1.0000 0.48850  0.44470  0.18360  Biso   1.000  C
  C50      1.0000 0.48850  0.55530  0.68360  Biso   1.000  C
  C51      1.0000 0.98850  0.94470  0.18360  Biso   1.000  C
  C52      1.0000 0.98850  0.05530  0.68360  Biso   1.000  C
  C53      1.0000 0.49940  0.56560  0.22210  Biso   1.000  C
  C54      1.0000 0.49940  0.43440  0.72210  Biso   1.000  C
  C55      1.0000 0.99940  0.06560  0.22210  Biso   1.000  C
  C56      1.0000 0.99940  0.93440  0.72210  Biso   1.000  C
  C57      1.0000 0.17090  0.20640  0.99990  Biso   1.000  C
  C58      1.0000 0.17090  0.79360  0.49990  Biso   1.000  C
  C59      1.0000 0.67090  0.70640  0.99990  Biso   1.000  C
  C60      1.0000 0.67090  0.29360  0.49990  Biso   1.000  C
  C61      1.0000 0.18250  0.32490  0.03550  Biso   1.000  C
  C62      1.0000 0.18250  0.67510  0.53550  Biso   1.000  C
  C63      1.0000 0.68250  0.82490  0.03550  Biso   1.000  C
  C64      1.0000 0.68250  0.17510  0.53550  Biso   1.000  C
  C65      1.0000 0.04870  0.93030  0.00080  Biso   1.000  C
  C66      1.0000 0.04870  0.06970  0.50080  Biso   1.000  C
  C67      1.0000 0.54870  0.43030  0.00080  Biso   1.000  C
  C68      1.0000 0.54870  0.56970  0.50080  Biso   1.000  C
  C69      1.0000 0.11430  0.86680  0.04020  Biso   1.000  C
  C70      1.0000 0.11430  0.13320  0.54020  Biso   1.000  C
  C71      1.0000 0.61430  0.36680  0.04020  Biso   1.000  C
  C72      1.0000 0.61430  0.63320  0.54020  Biso   1.000  C
  H1       1.0000 0.15200  0.84760  0.01500  Biso   1.000  H
  H2       1.0000 0.15200  0.15240  0.51500  Biso   1.000  H
  H3       1.0000 0.65200  0.34760  0.01500  Biso   1.000  H
  H4       1.0000 0.65200  0.65240  0.51500  Biso   1.000  H
  H5       1.0000 0.13420  0.91930  0.07570  Biso   1.000  H
  H6       1.0000 0.13420  0.08070  0.57570  Biso   1.000  H
  H7       1.0000 0.63420  0.41930  0.07570  Biso   1.000  H
  H8       1.0000 0.63420  0.58070  0.57570  Biso   1.000  H
  H9       1.0000 0.28840  0.63720  0.29310  Biso   1.000  H
  H10      1.0000 0.28840  0.36280  0.79310  Biso   1.000  H
  H11      1.0000 0.78840  0.13720  0.29310  Biso   1.000  H
  H12      1.0000 0.78840  0.86280  0.79310  Biso   1.000  H
  H13      1.0000 0.38910  0.13500  0.93380  Biso   1.000  H
  H14      1.0000 0.38910  0.86500  0.43380  Biso   1.000  H
  H15      1.0000 0.88910  0.63500  0.93380  Biso   1.000  H
  H16      1.0000 0.88910  0.36500  0.43380  Biso   1.000  H
  H17      1.0000 0.45600  0.53090  0.30140  Biso   1.000  H
  H18      1.0000 0.45600  0.46910  0.80140  Biso   1.000  H
  H19      1.0000 0.95600  0.03090  0.30140  Biso   1.000  H
  H20      1.0000 0.95600  0.96910  0.80140  Biso   1.000  H
  H21      1.0000 0.44290  0.65820  0.27830  Biso   1.000  H
  H22      1.0000 0.44290  0.34180  0.77830  Biso   1.000  H
  H23      1.0000 0.94290  0.15820  0.27830  Biso   1.000  H
  H24      1.0000 0.94290  0.84180  0.77830  Biso   1.000  H
  H25      1.0000 0.18470  0.44030  0.31590  Biso   1.000  H
  H26      1.0000 0.18470  0.55970  0.81590  Biso   1.000  H
  H27      1.0000 0.68470  0.94030  0.31590  Biso   1.000  H
  H28      1.0000 0.68470  0.05970  0.81590  Biso   1.000  H
  H29      1.0000 0.21050  0.36780  0.26480  Biso   1.000  H
  H30      1.0000 0.21050  0.63220  0.76480  Biso   1.000  H
  H31      1.0000 0.71050  0.86780  0.26480  Biso   1.000  H
  H32      1.0000 0.71050  0.13220  0.76480  Biso   1.000  H
  H33      1.0000 0.25610  0.93250  0.30430  Biso   1.000  H
  H34      1.0000 0.25610  0.06750  0.80430  Biso   1.000  H
  H35      1.0000 0.75610  0.43250  0.30430  Biso   1.000  H
  H36      1.0000 0.75610  0.56750  0.80430  Biso   1.000  H
  H37      1.0000 0.19190  0.85780  0.27970  Biso   1.000  H
  H38      1.0000 0.19190  0.14220  0.77970  Biso   1.000  H
  H39      1.0000 0.69190  0.35780  0.27970  Biso   1.000  H
  H40      1.0000 0.69190  0.64220  0.77970  Biso   1.000  H
  H41      1.0000 0.49000  0.88670  0.96310  Biso   1.000  H
  H42      1.0000 0.49000  0.11330  0.46310  Biso   1.000  H
  H43      1.0000 0.99000  0.38670  0.96310  Biso   1.000  H
  H44      1.0000 0.99000  0.61330  0.46310  Biso   1.000  H
  H45      1.0000 0.42860  0.87820  0.91010  Biso   1.000  H
  H46      1.0000 0.42860  0.12180  0.41010  Biso   1.000  H
  H47      1.0000 0.92860  0.37820  0.91010  Biso   1.000  H
  H48      1.0000 0.92860  0.62180  0.41010  Biso   1.000  H
  H49      1.0000 0.23030  0.10730  0.94650  Biso   1.000  H
  H50      1.0000 0.23030  0.89270  0.44650  Biso   1.000  H
  H51      1.0000 0.73030  0.60730  0.94650  Biso   1.000  H
  H52      1.0000 0.73030  0.39270  0.44650  Biso   1.000  H
  H53      1.0000 0.21640  0.23230  0.92090  Biso   1.000  H
  H54      1.0000 0.21640  0.76770  0.42090  Biso   1.000  H
  H55      1.0000 0.71640  0.73230  0.92090  Biso   1.000  H
  H56      1.0000 0.71640  0.26770  0.42090  Biso   1.000  H
  H57      1.0000 0.96030  0.87200  0.94260  Biso   1.000  H
  H58      1.0000 0.96030  0.12800  0.44260  Biso   1.000  H
  H59      1.0000 0.46030  0.37200  0.94260  Biso   1.000  H
  H60      1.0000 0.46030  0.62800  0.44260  Biso   1.000  H
  H61      1.0000 0.02550  0.81480  0.92330  Biso   1.000  H
  H62      1.0000 0.02550  0.18520  0.42330  Biso   1.000  H
  H63      1.0000 0.52550  0.31480  0.92330  Biso   1.000  H
  H64      1.0000 0.52550  0.68520  0.42330  Biso   1.000  H
  H65      1.0000 0.18250  0.07310  0.25530  Biso   1.000  H
  H66      1.0000 0.18250  0.92690  0.75530  Biso   1.000  H
  H67      1.0000 0.68250  0.57310  0.25530  Biso   1.000  H
  H68      1.0000 0.68250  0.42690  0.75530  Biso   1.000  H
  H69      1.0000 0.15510  0.98230  0.19910  Biso   1.000  H
  H70      1.0000 0.15510  0.01770  0.69910  Biso   1.000  H
  H71      1.0000 0.65510  0.48230  0.19910  Biso   1.000  H
  H72      1.0000 0.65510  0.51770  0.69910  Biso   1.000  H
  H73      1.0000 0.22750  0.10400  0.14990  Biso   1.000  H
  H74      1.0000 0.22750  0.89600  0.64990  Biso   1.000  H
  H75      1.0000 0.72750  0.60400  0.14990  Biso   1.000  H
  H76      1.0000 0.72750  0.39600  0.64990  Biso   1.000  H
  H77      1.0000 0.28510  0.11660  0.21290  Biso   1.000  H
  H78      1.0000 0.28510  0.88340  0.71290  Biso   1.000  H
  H79      1.0000 0.78510  0.61660  0.21290  Biso   1.000  H
  H80      1.0000 0.78510  0.38340  0.71290  Biso   1.000  H
  H81      1.0000 0.39010  0.63670  0.03230  Biso   1.000  H
  H82      1.0000 0.39010  0.36330  0.53230  Biso   1.000  H
  H83      1.0000 0.89010  0.13670  0.03230  Biso   1.000  H
  H84      1.0000 0.89010  0.86330  0.53230  Biso   1.000  H
  H85      1.0000 0.46540  0.69430  0.06080  Biso   1.000  H
  H86      1.0000 0.46540  0.30570  0.56080  Biso   1.000  H
  H87      1.0000 0.96540  0.19430  0.06080  Biso   1.000  H
  H88      1.0000 0.96540  0.80570  0.56080  Biso   1.000  H
  H89      1.0000 0.47650  0.69000  0.95990  Biso   1.000  H
  H90      1.0000 0.47650  0.31000  0.45990  Biso   1.000  H
  H91      1.0000 0.97650  0.19000  0.95990  Biso   1.000  H
  H92      1.0000 0.97650  0.81000  0.45990  Biso   1.000  H
  H93      1.0000 0.39300  0.69720  0.93450  Biso   1.000  H
  H94      1.0000 0.39300  0.30280  0.43450  Biso   1.000  H
  H95      1.0000 0.89300  0.19720  0.93450  Biso   1.000  H
  H96      1.0000 0.89300  0.80280  0.43450  Biso   1.000  H
  H97      1.0000 0.06600  0.32830  0.16680  Biso   1.000  H
  H98      1.0000 0.06600  0.67170  0.66680  Biso   1.000  H
  H99      1.0000 0.56600  0.82830  0.16680  Biso   1.000  H
  H100     1.0000 0.56600  0.17170  0.66680  Biso   1.000  H
  H101     1.0000 0.01070  0.40540  0.19950  Biso   1.000  H
  H102     1.0000 0.01070  0.59460  0.69950  Biso   1.000  H
  H103     1.0000 0.51070  0.90540  0.19950  Biso   1.000  H
  H104     1.0000 0.51070  0.09460  0.69950  Biso   1.000  H
  H105     1.0000 0.08260  0.39880  0.29320  Biso   1.000  H
  H106     1.0000 0.08260  0.60120  0.79320  Biso   1.000  H
  H107     1.0000 0.58260  0.89880  0.29320  Biso   1.000  H
  H108     1.0000 0.58260  0.10120  0.79320  Biso   1.000  H
  H109     1.0000 0.11290  0.27950  0.26580  Biso   1.000  H
  H110     1.0000 0.11290  0.72050  0.76580  Biso   1.000  H
  H111     1.0000 0.61290  0.77950  0.26580  Biso   1.000  H
  H112     1.0000 0.61290  0.22050  0.76580  Biso   1.000  H
  H113     1.0000 0.51200  0.44910  0.14620  Biso   1.000  H
  H114     1.0000 0.51200  0.55090  0.64620  Biso   1.000  H
  H115     1.0000 0.01200  0.94910  0.14620  Biso   1.000  H
  H116     1.0000 0.01200  0.05090  0.64620  Biso   1.000  H
  H117     1.0000 0.50610  0.37450  0.20910  Biso   1.000  H
  H118     1.0000 0.50610  0.62550  0.70910  Biso   1.000  H
  H119     1.0000 0.00610  0.87450  0.20910  Biso   1.000  H
  H120     1.0000 0.00610  0.12550  0.70910  Biso   1.000  H
  H121     1.0000 0.54600  0.55930  0.24910  Biso   1.000  H
  H122     1.0000 0.54600  0.44070  0.74910  Biso   1.000  H
  H123     1.0000 0.04600  0.05930  0.24910  Biso   1.000  H
  H124     1.0000 0.04600  0.94070  0.74910  Biso   1.000  H
  H125     1.0000 0.49930  0.63340  0.19350  Biso   1.000  H
  H126     1.0000 0.49930  0.36660  0.69350  Biso   1.000  H
  H127     1.0000 0.99930  0.13340  0.19350  Biso   1.000  H
  H128     1.0000 0.99930  0.86660  0.69350  Biso   1.000  H
  H129     1.0000 0.17080  0.13880  0.02980  Biso   1.000  H
  H130     1.0000 0.17080  0.86120  0.52980  Biso   1.000  H
  H131     1.0000 0.67080  0.63880  0.02980  Biso   1.000  H
  H132     1.0000 0.67080  0.36120  0.52980  Biso   1.000  H
  H133     1.0000 0.12240  0.20760  0.97320  Biso   1.000  H
  H134     1.0000 0.12240  0.79240  0.47320  Biso   1.000  H
  H135     1.0000 0.62240  0.70760  0.97320  Biso   1.000  H
  H136     1.0000 0.62240  0.29240  0.47320  Biso   1.000  H
  H137     1.0000 0.16380  0.39330  0.00890  Biso   1.000  H
  H138     1.0000 0.16380  0.60670  0.50890  Biso   1.000  H
  H139     1.0000 0.66380  0.89330  0.00890  Biso   1.000  H
  H140     1.0000 0.66380  0.10670  0.50890  Biso   1.000  H
  H141     1.0000 0.15760  0.32250  0.07310  Biso   1.000  H
  H142     1.0000 0.15760  0.67750  0.57310  Biso   1.000  H
  H143     1.0000 0.65760  0.82250  0.07310  Biso   1.000  H
  H144     1.0000 0.65760  0.17750  0.57310  Biso   1.000  H
  H145     1.0000 0.01910  0.96990  0.02870  Biso   1.000  H
  H146     1.0000 0.01910  0.03010  0.52870  Biso   1.000  H
  H147     1.0000 0.51910  0.46990  0.02870  Biso   1.000  H
  H148     1.0000 0.51910  0.53010  0.52870  Biso   1.000  H
  H149     1.0000 0.06640  0.99240  0.97460  Biso   1.000  H
  H150     1.0000 0.06640  0.00760  0.47460  Biso   1.000  H
  H151     1.0000 0.56640  0.49240  0.97460  Biso   1.000  H
  H152     1.0000 0.56640  0.50760  0.47460  Biso   1.000  H
  Cu1      1.0000 0.29000  0.80470  0.21640  Biso   1.000  Cu
  Cu2      1.0000 0.29000  0.19530  0.71640  Biso   1.000  Cu
  Cu3      1.0000 0.79000  0.30470  0.21640  Biso   1.000  Cu
  Cu4      1.0000 0.79000  0.69530  0.71640  Biso   1.000  Cu
  Cu5      1.0000 0.38200  0.96310  0.00670  Biso   1.000  Cu
  Cu6      1.0000 0.38200  0.03690  0.50670  Biso   1.000  Cu
  Cu7      1.0000 0.88200  0.46310  0.00670  Biso   1.000  Cu
  Cu8      1.0000 0.88200  0.53690  0.50670  Biso   1.000  Cu
  Cu9      1.0000 0.17870  0.57600  0.21950  Biso   1.000  Cu
  Cu10     1.0000 0.17870  0.42400  0.71950  Biso   1.000  Cu
  Cu11     1.0000 0.67870  0.07600  0.21950  Biso   1.000  Cu
  Cu12     1.0000 0.67870  0.92400  0.71950  Biso   1.000  Cu
  Cu13     1.0000 0.34710  0.52510  0.21390  Biso   1.000  Cu
  Cu14     1.0000 0.34710  0.47490  0.71390  Biso   1.000  Cu
  Cu15     1.0000 0.84710  0.02510  0.21390  Biso   1.000  Cu
  Cu16     1.0000 0.84710  0.97490  0.71390  Biso   1.000  Cu
  Cu17     1.0000 0.32180  0.24320  0.00800  Biso   1.000  Cu
  Cu18     1.0000 0.32180  0.75680  0.50800  Biso   1.000  Cu
  Cu19     1.0000 0.82180  0.74320  0.00800  Biso   1.000  Cu
  Cu20     1.0000 0.82180  0.25680  0.50800  Biso   1.000  Cu
  Cu21     1.0000 0.49320  0.18900  0.01270  Biso   1.000  Cu
  Cu22     1.0000 0.49320  0.81100  0.51270  Biso   1.000  Cu
  Cu23     1.0000 0.99320  0.68900  0.01270  Biso   1.000  Cu
  Cu24     1.0000 0.99320  0.31100  0.51270  Biso   1.000  Cu
  Br1      1.0000 0.60600  0.79870  0.82260  Biso   1.000  Br
  Br2      1.0000 0.60600  0.20130  0.32260  Biso   1.000  Br
  Br3      1.0000 0.10600  0.29870  0.82260  Biso   1.000  Br
  Br4      1.0000 0.10600  0.70130  0.32260  Biso   1.000  Br
  Br5      1.0000 0.55920  0.76160  0.82960  Biso   1.000  Br
  Br6      1.0000 0.55920  0.23840  0.32960  Biso   1.000  Br
  Br7      1.0000 0.05920  0.26160  0.82960  Biso   1.000  Br
  Br8      1.0000 0.05920  0.73840  0.32960  Biso   1.000  Br
  Br9      1.0000 0.41390  0.86960  0.31890  Biso   1.000  Br
  Br10     1.0000 0.41390  0.13040  0.81890  Biso   1.000  Br
  Br11     1.0000 0.91390  0.36960  0.31890  Biso   1.000  Br
  Br12     1.0000 0.91390  0.63040  0.81890  Biso   1.000  Br
  Br13     1.0000 0.32600  0.43380  0.90710  Biso   1.000  Br
  Br14     1.0000 0.32600  0.56620  0.40710  Biso   1.000  Br
  Br15     1.0000 0.82600  0.93380  0.90710  Biso   1.000  Br
  Br16     1.0000 0.82600  0.06620  0.40710  Biso   1.000  Br
  Br17     1.0000 0.25410  0.89240  0.90380  Biso   1.000  Br
  Br18     1.0000 0.25410  0.10760  0.40380  Biso   1.000  Br
  Br19     1.0000 0.75410  0.39240  0.90380  Biso   1.000  Br
  Br20     1.0000 0.75410  0.60760  0.40380  Biso   1.000  Br
  Br21     1.0000 0.21050  0.84620  0.89140  Biso   1.000  Br
  Br22     1.0000 0.21050  0.15380  0.39140  Biso   1.000  Br
  Br23     1.0000 0.71050  0.34620  0.89140  Biso   1.000  Br
  Br24     1.0000 0.71050  0.65380  0.39140  Biso   1.000  Br
