data_image0
_cell_length_a       7.2029
_cell_length_b       10.846
_cell_length_c       12.4992
_cell_angle_alpha    68.617
_cell_angle_beta     74.017
_cell_angle_gamma    89.203

_symmetry_space_group_name_H-M    "P 1"
_symmetry_int_tables_number       1

loop_
  _symmetry_equiv_pos_as_xyz
  'x, y, z'

loop_
  _atom_site_label
  _atom_site_occupancy
  _atom_site_fract_x
  _atom_site_fract_y
  _atom_site_fract_z
  _atom_site_thermal_displace_type
  _atom_site_B_iso_or_equiv
  _atom_site_type_symbol
  Cu1      1.0000 0.50000  0.50000  0.00000  Biso   1.000  Cu
  O1       1.0000 0.48510  0.36240  0.22210  Biso   1.000  O
  O2       1.0000 0.51490  0.63760  0.77790  Biso   1.000  O
  N1       1.0000 0.23530  0.40820  0.04640  Biso   1.000  N
  N2       1.0000 0.76470  0.59180  0.95360  Biso   1.000  N
  C1       1.0000 0.93800  0.33990  0.14940  Biso   1.000  C
  C2       1.0000 0.06200  0.66010  0.85060  Biso   1.000  C
  H1       1.0000 0.82000  0.31870  0.20930  Biso   1.000  H
  H2       1.0000 0.18000  0.68130  0.79070  Biso   1.000  H
  O3       1.0000 0.41430  0.56640  0.13149  Biso   1.000  O
  O4       1.0000 0.58570  0.43360  0.86851  Biso   1.000  O
  N3       1.0000 0.09430  0.39390  0.15310  Biso   1.000  N
  N4       1.0000 0.90570  0.60610  0.84690  Biso   1.000  N
  C3       1.0000 0.16060  0.36110  0.98440  Biso   1.000  C
  C4       1.0000 0.83940  0.63890  0.01560  Biso   1.000  C
  H3       1.0000 0.22590  0.35720  0.91050  Biso   1.000  H
  H4       1.0000 0.77410  0.64280  0.08950  Biso   1.000  H
  C5       1.0000 0.76610  0.14070  0.06090  Biso   1.000  C
  C6       1.0000 0.23390  0.85930  0.93910  Biso   1.000  C
  C7       1.0000 0.62750  0.09970  0.00530  Biso   1.000  C
  C8       1.0000 0.37250  0.90030  0.99470  Biso   1.000  C
  H5       1.0000 0.61340  0.17790  0.93810  Biso   1.000  H
  H6       1.0000 0.38660  0.82210  0.06190  Biso   1.000  H
  O5       1.0000 0.81260  0.06800  0.14780  Biso   1.000  O
  O6       1.0000 0.18740  0.93200  0.85220  Biso   1.000  O
  N5       1.0000 0.83900  0.27000  0.00490  Biso   1.000  N
  N6       1.0000 0.16100  0.73000  0.99510  Biso   1.000  N
  H7       1.0000 0.80340  0.32150  0.94470  Biso   1.000  H
  H8       1.0000 0.19660  0.67850  0.05530  Biso   1.000  H
  C9       1.0000 0.42970  0.05070  0.09670  Biso   1.000  C
  C10      1.0000 0.57030  0.94930  0.90330  Biso   1.000  C
  H9       1.0000 0.37830  0.12170  0.12250  Biso   1.000  H
  H10      1.0000 0.62170  0.87830  0.87750  Biso   1.000  H
  H11      1.0000 0.44240  0.97710  0.16640  Biso   1.000  H
  H12      1.0000 0.55760  0.02290  0.83360  Biso   1.000  H
  N7       1.0000 0.97130  0.31850  0.04520  Biso   1.000  N
  N8       1.0000 0.02870  0.68150  0.95480  Biso   1.000  N
  C11      1.0000 0.71130  0.99460  0.95670  Biso   1.000  C
  C12      1.0000 0.28870  0.00540  0.04330  Biso   1.000  C
  H13      1.0000 0.73520  0.91890  0.02110  Biso   1.000  H
  H14      1.0000 0.26480  0.08110  0.97890  Biso   1.000  H
  H15      1.0000 0.83400  0.03100  0.89540  Biso   1.000  H
  H16      1.0000 0.16600  0.96900  0.10460  Biso   1.000  H
  O7       1.0000 0.15000  0.76920  0.56240  Biso   1.000  O
  O8       1.0000 0.85000  0.23080  0.43760  Biso   1.000  O
  O9       1.0000 0.17690  0.84430  0.36780  Biso   1.000  O
  O10      1.0000 0.82310  0.15570  0.63220  Biso   1.000  O
  O11      1.0000 0.16860  0.27750  0.77460  Biso   1.000  O
  O12      1.0000 0.83140  0.72250  0.22540  Biso   1.000  O
  O13      1.0000 0.28840  0.16080  0.66170  Biso   1.000  O
  O14      1.0000 0.71160  0.83920  0.33830  Biso   1.000  O
  C13      1.0000 0.41820  0.46670  0.22620  Biso   1.000  C
  C14      1.0000 0.58180  0.53330  0.77380  Biso   1.000  C
  C15      1.0000 0.34170  0.48340  0.34530  Biso   1.000  C
  C16      1.0000 0.65830  0.51660  0.65470  Biso   1.000  C
  C17      1.0000 0.29250  0.60540  0.35040  Biso   1.000  C
  C18      1.0000 0.70750  0.39460  0.64960  Biso   1.000  C
  H17      1.0000 0.30260  0.67820  0.27990  Biso   1.000  H
  H18      1.0000 0.69740  0.32180  0.72010  Biso   1.000  H
  C19      1.0000 0.22770  0.61960  0.46140  Biso   1.000  C
  C20      1.0000 0.77230  0.38040  0.53860  Biso   1.000  C
  C21      1.0000 0.18100  0.75140  0.46920  Biso   1.000  C
  C22      1.0000 0.81900  0.24860  0.53080  Biso   1.000  C
  C23      1.0000 0.20960  0.51060  0.56680  Biso   1.000  C
  C24      1.0000 0.79040  0.48940  0.43320  Biso   1.000  C
  H19      1.0000 0.16580  0.51960  0.64060  Biso   1.000  H
  H20      1.0000 0.83420  0.48040  0.35940  Biso   1.000  H
  C25      1.0000 0.25740  0.38740  0.56170  Biso   1.000  C
  C26      1.0000 0.74260  0.61260  0.43830  Biso   1.000  C
  C27      1.0000 0.23330  0.27110  0.67720  Biso   1.000  C
  C28      1.0000 0.76670  0.72890  0.32280  Biso   1.000  C
  C29      1.0000 0.32510  0.37420  0.45130  Biso   1.000  C
  C30      1.0000 0.67490  0.62580  0.54870  Biso   1.000  C
  H21      1.0000 0.35940  0.29240  0.44810  Biso   1.000  H
  H22      1.0000 0.64060  0.70760  0.55190  Biso   1.000  H
  O15      1.0000 0.15870  0.09030  0.35900  Biso   1.000  O
  O16      1.0000 0.84130  0.90970  0.64100  Biso   1.000  O
  H23      1.0000 0.27250  0.10220  0.36320  Biso   1.000  H
  H24      1.0000 0.72750  0.89780  0.63680  Biso   1.000  H
  H25      1.0000 0.10950  0.16420  0.34630  Biso   1.000  H
  H26      1.0000 0.89050  0.83580  0.65370  Biso   1.000  H
