data_image0
_cell_length_a       11.1513
_cell_length_b       11.1513
_cell_length_c       19.3206
_cell_angle_alpha    90
_cell_angle_beta     90
_cell_angle_gamma    90

_symmetry_space_group_name_H-M    "P 1"
_symmetry_int_tables_number       1

loop_
  _symmetry_equiv_pos_as_xyz
  'x, y, z'

loop_
  _atom_site_label
  _atom_site_occupancy
  _atom_site_fract_x
  _atom_site_fract_y
  _atom_site_fract_z
  _atom_site_thermal_displace_type
  _atom_site_B_iso_or_equiv
  _atom_site_type_symbol
  Cu1      1.0000 0.85553  0.35436  0.01241  Biso   1.000  Cu
  Cu2      1.0000 0.14447  0.64564  0.51241  Biso   1.000  Cu
  Cu3      1.0000 0.14564  0.35553  0.26241  Biso   1.000  Cu
  Cu4      1.0000 0.85436  0.64447  0.76241  Biso   1.000  Cu
  Cu5      1.0000 0.64447  0.85436  0.23759  Biso   1.000  Cu
  Cu6      1.0000 0.35553  0.14564  0.73759  Biso   1.000  Cu
  Cu7      1.0000 0.35436  0.85553  0.98759  Biso   1.000  Cu
  Cu8      1.0000 0.64564  0.14447  0.48759  Biso   1.000  Cu
  Si1      1.0000 0.30205  0.30205  0.00000  Biso   1.000  Si
  Si2      1.0000 0.69795  0.69795  0.50000  Biso   1.000  Si
  Si3      1.0000 0.19795  0.80205  0.25000  Biso   1.000  Si
  Si4      1.0000 0.80205  0.19795  0.75000  Biso   1.000  Si
  F1       1.0000 0.17670  0.27460  0.95226  Biso   1.000  F
  F2       1.0000 0.82330  0.72540  0.45226  Biso   1.000  F
  F3       1.0000 0.22540  0.67670  0.20226  Biso   1.000  F
  F4       1.0000 0.77460  0.32330  0.70226  Biso   1.000  F
  F5       1.0000 0.32330  0.77460  0.29774  Biso   1.000  F
  F6       1.0000 0.67670  0.22540  0.79774  Biso   1.000  F
  F7       1.0000 0.27460  0.17670  0.04774  Biso   1.000  F
  F8       1.0000 0.72540  0.82330  0.54774  Biso   1.000  F
  F9       1.0000 0.38320  0.21910  0.94413  Biso   1.000  F
  F10      1.0000 0.61680  0.78090  0.44413  Biso   1.000  F
  F11      1.0000 0.28090  0.88320  0.19413  Biso   1.000  F
  F12      1.0000 0.71910  0.11680  0.69413  Biso   1.000  F
  F13      1.0000 0.11680  0.71910  0.30587  Biso   1.000  F
  F14      1.0000 0.88320  0.28090  0.80587  Biso   1.000  F
  F15      1.0000 0.21910  0.38320  0.05587  Biso   1.000  F
  F16      1.0000 0.78090  0.61680  0.55587  Biso   1.000  F
  F17      1.0000 0.32670  0.42420  0.95225  Biso   1.000  F
  F18      1.0000 0.67330  0.57580  0.45225  Biso   1.000  F
  F19      1.0000 0.07580  0.82670  0.20225  Biso   1.000  F
  F20      1.0000 0.92420  0.17330  0.70225  Biso   1.000  F
  F21      1.0000 0.17330  0.92420  0.29775  Biso   1.000  F
  F22      1.0000 0.82670  0.07580  0.79775  Biso   1.000  F
  F23      1.0000 0.42420  0.32670  0.04775  Biso   1.000  F
  F24      1.0000 0.57580  0.67330  0.54775  Biso   1.000  F
  Si5      1.0000 0.80458  0.80458  0.00000  Biso   1.000  Si
  Si6      1.0000 0.19542  0.19542  0.50000  Biso   1.000  Si
  Si7      1.0000 0.69542  0.30458  0.25000  Biso   1.000  Si
  Si8      1.0000 0.30458  0.69542  0.75000  Biso   1.000  Si
  F25      1.0000 0.70690  0.90230  0.03526  Biso   1.000  F
  F26      1.0000 0.29310  0.09770  0.53526  Biso   1.000  F
  F27      1.0000 0.59770  0.20690  0.28526  Biso   1.000  F
  F28      1.0000 0.40230  0.79310  0.78526  Biso   1.000  F
  F29      1.0000 0.79310  0.40230  0.21474  Biso   1.000  F
  F30      1.0000 0.20690  0.59770  0.71474  Biso   1.000  F
  F31      1.0000 0.90230  0.70690  0.96474  Biso   1.000  F
  F32      1.0000 0.09770  0.29310  0.46474  Biso   1.000  F
  F33      1.0000 0.79600  0.71470  0.07060  Biso   1.000  F
  F34      1.0000 0.20400  0.28530  0.57060  Biso   1.000  F
  F35      1.0000 0.78530  0.29600  0.32060  Biso   1.000  F
  F36      1.0000 0.21470  0.70400  0.82060  Biso   1.000  F
  F37      1.0000 0.70400  0.21470  0.17940  Biso   1.000  F
  F38      1.0000 0.29600  0.78530  0.67940  Biso   1.000  F
  F39      1.0000 0.71470  0.79600  0.92940  Biso   1.000  F
  F40      1.0000 0.28530  0.20400  0.42940  Biso   1.000  F
  F41      1.0000 0.73090  0.69250  0.03670  Biso   1.000  F
  F42      1.0000 0.26910  0.30750  0.53670  Biso   1.000  F
  F43      1.0000 0.80750  0.23090  0.28670  Biso   1.000  F
  F44      1.0000 0.19250  0.76910  0.78670  Biso   1.000  F
  F45      1.0000 0.76910  0.19250  0.21330  Biso   1.000  F
  F46      1.0000 0.23090  0.80750  0.71330  Biso   1.000  F
  F47      1.0000 0.69250  0.73090  0.96330  Biso   1.000  F
  F48      1.0000 0.30750  0.26910  0.46330  Biso   1.000  F
  F49      1.0000 0.88680  0.82080  0.07190  Biso   1.000  F
  F50      1.0000 0.11320  0.17920  0.57190  Biso   1.000  F
  F51      1.0000 0.67920  0.38680  0.32190  Biso   1.000  F
  F52      1.0000 0.32080  0.61320  0.82190  Biso   1.000  F
  F53      1.0000 0.61320  0.32080  0.17810  Biso   1.000  F
  F54      1.0000 0.38680  0.67920  0.67810  Biso   1.000  F
  F55      1.0000 0.82080  0.88680  0.92810  Biso   1.000  F
  F56      1.0000 0.17920  0.11320  0.42810  Biso   1.000  F
  F57      1.0000 0.92430  0.87050  0.03450  Biso   1.000  F
  F58      1.0000 0.07570  0.12950  0.53450  Biso   1.000  F
  F59      1.0000 0.62950  0.42430  0.28450  Biso   1.000  F
  F60      1.0000 0.37050  0.57570  0.78450  Biso   1.000  F
  F61      1.0000 0.57570  0.37050  0.21550  Biso   1.000  F
  F62      1.0000 0.42430  0.62950  0.71550  Biso   1.000  F
  F63      1.0000 0.87050  0.92430  0.96550  Biso   1.000  F
  F64      1.0000 0.12950  0.07570  0.46550  Biso   1.000  F
  N1       1.0000 0.94560  0.26170  0.08482  Biso   1.000  N
  N2       1.0000 0.05440  0.73830  0.58482  Biso   1.000  N
  N3       1.0000 0.23830  0.44560  0.33482  Biso   1.000  N
  N4       1.0000 0.76170  0.55440  0.83482  Biso   1.000  N
  N5       1.0000 0.55440  0.76170  0.16518  Biso   1.000  N
  N6       1.0000 0.44560  0.23830  0.66518  Biso   1.000  N
  N7       1.0000 0.26170  0.94560  0.91518  Biso   1.000  N
  N8       1.0000 0.73830  0.05440  0.41518  Biso   1.000  N
  N9       1.0000 0.06220  0.26170  0.18849  Biso   1.000  N
  N10      1.0000 0.93780  0.73830  0.68849  Biso   1.000  N
  N11      1.0000 0.23830  0.56220  0.43849  Biso   1.000  N
  N12      1.0000 0.76170  0.43780  0.93849  Biso   1.000  N
  N13      1.0000 0.43780  0.76170  0.06151  Biso   1.000  N
  N14      1.0000 0.56220  0.23830  0.56151  Biso   1.000  N
  N15      1.0000 0.26170  0.06220  0.81151  Biso   1.000  N
  N16      1.0000 0.73830  0.93780  0.31151  Biso   1.000  N
  O1       1.0000 0.70440  0.23280  0.03249  Biso   1.000  O
  O2       1.0000 0.29560  0.76720  0.53249  Biso   1.000  O
  O3       1.0000 0.26720  0.20440  0.28249  Biso   1.000  O
  O4       1.0000 0.73280  0.79560  0.78249  Biso   1.000  O
  O5       1.0000 0.79560  0.73280  0.21751  Biso   1.000  O
  O6       1.0000 0.20440  0.26720  0.71751  Biso   1.000  O
  O7       1.0000 0.23280  0.70440  0.96751  Biso   1.000  O
  O8       1.0000 0.76720  0.29560  0.46751  Biso   1.000  O
  H1       1.0000 0.71090  0.20380  0.07060  Biso   1.000  H
  H2       1.0000 0.28910  0.79620  0.57060  Biso   1.000  H
  H3       1.0000 0.29620  0.21090  0.32060  Biso   1.000  H
  H4       1.0000 0.70380  0.78910  0.82060  Biso   1.000  H
  H5       1.0000 0.78910  0.70380  0.17940  Biso   1.000  H
  H6       1.0000 0.21090  0.29620  0.67940  Biso   1.000  H
  H7       1.0000 0.20380  0.71090  0.92940  Biso   1.000  H
  H8       1.0000 0.79620  0.28910  0.42940  Biso   1.000  H
  H9       1.0000 0.68790  0.18200  0.00390  Biso   1.000  H
  H10      1.0000 0.31210  0.81800  0.50390  Biso   1.000  H
  H11      1.0000 0.31800  0.18790  0.25390  Biso   1.000  H
  H12      1.0000 0.68200  0.81210  0.75390  Biso   1.000  H
  H13      1.0000 0.81210  0.68200  0.24610  Biso   1.000  H
  H14      1.0000 0.18790  0.31800  0.74610  Biso   1.000  H
  H15      1.0000 0.18200  0.68790  0.99610  Biso   1.000  H
  H16      1.0000 0.81800  0.31210  0.49610  Biso   1.000  H
  O9       1.0000 0.01090  0.47580  0.99414  Biso   1.000  O
  O10      1.0000 0.98910  0.52420  0.49414  Biso   1.000  O
  O11      1.0000 0.02420  0.51090  0.24414  Biso   1.000  O
  O12      1.0000 0.97580  0.48910  0.74414  Biso   1.000  O
  O13      1.0000 0.48910  0.97580  0.25586  Biso   1.000  O
  O14      1.0000 0.51090  0.02420  0.75586  Biso   1.000  O
  O15      1.0000 0.47580  0.01090  0.00586  Biso   1.000  O
  O16      1.0000 0.52420  0.98910  0.50586  Biso   1.000  O
  H17      1.0000 0.05950  0.43320  0.00240  Biso   1.000  H
  H18      1.0000 0.94050  0.56680  0.50240  Biso   1.000  H
  H19      1.0000 0.06680  0.55950  0.25240  Biso   1.000  H
  H20      1.0000 0.93320  0.44050  0.75240  Biso   1.000  H
  H21      1.0000 0.44050  0.93320  0.24760  Biso   1.000  H
  H22      1.0000 0.55950  0.06680  0.74760  Biso   1.000  H
  H23      1.0000 0.43320  0.05950  0.99760  Biso   1.000  H
  H24      1.0000 0.56680  0.94050  0.49760  Biso   1.000  H
  H25      1.0000 0.01840  0.55010  0.01500  Biso   1.000  H
  H26      1.0000 0.98160  0.44990  0.51500  Biso   1.000  H
  H27      1.0000 0.94990  0.51840  0.26500  Biso   1.000  H
  H28      1.0000 0.05010  0.48160  0.76500  Biso   1.000  H
  H29      1.0000 0.48160  0.05010  0.23500  Biso   1.000  H
  H30      1.0000 0.51840  0.94990  0.73500  Biso   1.000  H
  H31      1.0000 0.55010  0.01840  0.98500  Biso   1.000  H
  H32      1.0000 0.44990  0.98160  0.48500  Biso   1.000  H
  O17      1.0000 0.78640  0.47290  0.08243  Biso   1.000  O
  O18      1.0000 0.21360  0.52710  0.58243  Biso   1.000  O
  O19      1.0000 0.02710  0.28640  0.33243  Biso   1.000  O
  O20      1.0000 0.97290  0.71360  0.83243  Biso   1.000  O
  O21      1.0000 0.71360  0.97290  0.16757  Biso   1.000  O
  O22      1.0000 0.28640  0.02710  0.66757  Biso   1.000  O
  O23      1.0000 0.47290  0.78640  0.91757  Biso   1.000  O
  O24      1.0000 0.52710  0.21360  0.41757  Biso   1.000  O
  H33      1.0000 0.78300  0.56060  0.07160  Biso   1.000  H
  H34      1.0000 0.21700  0.43940  0.57160  Biso   1.000  H
  H35      1.0000 0.93940  0.28300  0.32160  Biso   1.000  H
  H36      1.0000 0.06060  0.71700  0.82160  Biso   1.000  H
  H37      1.0000 0.71700  0.06060  0.17840  Biso   1.000  H
  H38      1.0000 0.28300  0.93940  0.67840  Biso   1.000  H
  H39      1.0000 0.56060  0.78300  0.92840  Biso   1.000  H
  H40      1.0000 0.43940  0.21700  0.42840  Biso   1.000  H
  H41      1.0000 0.77730  0.46080  0.12010  Biso   1.000  H
  H42      1.0000 0.22270  0.53920  0.62010  Biso   1.000  H
  H43      1.0000 0.03920  0.27730  0.37010  Biso   1.000  H
  H44      1.0000 0.96080  0.72270  0.87010  Biso   1.000  H
  H45      1.0000 0.72270  0.96080  0.12990  Biso   1.000  H
  H46      1.0000 0.27730  0.03920  0.62990  Biso   1.000  H
  H47      1.0000 0.46080  0.77730  0.87990  Biso   1.000  H
  H48      1.0000 0.53920  0.22270  0.37990  Biso   1.000  H
  O25      1.0000 0.93540  0.23970  0.94027  Biso   1.000  O
  O26      1.0000 0.06460  0.76030  0.44027  Biso   1.000  O
  O27      1.0000 0.26030  0.43540  0.19027  Biso   1.000  O
  O28      1.0000 0.73970  0.56460  0.69027  Biso   1.000  O
  O29      1.0000 0.56460  0.73970  0.30973  Biso   1.000  O
  O30      1.0000 0.43540  0.26030  0.80973  Biso   1.000  O
  O31      1.0000 0.23970  0.93540  0.05973  Biso   1.000  O
  O32      1.0000 0.76030  0.06460  0.55973  Biso   1.000  O
  H49      1.0000 0.92190  0.22930  0.89980  Biso   1.000  H
  H50      1.0000 0.07810  0.77070  0.39980  Biso   1.000  H
  H51      1.0000 0.27070  0.42190  0.14980  Biso   1.000  H
  H52      1.0000 0.72930  0.57810  0.64980  Biso   1.000  H
  H53      1.0000 0.57810  0.72930  0.35020  Biso   1.000  H
  H54      1.0000 0.42190  0.27070  0.85020  Biso   1.000  H
  H55      1.0000 0.22930  0.92190  0.10020  Biso   1.000  H
  H56      1.0000 0.77070  0.07810  0.60020  Biso   1.000  H
  H57      1.0000 0.02650  0.24390  0.94720  Biso   1.000  H
  H58      1.0000 0.97350  0.75610  0.44720  Biso   1.000  H
  H59      1.0000 0.25610  0.52650  0.19720  Biso   1.000  H
  H60      1.0000 0.74390  0.47350  0.69720  Biso   1.000  H
  H61      1.0000 0.47350  0.74390  0.30280  Biso   1.000  H
  H62      1.0000 0.52650  0.25610  0.80280  Biso   1.000  H
  H63      1.0000 0.24390  0.02650  0.05280  Biso   1.000  H
  H64      1.0000 0.75610  0.97350  0.55280  Biso   1.000  H
  O33      1.0000 0.67410  0.07950  0.92404  Biso   1.000  O
  O34      1.0000 0.32590  0.92050  0.42404  Biso   1.000  O
  O35      1.0000 0.42050  0.17410  0.17404  Biso   1.000  O
  O36      1.0000 0.57950  0.82590  0.67404  Biso   1.000  O
  O37      1.0000 0.82590  0.57950  0.32596  Biso   1.000  O
  O38      1.0000 0.17410  0.42050  0.82596  Biso   1.000  O
  O39      1.0000 0.07950  0.67410  0.07596  Biso   1.000  O
  O40      1.0000 0.92050  0.32590  0.57596  Biso   1.000  O
  H65      1.0000 0.71050  0.00680  0.92260  Biso   1.000  H
  H66      1.0000 0.28950  0.99320  0.42260  Biso   1.000  H
  H67      1.0000 0.49320  0.21050  0.17260  Biso   1.000  H
  H68      1.0000 0.50680  0.78950  0.67260  Biso   1.000  H
  H69      1.0000 0.78950  0.50680  0.32740  Biso   1.000  H
  H70      1.0000 0.21050  0.49320  0.82740  Biso   1.000  H
  H71      1.0000 0.00680  0.71050  0.07740  Biso   1.000  H
  H72      1.0000 0.99320  0.28950  0.57740  Biso   1.000  H
  H73      1.0000 0.67280  0.09920  0.88570  Biso   1.000  H
  H74      1.0000 0.32720  0.90080  0.38570  Biso   1.000  H
  H75      1.0000 0.40080  0.17280  0.13570  Biso   1.000  H
  H76      1.0000 0.59920  0.82720  0.63570  Biso   1.000  H
  H77      1.0000 0.82720  0.59920  0.36430  Biso   1.000  H
  H78      1.0000 0.17280  0.40080  0.86430  Biso   1.000  H
  H79      1.0000 0.09920  0.67280  0.11430  Biso   1.000  H
  H80      1.0000 0.90080  0.32720  0.61430  Biso   1.000  H
  C1       1.0000 0.94670  0.14160  0.08550  Biso   1.000  C
  C2       1.0000 0.05330  0.85840  0.58550  Biso   1.000  C
  C3       1.0000 0.35840  0.44670  0.33550  Biso   1.000  C
  C4       1.0000 0.64160  0.55330  0.83550  Biso   1.000  C
  C5       1.0000 0.55330  0.64160  0.16450  Biso   1.000  C
  C6       1.0000 0.44670  0.35840  0.66450  Biso   1.000  C
  C7       1.0000 0.14160  0.94670  0.91450  Biso   1.000  C
  C8       1.0000 0.85840  0.05330  0.41450  Biso   1.000  C
  H81      1.0000 0.90770  0.10000  0.04900  Biso   1.000  H
  H82      1.0000 0.09230  0.90000  0.54900  Biso   1.000  H
  H83      1.0000 0.40000  0.40770  0.29900  Biso   1.000  H
  H84      1.0000 0.60000  0.59230  0.79900  Biso   1.000  H
  H85      1.0000 0.59230  0.60000  0.20100  Biso   1.000  H
  H86      1.0000 0.40770  0.40000  0.70100  Biso   1.000  H
  H87      1.0000 0.10000  0.90770  0.95100  Biso   1.000  H
  H88      1.0000 0.90000  0.09230  0.45100  Biso   1.000  H
  C9       1.0000 0.00160  0.07610  0.13650  Biso   1.000  C
  C10      1.0000 0.99840  0.92390  0.63650  Biso   1.000  C
  C11      1.0000 0.42390  0.50160  0.38650  Biso   1.000  C
  C12      1.0000 0.57610  0.49840  0.88650  Biso   1.000  C
  C13      1.0000 0.49840  0.57610  0.11350  Biso   1.000  C
  C14      1.0000 0.50160  0.42390  0.61350  Biso   1.000  C
  C15      1.0000 0.07610  0.00160  0.86350  Biso   1.000  C
  C16      1.0000 0.92390  0.99840  0.36350  Biso   1.000  C
  H89      1.0000 0.00110  0.99090  0.13630  Biso   1.000  H
  H90      1.0000 0.99890  0.00910  0.63630  Biso   1.000  H
  H91      1.0000 0.50910  0.50110  0.38630  Biso   1.000  H
  H92      1.0000 0.49090  0.49890  0.88630  Biso   1.000  H
  H93      1.0000 0.49890  0.49090  0.11370  Biso   1.000  H
  H94      1.0000 0.50110  0.50910  0.61370  Biso   1.000  H
  H95      1.0000 0.99090  0.00110  0.86370  Biso   1.000  H
  H96      1.0000 0.00910  0.99890  0.36370  Biso   1.000  H
  C17      1.0000 0.05730  0.14050  0.18800  Biso   1.000  C
  C18      1.0000 0.94270  0.85950  0.68800  Biso   1.000  C
  C19      1.0000 0.35950  0.55730  0.43800  Biso   1.000  C
  C20      1.0000 0.64050  0.44270  0.93800  Biso   1.000  C
  C21      1.0000 0.44270  0.64050  0.06200  Biso   1.000  C
  C22      1.0000 0.55730  0.35950  0.56200  Biso   1.000  C
  C23      1.0000 0.14050  0.05730  0.81200  Biso   1.000  C
  C24      1.0000 0.85950  0.94270  0.31200  Biso   1.000  C
  H97      1.0000 0.09410  0.09800  0.22500  Biso   1.000  H
  H98      1.0000 0.90590  0.90200  0.72500  Biso   1.000  H
  H99      1.0000 0.40200  0.59410  0.47500  Biso   1.000  H
  H100     1.0000 0.59800  0.40590  0.97500  Biso   1.000  H
  H101     1.0000 0.40590  0.59800  0.02500  Biso   1.000  H
  H102     1.0000 0.59410  0.40200  0.52500  Biso   1.000  H
  H103     1.0000 0.09800  0.09410  0.77500  Biso   1.000  H
  H104     1.0000 0.90200  0.90590  0.27500  Biso   1.000  H
  C25      1.0000 0.00410  0.31730  0.13690  Biso   1.000  C
  C26      1.0000 0.99590  0.68270  0.63690  Biso   1.000  C
  C27      1.0000 0.18270  0.50410  0.38690  Biso   1.000  C
  C28      1.0000 0.81730  0.49590  0.88690  Biso   1.000  C
  C29      1.0000 0.49590  0.81730  0.11310  Biso   1.000  C
  C30      1.0000 0.50410  0.18270  0.61310  Biso   1.000  C
  C31      1.0000 0.31730  0.00410  0.86310  Biso   1.000  C
  C32      1.0000 0.68270  0.99590  0.36310  Biso   1.000  C
  H105     1.0000 0.00410  0.40250  0.13700  Biso   1.000  H
  H106     1.0000 0.99590  0.59750  0.63700  Biso   1.000  H
  H107     1.0000 0.09750  0.50410  0.38700  Biso   1.000  H
  H108     1.0000 0.90250  0.49590  0.88700  Biso   1.000  H
  H109     1.0000 0.49590  0.90250  0.11300  Biso   1.000  H
  H110     1.0000 0.50410  0.09750  0.61300  Biso   1.000  H
  H111     1.0000 0.40250  0.00410  0.86300  Biso   1.000  H
  H112     1.0000 0.59750  0.99590  0.36300  Biso   1.000  H
