data_image0
_cell_length_a       8.3524
_cell_length_b       8.5731
_cell_length_c       23.3337
_cell_angle_alpha    90
_cell_angle_beta     90
_cell_angle_gamma    90

_symmetry_space_group_name_H-M    "P 1"
_symmetry_int_tables_number       1

loop_
  _symmetry_equiv_pos_as_xyz
  'x, y, z'

loop_
  _atom_site_label
  _atom_site_occupancy
  _atom_site_fract_x
  _atom_site_fract_y
  _atom_site_fract_z
  _atom_site_thermal_displace_type
  _atom_site_B_iso_or_equiv
  _atom_site_type_symbol
  Cu1      1.0000 0.68027  0.88459  0.12043  Biso   1.000  Cu
  Cu2      1.0000 0.81973  0.11541  0.62043  Biso   1.000  Cu
  Cu3      1.0000 0.18027  0.61541  0.87957  Biso   1.000  Cu
  Cu4      1.0000 0.31973  0.38459  0.37957  Biso   1.000  Cu
  O1       1.0000 0.60050  0.80380  0.19190  Biso   1.000  O
  O2       1.0000 0.89950  0.19620  0.69190  Biso   1.000  O
  O3       1.0000 0.10050  0.69620  0.80810  Biso   1.000  O
  O4       1.0000 0.39950  0.30380  0.30810  Biso   1.000  O
  O5       1.0000 0.40570  0.84850  0.09650  Biso   1.000  O
  O6       1.0000 0.09430  0.15150  0.59650  Biso   1.000  O
  O7       1.0000 0.90570  0.65150  0.90350  Biso   1.000  O
  O8       1.0000 0.59430  0.34850  0.40350  Biso   1.000  O
  O9       1.0000 0.18850  0.71010  0.09150  Biso   1.000  O
  O10      1.0000 0.31150  0.28990  0.59150  Biso   1.000  O
  O11      1.0000 0.68850  0.78990  0.90850  Biso   1.000  O
  O12      1.0000 0.81150  0.21010  0.40850  Biso   1.000  O
  O13      1.0000 0.95660  0.46710  0.24670  Biso   1.000  O
  O14      1.0000 0.54340  0.53290  0.74670  Biso   1.000  O
  O15      1.0000 0.45660  0.03290  0.75330  Biso   1.000  O
  O16      1.0000 0.04340  0.96710  0.25330  Biso   1.000  O
  O17      1.0000 0.06800  0.44530  0.32990  Biso   1.000  O
  O18      1.0000 0.43200  0.55470  0.82990  Biso   1.000  O
  O19      1.0000 0.56800  0.05470  0.67010  Biso   1.000  O
  O20      1.0000 0.93200  0.94530  0.17010  Biso   1.000  O
  O21      1.0000 0.34770  0.59670  0.34999  Biso   1.000  O
  O22      1.0000 0.15230  0.40330  0.84999  Biso   1.000  O
  O23      1.0000 0.84770  0.90330  0.65001  Biso   1.000  O
  O24      1.0000 0.65230  0.09670  0.15001  Biso   1.000  O
  O25      1.0000 0.58650  0.85850  0.33300  Biso   1.000  O
  O26      1.0000 0.91350  0.14150  0.83300  Biso   1.000  O
  O27      1.0000 0.08650  0.64150  0.66700  Biso   1.000  O
  O28      1.0000 0.41350  0.35850  0.16700  Biso   1.000  O
  O29      1.0000 0.70870  0.65390  0.30460  Biso   1.000  O
  O30      1.0000 0.79130  0.34610  0.80460  Biso   1.000  O
  O31      1.0000 0.20870  0.84610  0.69540  Biso   1.000  O
  O32      1.0000 0.29130  0.15390  0.19540  Biso   1.000  O
  N1       1.0000 0.78340  0.14260  0.97840  Biso   1.000  N
  N2       1.0000 0.71660  0.85740  0.47840  Biso   1.000  N
  N3       1.0000 0.28340  0.35740  0.02160  Biso   1.000  N
  N4       1.0000 0.21660  0.64260  0.52160  Biso   1.000  N
  N5       1.0000 0.92990  0.07880  0.98320  Biso   1.000  N
  N6       1.0000 0.57010  0.92120  0.48320  Biso   1.000  N
  N7       1.0000 0.42990  0.42120  0.01680  Biso   1.000  N
  N8       1.0000 0.07010  0.57880  0.51680  Biso   1.000  N
  N9       1.0000 0.76100  0.98130  0.04810  Biso   1.000  N
  N10      1.0000 0.73900  0.01870  0.54810  Biso   1.000  N
  N11      1.0000 0.26100  0.51870  0.95190  Biso   1.000  N
  N12      1.0000 0.23900  0.48130  0.45190  Biso   1.000  N
  N13      1.0000 0.74380  0.25560  0.93750  Biso   1.000  N
  N14      1.0000 0.75620  0.74440  0.43750  Biso   1.000  N
  N15      1.0000 0.24380  0.24440  0.06250  Biso   1.000  N
  N16      1.0000 0.25620  0.75560  0.56250  Biso   1.000  N
  N17      1.0000 0.84660  0.44200  0.09920  Biso   1.000  N
  N18      1.0000 0.65340  0.55800  0.59920  Biso   1.000  N
  N19      1.0000 0.34660  0.05800  0.90080  Biso   1.000  N
  N20      1.0000 0.15340  0.94200  0.40080  Biso   1.000  N
  N21      1.0000 0.83920  0.47650  0.04210  Biso   1.000  N
  N22      1.0000 0.66080  0.52350  0.54210  Biso   1.000  N
  N23      1.0000 0.33920  0.02350  0.95790  Biso   1.000  N
  N24      1.0000 0.16080  0.97650  0.45790  Biso   1.000  N
  N25      1.0000 0.74760  0.67340  0.09510  Biso   1.000  N
  N26      1.0000 0.75240  0.32660  0.59510  Biso   1.000  N
  N27      1.0000 0.24760  0.82660  0.90490  Biso   1.000  N
  N28      1.0000 0.25240  0.17340  0.40490  Biso   1.000  N
  N29      1.0000 0.91090  0.30430  0.12100  Biso   1.000  N
  N30      1.0000 0.58910  0.69570  0.62100  Biso   1.000  N
  N31      1.0000 0.41090  0.19570  0.87900  Biso   1.000  N
  N32      1.0000 0.08910  0.80430  0.37900  Biso   1.000  N
  N33      1.0000 0.30680  0.75870  0.11870  Biso   1.000  N
  N34      1.0000 0.19320  0.24130  0.61870  Biso   1.000  N
  N35      1.0000 0.80680  0.74130  0.88130  Biso   1.000  N
  N36      1.0000 0.69320  0.25870  0.38130  Biso   1.000  N
  N37      1.0000 0.59660  0.74120  0.30340  Biso   1.000  N
  N38      1.0000 0.90340  0.25880  0.80340  Biso   1.000  N
  N39      1.0000 0.09660  0.75880  0.69660  Biso   1.000  N
  N40      1.0000 0.40340  0.24120  0.19660  Biso   1.000  N
  N41      1.0000 0.06980  0.49470  0.27960  Biso   1.000  N
  N42      1.0000 0.43020  0.50530  0.77960  Biso   1.000  N
  N43      1.0000 0.56980  0.00530  0.72040  Biso   1.000  N
  N44      1.0000 0.93020  0.99470  0.22040  Biso   1.000  N
  C1       1.0000 0.68260  0.08620  0.01720  Biso   1.000  C
  C2       1.0000 0.81740  0.91380  0.51720  Biso   1.000  C
  C3       1.0000 0.18260  0.41380  0.98280  Biso   1.000  C
  C4       1.0000 0.31740  0.58620  0.48280  Biso   1.000  C
  C5       1.0000 0.91170  0.98070  0.02610  Biso   1.000  C
  C6       1.0000 0.58830  0.01930  0.52610  Biso   1.000  C
  C7       1.0000 0.41170  0.51930  0.97390  Biso   1.000  C
  C8       1.0000 0.08830  0.48070  0.47390  Biso   1.000  C
  C9       1.0000 0.79160  0.55750  0.12910  Biso   1.000  C
  C10      1.0000 0.70840  0.44250  0.62910  Biso   1.000  C
  C11      1.0000 0.29160  0.94250  0.87090  Biso   1.000  C
  C12      1.0000 0.20840  0.05750  0.37090  Biso   1.000  C
  C13      1.0000 0.78010  0.61680  0.04220  Biso   1.000  C
  C14      1.0000 0.71990  0.38320  0.54220  Biso   1.000  C
  C15      1.0000 0.28010  0.88320  0.95780  Biso   1.000  C
  C16      1.0000 0.21990  0.11680  0.45780  Biso   1.000  C
  C17      1.0000 0.46830  0.74610  0.20930  Biso   1.000  C
  C18      1.0000 0.03170  0.25390  0.70930  Biso   1.000  C
  C19      1.0000 0.96830  0.75390  0.79070  Biso   1.000  C
  C20      1.0000 0.53170  0.24610  0.29070  Biso   1.000  C
  C21      1.0000 0.32500  0.71220  0.17780  Biso   1.000  C
  C22      1.0000 0.17500  0.28780  0.67780  Biso   1.000  C
  C23      1.0000 0.82500  0.78780  0.82220  Biso   1.000  C
  C24      1.0000 0.67500  0.21220  0.32220  Biso   1.000  C
  C25      1.0000 0.20040  0.63110  0.20210  Biso   1.000  C
  C26      1.0000 0.29960  0.36890  0.70210  Biso   1.000  C
  C27      1.0000 0.70040  0.86890  0.79790  Biso   1.000  C
  C28      1.0000 0.79960  0.13110  0.29790  Biso   1.000  C
  C29      1.0000 0.20480  0.58370  0.25920  Biso   1.000  C
  C30      1.0000 0.29520  0.41630  0.75920  Biso   1.000  C
  C31      1.0000 0.70480  0.91630  0.74080  Biso   1.000  C
  C32      1.0000 0.79520  0.08370  0.24080  Biso   1.000  C
  C33      1.0000 0.33600  0.62390  0.29520  Biso   1.000  C
  C34      1.0000 0.16400  0.37610  0.79520  Biso   1.000  C
  C35      1.0000 0.83600  0.87610  0.70480  Biso   1.000  C
  C36      1.0000 0.66400  0.12390  0.20480  Biso   1.000  C
  C37      1.0000 0.45840  0.70150  0.26770  Biso   1.000  C
  C38      1.0000 0.04160  0.29850  0.76770  Biso   1.000  C
  C39      1.0000 0.95840  0.79850  0.73230  Biso   1.000  C
  C40      1.0000 0.54160  0.20150  0.23230  Biso   1.000  C
  H1       1.0000 0.78500  0.55800  0.16400  Biso   1.000  H
  H2       1.0000 0.71500  0.44200  0.66400  Biso   1.000  H
  H3       1.0000 0.28500  0.94200  0.83600  Biso   1.000  H
  H4       1.0000 0.21500  0.05800  0.33600  Biso   1.000  H
  H5       1.0000 0.83300  0.23300  0.11700  Biso   1.000  H
  H6       1.0000 0.66700  0.76700  0.61700  Biso   1.000  H
  H7       1.0000 0.33300  0.26700  0.88300  Biso   1.000  H
  H8       1.0000 0.16700  0.73300  0.38300  Biso   1.000  H
  H9       1.0000 0.00800  0.27700  0.09900  Biso   1.000  H
  H10      1.0000 0.49200  0.72300  0.59900  Biso   1.000  H
  H11      1.0000 0.50800  0.22300  0.90100  Biso   1.000  H
  H12      1.0000 0.99200  0.77700  0.40100  Biso   1.000  H
  H13      1.0000 0.75900  0.67500  0.01200  Biso   1.000  H
  H14      1.0000 0.74100  0.32500  0.51200  Biso   1.000  H
  H15      1.0000 0.25900  0.82500  0.98800  Biso   1.000  H
  H16      1.0000 0.24100  0.17500  0.48800  Biso   1.000  H
  H17      1.0000 0.98700  0.93000  0.03700  Biso   1.000  H
  H18      1.0000 0.51300  0.07000  0.53700  Biso   1.000  H
  H19      1.0000 0.48700  0.57000  0.96300  Biso   1.000  H
  H20      1.0000 0.01300  0.43000  0.46300  Biso   1.000  H
  H21      1.0000 0.57400  0.09700  0.01700  Biso   1.000  H
  H22      1.0000 0.92600  0.90300  0.51700  Biso   1.000  H
  H23      1.0000 0.07400  0.40300  0.98300  Biso   1.000  H
  H24      1.0000 0.42600  0.59700  0.48300  Biso   1.000  H
  H25      1.0000 0.79400  0.33900  0.95000  Biso   1.000  H
  H26      1.0000 0.70600  0.66100  0.45000  Biso   1.000  H
  H27      1.0000 0.29400  0.16100  0.05000  Biso   1.000  H
  H28      1.0000 0.20600  0.83900  0.55000  Biso   1.000  H
  H29      1.0000 0.10900  0.60200  0.18200  Biso   1.000  H
  H30      1.0000 0.39100  0.39800  0.68200  Biso   1.000  H
  H31      1.0000 0.60900  0.89800  0.81800  Biso   1.000  H
  H32      1.0000 0.89100  0.10200  0.31800  Biso   1.000  H
  H33      1.0000 0.75700  0.20300  0.89900  Biso   1.000  H
  H34      1.0000 0.74300  0.79700  0.39900  Biso   1.000  H
  H35      1.0000 0.25700  0.29700  0.10100  Biso   1.000  H
  H36      1.0000 0.24300  0.70300  0.60100  Biso   1.000  H
