data_image0
_cell_length_a       6.9446
_cell_length_b       9.8415
_cell_length_c       17.0921
_cell_angle_alpha    94.102
_cell_angle_beta     94.906
_cell_angle_gamma    100.05

_symmetry_space_group_name_H-M    "P 1"
_symmetry_int_tables_number       1

loop_
  _symmetry_equiv_pos_as_xyz
  'x, y, z'

loop_
  _atom_site_label
  _atom_site_occupancy
  _atom_site_fract_x
  _atom_site_fract_y
  _atom_site_fract_z
  _atom_site_thermal_displace_type
  _atom_site_B_iso_or_equiv
  _atom_site_type_symbol
  Cu1      1.0000 0.10300  0.31412  0.41129  Biso   1.000  Cu
  Cu2      1.0000 0.89700  0.68588  0.58871  Biso   1.000  Cu
  S1       1.0000 0.60953  0.27271  0.45031  Biso   1.000  S
  S2       1.0000 0.39047  0.72729  0.54969  Biso   1.000  S
  O1       1.0000 0.06680  0.12238  0.44019  Biso   1.000  O
  O2       1.0000 0.93320  0.87762  0.55981  Biso   1.000  O
  O3       1.0000 0.19610  0.37170  0.52252  Biso   1.000  O
  O4       1.0000 0.80390  0.62830  0.47748  Biso   1.000  O
  O5       1.0000 0.16580  0.50050  0.37523  Biso   1.000  O
  O6       1.0000 0.83420  0.49950  0.62477  Biso   1.000  O
  O7       1.0000 0.92200  0.64079  0.29699  Biso   1.000  O
  O8       1.0000 0.07800  0.35921  0.70301  Biso   1.000  O
  O9       1.0000 0.79688  0.36110  0.43562  Biso   1.000  O
  O10      1.0000 0.20312  0.63890  0.56438  Biso   1.000  O
  O11      1.0000 0.44891  0.30451  0.39625  Biso   1.000  O
  O12      1.0000 0.55109  0.69549  0.60375  Biso   1.000  O
  O13      1.0000 0.56901  0.31006  0.53298  Biso   1.000  O
  O14      1.0000 0.43099  0.68994  0.46702  Biso   1.000  O
  O15      1.0000 0.62480  0.12755  0.43908  Biso   1.000  O
  O16      1.0000 0.37520  0.87245  0.56092  Biso   1.000  O
  N1       1.0000 0.01970  0.21546  0.30352  Biso   1.000  N
  N2       1.0000 0.98030  0.78454  0.69648  Biso   1.000  N
  N3       1.0000 0.98480  0.89823  0.39527  Biso   1.000  N
  N4       1.0000 0.01520  0.10177  0.60473  Biso   1.000  N
  C1       1.0000 0.01380  0.02997  0.38421  Biso   1.000  C
  C2       1.0000 0.98620  0.97003  0.61579  Biso   1.000  C
  C3       1.0000 0.98450  0.07635  0.30329  Biso   1.000  C
  C4       1.0000 0.01550  0.92365  0.69671  Biso   1.000  C
  C5       1.0000 0.92850  0.98938  0.23491  Biso   1.000  C
  C6       1.0000 0.07150  0.01062  0.76509  Biso   1.000  C
  H1       1.0000 0.90500  0.89000  0.23560  Biso   1.000  H
  H2       1.0000 0.09500  0.11000  0.76440  Biso   1.000  H
  C7       1.0000 0.90990  0.04880  0.16407  Biso   1.000  C
  C8       1.0000 0.09010  0.95120  0.83593  Biso   1.000  C
  H3       1.0000 0.86900  0.99400  0.11570  Biso   1.000  H
  H4       1.0000 0.13100  0.00600  0.88430  Biso   1.000  H
  C9       1.0000 0.94680  0.19020  0.16431  Biso   1.000  C
  C10      1.0000 0.05320  0.80980  0.83569  Biso   1.000  C
  H5       1.0000 0.93700  0.23100  0.11790  Biso   1.000  H
  H6       1.0000 0.06300  0.76900  0.88210  Biso   1.000  H
  C11      1.0000 0.00160  0.27154  0.23509  Biso   1.000  C
  C12      1.0000 0.99840  0.72846  0.76491  Biso   1.000  C
  H7       1.0000 0.02900  0.36500  0.23630  Biso   1.000  H
  H8       1.0000 0.97100  0.63500  0.76370  Biso   1.000  H
  H9       1.0000 0.00600  0.88100  0.43840  Biso   1.000  H
  H10      1.0000 0.99400  0.11900  0.56160  Biso   1.000  H
  H11      1.0000 0.95500  0.83100  0.35700  Biso   1.000  H
  H12      1.0000 0.04500  0.16900  0.64300  Biso   1.000  H
  H13      1.0000 0.30400  0.35800  0.53000  Biso   1.000  H
  H14      1.0000 0.69600  0.64200  0.47000  Biso   1.000  H
  H15      1.0000 0.18700  0.44400  0.53300  Biso   1.000  H
  H16      1.0000 0.81300  0.55600  0.46700  Biso   1.000  H
  H17      1.0000 0.09000  0.53700  0.35470  Biso   1.000  H
  H18      1.0000 0.91000  0.46300  0.64530  Biso   1.000  H
  H19      1.0000 0.24000  0.55900  0.40280  Biso   1.000  H
  H20      1.0000 0.76000  0.44100  0.59720  Biso   1.000  H
  H21      1.0000 0.93900  0.64100  0.25620  Biso   1.000  H
  H22      1.0000 0.06100  0.35900  0.74380  Biso   1.000  H
  H23      1.0000 0.81800  0.59800  0.29540  Biso   1.000  H
  H24      1.0000 0.18200  0.40200  0.70460  Biso   1.000  H
  Cu3      1.0000 0.32438  0.70520  0.12647  Biso   1.000  Cu
  Cu4      1.0000 0.67562  0.29480  0.87353  Biso   1.000  Cu
  S3       1.0000 0.79530  0.64119  0.08566  Biso   1.000  S
  S4       1.0000 0.20470  0.35881  0.91434  Biso   1.000  S
  O17      1.0000 0.37350  0.72764  0.24319  Biso   1.000  O
  O18      1.0000 0.62650  0.27236  0.75681  Biso   1.000  O
  O19      1.0000 0.32250  0.50550  0.12475  Biso   1.000  O
  O20      1.0000 0.67750  0.49450  0.87525  Biso   1.000  O
  O21      1.0000 0.24180  0.69989  0.01265  Biso   1.000  O
  O22      1.0000 0.75820  0.30011  0.98735  Biso   1.000  O
  O23      1.0000 0.55580  0.49921  0.29177  Biso   1.000  O
  O24      1.0000 0.44420  0.50079  0.70823  Biso   1.000  O
  O25      1.0000 0.66250  0.73758  0.10158  Biso   1.000  O
  O26      1.0000 0.33750  0.26242  0.89842  Biso   1.000  O
  O27      1.0000 0.97490  0.67416  0.14116  Biso   1.000  O
  O28      1.0000 0.02510  0.32584  0.85884  Biso   1.000  O
  O29      1.0000 0.69350  0.49758  0.09206  Biso   1.000  O
  O30      1.0000 0.30650  0.50242  0.90794  Biso   1.000  O
  O31      1.0000 0.85610  0.65218  0.00455  Biso   1.000  O
  O32      1.0000 0.14390  0.34782  0.99545  Biso   1.000  O
  N5       1.0000 0.36580  0.91041  0.14170  Biso   1.000  N
  N6       1.0000 0.63420  0.08959  0.85830  Biso   1.000  N
  N7       1.0000 0.45950  0.88490  0.34829  Biso   1.000  N
  N8       1.0000 0.54050  0.11510  0.65171  Biso   1.000  N
  C13      1.0000 0.41690  0.85153  0.27281  Biso   1.000  C
  C14      1.0000 0.58310  0.14847  0.72719  Biso   1.000  C
  C15      1.0000 0.41540  0.96256  0.21705  Biso   1.000  C
  C16      1.0000 0.58460  0.03744  0.78295  Biso   1.000  C
  C17      1.0000 0.45890  0.10338  0.23809  Biso   1.000  C
  C18      1.0000 0.54110  0.89662  0.76191  Biso   1.000  C
  H25      1.0000 0.49400  0.13400  0.28830  Biso   1.000  H
  H26      1.0000 0.50600  0.86600  0.71170  Biso   1.000  H
  C19      1.0000 0.45340  0.19302  0.17923  Biso   1.000  C
  C20      1.0000 0.54660  0.80698  0.82077  Biso   1.000  C
  H27      1.0000 0.48300  0.28900  0.18980  Biso   1.000  H
  H28      1.0000 0.51700  0.71100  0.81020  Biso   1.000  H
  C21      1.0000 0.40260  0.13960  0.10189  Biso   1.000  C
  C22      1.0000 0.59740  0.86040  0.89811  Biso   1.000  C
  H29      1.0000 0.39300  0.19400  0.06340  Biso   1.000  H
  H30      1.0000 0.60700  0.80600  0.93660  Biso   1.000  H
  C23      1.0000 0.35960  0.99746  0.08550  Biso   1.000  C
  C24      1.0000 0.64040  0.00254  0.91450  Biso   1.000  C
  H31      1.0000 0.32200  0.95900  0.03780  Biso   1.000  H
  H32      1.0000 0.67800  0.04100  0.96220  Biso   1.000  H
  H33      1.0000 0.45500  0.82200  0.37850  Biso   1.000  H
  H34      1.0000 0.54500  0.17800  0.62150  Biso   1.000  H
  H35      1.0000 0.48600  0.96500  0.36760  Biso   1.000  H
  H36      1.0000 0.51400  0.03500  0.63240  Biso   1.000  H
  H37      1.0000 0.26400  0.46500  0.08670  Biso   1.000  H
  H38      1.0000 0.73600  0.53500  0.91330  Biso   1.000  H
  H39      1.0000 0.43300  0.50100  0.11950  Biso   1.000  H
  H40      1.0000 0.56700  0.49900  0.88050  Biso   1.000  H
  H41      1.0000 0.27600  0.65100  0.98560  Biso   1.000  H
  H42      1.0000 0.72400  0.34900  0.01440  Biso   1.000  H
  H43      1.0000 0.11500  0.68300  0.00910  Biso   1.000  H
  H44      1.0000 0.88500  0.31700  0.99090  Biso   1.000  H
  H45      1.0000 0.46600  0.55100  0.28620  Biso   1.000  H
  H46      1.0000 0.53400  0.44900  0.71380  Biso   1.000  H
  H47      1.0000 0.52800  0.45600  0.31900  Biso   1.000  H
  H48      1.0000 0.47200  0.54400  0.68100  Biso   1.000  H
