data_image0
_cell_length_a       12.635
_cell_length_b       6.8276
_cell_length_c       13.414
_cell_angle_alpha    90
_cell_angle_beta     101.62
_cell_angle_gamma    90

_symmetry_space_group_name_H-M    "P 1"
_symmetry_int_tables_number       1

loop_
  _symmetry_equiv_pos_as_xyz
  'x, y, z'

loop_
  _atom_site_label
  _atom_site_occupancy
  _atom_site_fract_x
  _atom_site_fract_y
  _atom_site_fract_z
  _atom_site_thermal_displace_type
  _atom_site_B_iso_or_equiv
  _atom_site_type_symbol
  Cu1      1.0000 0.74264  0.16977  0.97828  Biso   1.000  Cu
  Cu2      1.0000 0.75736  0.66977  0.52172  Biso   1.000  Cu
  Cu3      1.0000 0.25736  0.83023  0.02172  Biso   1.000  Cu
  Cu4      1.0000 0.24264  0.33023  0.47828  Biso   1.000  Cu
  S1       1.0000 0.77141  0.67119  0.91273  Biso   1.000  S
  S2       1.0000 0.72859  0.17119  0.58727  Biso   1.000  S
  S3       1.0000 0.22859  0.32881  0.08727  Biso   1.000  S
  S4       1.0000 0.27141  0.82881  0.41273  Biso   1.000  S
  N1       1.0000 0.79170  0.14950  0.12775  Biso   1.000  N
  N2       1.0000 0.70830  0.64950  0.37225  Biso   1.000  N
  N3       1.0000 0.20830  0.85050  0.87225  Biso   1.000  N
  N4       1.0000 0.29170  0.35050  0.62775  Biso   1.000  N
  N5       1.0000 0.51595  0.15400  0.15192  Biso   1.000  N
  N6       1.0000 0.98405  0.65400  0.34808  Biso   1.000  N
  N7       1.0000 0.48405  0.84600  0.84808  Biso   1.000  N
  N8       1.0000 0.01595  0.34600  0.65192  Biso   1.000  N
  H1       1.0000 0.45700  0.15900  0.11690  Biso   1.000  H
  H2       1.0000 0.04300  0.65900  0.38310  Biso   1.000  H
  H3       1.0000 0.54300  0.84100  0.88310  Biso   1.000  H
  H4       1.0000 0.95700  0.34100  0.61690  Biso   1.000  H
  H5       1.0000 0.52080  0.13100  0.21600  Biso   1.000  H
  H6       1.0000 0.97920  0.63100  0.28400  Biso   1.000  H
  H7       1.0000 0.47920  0.86900  0.78400  Biso   1.000  H
  H8       1.0000 0.02080  0.36900  0.71600  Biso   1.000  H
  O1       1.0000 0.59841  0.18840  0.01824  Biso   1.000  O
  O2       1.0000 0.90159  0.68840  0.48176  Biso   1.000  O
  O3       1.0000 0.40159  0.81160  0.98176  Biso   1.000  O
  O4       1.0000 0.09841  0.31160  0.51824  Biso   1.000  O
  O5       1.0000 0.88971  0.12350  0.95335  Biso   1.000  O
  O6       1.0000 0.61029  0.62350  0.54665  Biso   1.000  O
  O7       1.0000 0.11029  0.87650  0.04665  Biso   1.000  O
  O8       1.0000 0.38971  0.37650  0.45335  Biso   1.000  O
  H9       1.0000 0.91500  0.20100  0.92300  Biso   1.000  H
  H10      1.0000 0.58500  0.70100  0.57700  Biso   1.000  H
  H11      1.0000 0.08500  0.79900  0.07700  Biso   1.000  H
  H12      1.0000 0.41500  0.29900  0.42300  Biso   1.000  H
  H13      1.0000 0.89600  0.01900  0.93000  Biso   1.000  H
  H14      1.0000 0.60400  0.51900  0.57000  Biso   1.000  H
  H15      1.0000 0.10400  0.98100  0.07000  Biso   1.000  H
  H16      1.0000 0.39600  0.48100  0.43000  Biso   1.000  H
  O9       1.0000 0.67949  0.21250  0.83497  Biso   1.000  O
  O10      1.0000 0.82051  0.71250  0.66503  Biso   1.000  O
  O11      1.0000 0.32051  0.78750  0.16503  Biso   1.000  O
  O12      1.0000 0.17949  0.28750  0.33497  Biso   1.000  O
  H17      1.0000 0.70700  0.16300  0.79800  Biso   1.000  H
  H18      1.0000 0.79300  0.66300  0.70200  Biso   1.000  H
  H19      1.0000 0.29300  0.83700  0.20200  Biso   1.000  H
  H20      1.0000 0.20700  0.33700  0.29800  Biso   1.000  H
  H21      1.0000 0.68500  0.32900  0.82140  Biso   1.000  H
  H22      1.0000 0.81500  0.82900  0.67860  Biso   1.000  H
  H23      1.0000 0.31500  0.67100  0.17860  Biso   1.000  H
  H24      1.0000 0.18500  0.17100  0.32140  Biso   1.000  H
  O13      1.0000 0.70955  0.82957  0.94892  Biso   1.000  O
  O14      1.0000 0.79045  0.32957  0.55108  Biso   1.000  O
  O15      1.0000 0.29045  0.17043  0.05108  Biso   1.000  O
  O16      1.0000 0.20955  0.67043  0.44892  Biso   1.000  O
  O17      1.0000 0.87604  0.74840  0.89645  Biso   1.000  O
  O18      1.0000 0.62396  0.24840  0.60355  Biso   1.000  O
  O19      1.0000 0.12396  0.25160  0.10355  Biso   1.000  O
  O20      1.0000 0.37604  0.75160  0.39645  Biso   1.000  O
  O21      1.0000 0.79221  0.51222  0.98863  Biso   1.000  O
  O22      1.0000 0.70779  0.01222  0.51137  Biso   1.000  O
  O23      1.0000 0.20779  0.48778  0.01137  Biso   1.000  O
  O24      1.0000 0.29221  0.98778  0.48863  Biso   1.000  O
  O25      1.0000 0.70994  0.59330  0.81536  Biso   1.000  O
  O26      1.0000 0.79006  0.09330  0.68464  Biso   1.000  O
  O27      1.0000 0.29006  0.40670  0.18464  Biso   1.000  O
  O28      1.0000 0.20994  0.90670  0.31536  Biso   1.000  O
  O29      1.0000 0.00312  0.41650  0.87414  Biso   1.000  O
  O30      1.0000 0.49688  0.91650  0.62586  Biso   1.000  O
  O31      1.0000 0.99688  0.58350  0.12586  Biso   1.000  O
  O32      1.0000 0.50312  0.08350  0.37414  Biso   1.000  O
  H25      1.0000 0.96900  0.50500  0.87300  Biso   1.000  H
  H26      1.0000 0.53100  0.00500  0.62700  Biso   1.000  H
  H27      1.0000 0.03100  0.49500  0.12700  Biso   1.000  H
  H28      1.0000 0.46900  0.99500  0.37300  Biso   1.000  H
  H29      1.0000 0.05300  0.43600  0.91700  Biso   1.000  H
  H30      1.0000 0.44700  0.93600  0.58300  Biso   1.000  H
  H31      1.0000 0.94700  0.56400  0.08300  Biso   1.000  H
  H32      1.0000 0.55300  0.06400  0.41700  Biso   1.000  H
  C1       1.0000 0.89396  0.14240  0.17916  Biso   1.000  C
  C2       1.0000 0.60604  0.64240  0.32084  Biso   1.000  C
  C3       1.0000 0.10604  0.85760  0.82084  Biso   1.000  C
  C4       1.0000 0.39396  0.35760  0.67916  Biso   1.000  C
  H33      1.0000 0.94940  0.13600  0.14300  Biso   1.000  H
  H34      1.0000 0.55060  0.63600  0.35700  Biso   1.000  H
  H35      1.0000 0.05060  0.86400  0.85700  Biso   1.000  H
  H36      1.0000 0.44940  0.36400  0.64300  Biso   1.000  H
  C5       1.0000 0.91984  0.14440  0.28418  Biso   1.000  C
  C6       1.0000 0.58016  0.64440  0.21582  Biso   1.000  C
  C7       1.0000 0.08016  0.85560  0.71582  Biso   1.000  C
  C8       1.0000 0.41984  0.35560  0.78418  Biso   1.000  C
  H37      1.0000 0.99160  0.14060  0.31820  Biso   1.000  H
  H38      1.0000 0.50840  0.64060  0.18180  Biso   1.000  H
  H39      1.0000 0.00840  0.85940  0.68180  Biso   1.000  H
  H40      1.0000 0.49160  0.35940  0.81820  Biso   1.000  H
  C9       1.0000 0.83787  0.15200  0.33781  Biso   1.000  C
  C10      1.0000 0.66213  0.65200  0.16219  Biso   1.000  C
  C11      1.0000 0.16213  0.84800  0.66219  Biso   1.000  C
  C12      1.0000 0.33787  0.34800  0.83781  Biso   1.000  C
  H41      1.0000 0.85350  0.15360  0.40860  Biso   1.000  H
  H42      1.0000 0.64650  0.65360  0.09140  Biso   1.000  H
  H43      1.0000 0.14650  0.84640  0.59140  Biso   1.000  H
  H44      1.0000 0.35350  0.34640  0.90860  Biso   1.000  H
  C13      1.0000 0.73175  0.15710  0.28508  Biso   1.000  C
  C14      1.0000 0.76825  0.65710  0.21492  Biso   1.000  C
  C15      1.0000 0.26825  0.84290  0.71492  Biso   1.000  C
  C16      1.0000 0.23175  0.34290  0.78508  Biso   1.000  C
  H45      1.0000 0.67510  0.16130  0.31990  Biso   1.000  H
  H46      1.0000 0.82490  0.66130  0.18010  Biso   1.000  H
  H47      1.0000 0.32490  0.83870  0.68010  Biso   1.000  H
  H48      1.0000 0.17510  0.33870  0.81990  Biso   1.000  H
  C17      1.0000 0.71139  0.15590  0.18053  Biso   1.000  C
  C18      1.0000 0.78861  0.65590  0.31947  Biso   1.000  C
  C19      1.0000 0.28861  0.84410  0.81947  Biso   1.000  C
  C20      1.0000 0.21139  0.34410  0.68053  Biso   1.000  C
  C21      1.0000 0.60208  0.16620  0.11164  Biso   1.000  C
  C22      1.0000 0.89792  0.66620  0.38836  Biso   1.000  C
  C23      1.0000 0.39792  0.83380  0.88836  Biso   1.000  C
  C24      1.0000 0.10208  0.33380  0.61164  Biso   1.000  C
