data_image0
_cell_length_a       7.82
_cell_length_b       8.327
_cell_length_c       9.155
_cell_angle_alpha    90
_cell_angle_beta     113.759
_cell_angle_gamma    90

_symmetry_space_group_name_H-M    "P 1"
_symmetry_int_tables_number       1

loop_
  _symmetry_equiv_pos_as_xyz
  'x, y, z'

loop_
  _atom_site_label
  _atom_site_occupancy
  _atom_site_fract_x
  _atom_site_fract_y
  _atom_site_fract_z
  _atom_site_thermal_displace_type
  _atom_site_B_iso_or_equiv
  _atom_site_type_symbol
  Cu1      1.0000 0.00000  0.00000  0.00000  Biso   1.000  Cu
  Cu2      1.0000 0.50000  0.50000  0.50000  Biso   1.000  Cu
  N1       1.0000 0.81790  0.73280  0.60110  Biso   1.000  N
  N2       1.0000 0.68210  0.23280  0.89890  Biso   1.000  N
  N3       1.0000 0.18210  0.26720  0.39890  Biso   1.000  N
  N4       1.0000 0.31790  0.76720  0.10110  Biso   1.000  N
  N5       1.0000 0.76980  0.57630  0.53870  Biso   1.000  N
  N6       1.0000 0.73020  0.07630  0.96130  Biso   1.000  N
  N7       1.0000 0.23020  0.42370  0.46130  Biso   1.000  N
  N8       1.0000 0.26980  0.92370  0.03870  Biso   1.000  N
  N9       1.0000 0.88790  0.75190  0.75840  Biso   1.000  N
  N10      1.0000 0.61210  0.25190  0.74160  Biso   1.000  N
  N11      1.0000 0.11210  0.24810  0.24160  Biso   1.000  N
  N12      1.0000 0.38790  0.74810  0.25840  Biso   1.000  N
  C1       1.0000 0.84420  0.98530  0.63680  Biso   1.000  C
  C2       1.0000 0.65580  0.48530  0.86320  Biso   1.000  C
  C3       1.0000 0.15580  0.01470  0.36320  Biso   1.000  C
  C4       1.0000 0.34420  0.51470  0.13680  Biso   1.000  C
  N13      1.0000 0.90400  0.90930  0.77980  Biso   1.000  N
  N14      1.0000 0.59600  0.40930  0.72020  Biso   1.000  N
  N15      1.0000 0.09600  0.09070  0.22020  Biso   1.000  N
  N16      1.0000 0.40400  0.59070  0.27980  Biso   1.000  N
  C5       1.0000 0.78730  0.87160  0.52010  Biso   1.000  C
  C6       1.0000 0.71270  0.37160  0.97990  Biso   1.000  C
  C7       1.0000 0.21270  0.12840  0.47990  Biso   1.000  C
  C8       1.0000 0.28730  0.62840  0.02010  Biso   1.000  C
  O1       1.0000 0.09690  0.38130  0.71330  Biso   1.000  O
  O2       1.0000 0.40310  0.88130  0.78670  Biso   1.000  O
  O3       1.0000 0.90310  0.61870  0.28670  Biso   1.000  O
  O4       1.0000 0.59690  0.11870  0.21330  Biso   1.000  O
  O5       1.0000 0.03260  0.24938  0.88820  Biso   1.000  O
  O6       1.0000 0.46740  0.74938  0.61180  Biso   1.000  O
  O7       1.0000 0.96740  0.75062  0.11180  Biso   1.000  O
  O8       1.0000 0.53260  0.25062  0.38820  Biso   1.000  O
  N17      1.0000 0.14040  0.27590  0.81990  Biso   1.000  N
  N18      1.0000 0.35960  0.77590  0.68010  Biso   1.000  N
  N19      1.0000 0.85960  0.72410  0.18010  Biso   1.000  N
  N20      1.0000 0.64040  0.22410  0.31990  Biso   1.000  N
  O9       1.0000 0.28790  0.20070  0.85770  Biso   1.000  O
  O10      1.0000 0.21210  0.70070  0.64230  Biso   1.000  O
  O11      1.0000 0.71210  0.79930  0.14230  Biso   1.000  O
  O12      1.0000 0.78790  0.29930  0.35770  Biso   1.000  O
  H1       1.0000 0.83600  0.51800  0.59600  Biso   1.000  H
  H2       1.0000 0.66400  0.01800  0.90400  Biso   1.000  H
  H3       1.0000 0.16400  0.48200  0.40400  Biso   1.000  H
  H4       1.0000 0.33600  0.98200  0.09600  Biso   1.000  H
  H5       1.0000 0.78300  0.57400  0.45900  Biso   1.000  H
  H6       1.0000 0.71700  0.07400  0.04100  Biso   1.000  H
  H7       1.0000 0.21700  0.42600  0.54100  Biso   1.000  H
  H8       1.0000 0.28300  0.92600  0.95900  Biso   1.000  H
  H9       1.0000 0.74200  0.87500  0.41700  Biso   1.000  H
  H10      1.0000 0.75800  0.37500  0.08300  Biso   1.000  H
  H11      1.0000 0.25800  0.12500  0.58300  Biso   1.000  H
  H12      1.0000 0.24200  0.62500  0.91700  Biso   1.000  H
  H13      1.0000 0.83800  0.10100  0.62900  Biso   1.000  H
  H14      1.0000 0.66200  0.60100  0.87100  Biso   1.000  H
  H15      1.0000 0.16200  0.89900  0.37100  Biso   1.000  H
  H16      1.0000 0.33800  0.39900  0.12900  Biso   1.000  H
