data_image0
_cell_length_a       7.3258
_cell_length_b       10.2754
_cell_length_c       22.442
_cell_angle_alpha    90
_cell_angle_beta     95.551
_cell_angle_gamma    90

_symmetry_space_group_name_H-M    "P 1"
_symmetry_int_tables_number       1

loop_
  _symmetry_equiv_pos_as_xyz
  'x, y, z'

loop_
  _atom_site_label
  _atom_site_occupancy
  _atom_site_fract_x
  _atom_site_fract_y
  _atom_site_fract_z
  _atom_site_thermal_displace_type
  _atom_site_B_iso_or_equiv
  _atom_site_type_symbol
  Cu1      1.0000 0.17960  0.19842  0.37916  Biso   1.000  Cu
  Cu2      1.0000 0.82040  0.69842  0.12084  Biso   1.000  Cu
  Cu3      1.0000 0.82040  0.80158  0.62084  Biso   1.000  Cu
  Cu4      1.0000 0.17960  0.30158  0.87916  Biso   1.000  Cu
  O1       1.0000 0.15990  0.01630  0.35483  Biso   1.000  O
  O2       1.0000 0.84010  0.51630  0.14517  Biso   1.000  O
  O3       1.0000 0.84010  0.98370  0.64517  Biso   1.000  O
  O4       1.0000 0.15990  0.48370  0.85483  Biso   1.000  O
  O5       1.0000 0.46070  0.15650  0.33223  Biso   1.000  O
  O6       1.0000 0.53930  0.65650  0.16777  Biso   1.000  O
  O7       1.0000 0.53930  0.84350  0.66777  Biso   1.000  O
  O8       1.0000 0.46070  0.34350  0.83223  Biso   1.000  O
  O9       1.0000 0.53090  0.16640  0.24151  Biso   1.000  O
  O10      1.0000 0.46910  0.66640  0.25849  Biso   1.000  O
  O11      1.0000 0.46910  0.83360  0.75849  Biso   1.000  O
  O12      1.0000 0.53090  0.33360  0.74151  Biso   1.000  O
  O13      1.0000 0.91740  0.78130  0.35060  Biso   1.000  O
  O14      1.0000 0.08260  0.28130  0.14940  Biso   1.000  O
  O15      1.0000 0.08260  0.21870  0.64940  Biso   1.000  O
  O16      1.0000 0.91740  0.71870  0.85060  Biso   1.000  O
  O17      1.0000 0.74880  0.90470  0.29570  Biso   1.000  O
  O18      1.0000 0.25120  0.40470  0.20430  Biso   1.000  O
  O19      1.0000 0.25120  0.09530  0.70430  Biso   1.000  O
  O20      1.0000 0.74880  0.59530  0.79570  Biso   1.000  O
  O21      1.0000 0.12900  0.72460  0.10721  Biso   1.000  O
  O22      1.0000 0.87100  0.22460  0.39279  Biso   1.000  O
  O23      1.0000 0.87100  0.27540  0.89279  Biso   1.000  O
  O24      1.0000 0.12900  0.77540  0.60721  Biso   1.000  O
  O25      1.0000 0.32770  0.87620  0.09656  Biso   1.000  O
  O26      1.0000 0.67230  0.37620  0.40344  Biso   1.000  O
  O27      1.0000 0.67230  0.12380  0.90344  Biso   1.000  O
  O28      1.0000 0.32770  0.62380  0.59656  Biso   1.000  O
  O29      1.0000 0.91990  0.74470  0.20158  Biso   1.000  O
  O30      1.0000 0.08010  0.24470  0.29842  Biso   1.000  O
  O31      1.0000 0.08010  0.25530  0.79842  Biso   1.000  O
  O32      1.0000 0.91990  0.75530  0.70158  Biso   1.000  O
  N1       1.0000 0.38350  0.12000  0.54926  Biso   1.000  N
  N2       1.0000 0.61650  0.62000  0.95074  Biso   1.000  N
  N3       1.0000 0.61650  0.88000  0.45074  Biso   1.000  N
  N4       1.0000 0.38350  0.38000  0.04926  Biso   1.000  N
  N5       1.0000 0.36260  0.20000  0.50238  Biso   1.000  N
  N6       1.0000 0.63740  0.70000  0.99762  Biso   1.000  N
  N7       1.0000 0.63740  0.80000  0.49762  Biso   1.000  N
  N8       1.0000 0.36260  0.30000  0.00238  Biso   1.000  N
  N9       1.0000 0.25940  0.13410  0.46074  Biso   1.000  N
  N10      1.0000 0.74060  0.63410  0.03926  Biso   1.000  N
  N11      1.0000 0.74060  0.86590  0.53926  Biso   1.000  N
  N12      1.0000 0.25940  0.36590  0.96074  Biso   1.000  N
  N13      1.0000 0.49220  0.16320  0.60060  Biso   1.000  N
  N14      1.0000 0.50780  0.66320  0.89940  Biso   1.000  N
  N15      1.0000 0.50780  0.83680  0.39940  Biso   1.000  N
  N16      1.0000 0.49220  0.33680  0.10060  Biso   1.000  N
  N17      1.0000 0.18180  0.57380  0.43220  Biso   1.000  N
  N18      1.0000 0.81820  0.07380  0.06780  Biso   1.000  N
  N19      1.0000 0.81820  0.42620  0.56780  Biso   1.000  N
  N20      1.0000 0.18180  0.92620  0.93220  Biso   1.000  N
  N21      1.0000 0.16100  0.44640  0.44340  Biso   1.000  N
  N22      1.0000 0.83900  0.94640  0.05660  Biso   1.000  N
  N23      1.0000 0.83900  0.55360  0.55660  Biso   1.000  N
  N24      1.0000 0.16100  0.05360  0.94340  Biso   1.000  N
  N25      1.0000 0.21380  0.38640  0.39631  Biso   1.000  N
  N26      1.0000 0.78620  0.88640  0.10369  Biso   1.000  N
  N27      1.0000 0.78620  0.61360  0.60369  Biso   1.000  N
  N28      1.0000 0.21380  0.11360  0.89631  Biso   1.000  N
  N29      1.0000 0.13900  0.67110  0.47280  Biso   1.000  N
  N30      1.0000 0.86100  0.17110  0.02720  Biso   1.000  N
  N31      1.0000 0.86100  0.32890  0.52720  Biso   1.000  N
  N32      1.0000 0.13900  0.82890  0.97280  Biso   1.000  N
  N33      1.0000 0.44010  0.12030  0.27940  Biso   1.000  N
  N34      1.0000 0.55990  0.62030  0.22060  Biso   1.000  N
  N35      1.0000 0.55990  0.87970  0.72060  Biso   1.000  N
  N36      1.0000 0.44010  0.37970  0.77940  Biso   1.000  N
  N37      1.0000 0.89520  0.85350  0.30959  Biso   1.000  N
  N38      1.0000 0.10480  0.35350  0.19041  Biso   1.000  N
  N39      1.0000 0.10480  0.14650  0.69041  Biso   1.000  N
  N40      1.0000 0.89520  0.64650  0.80959  Biso   1.000  N
  N41      1.0000 0.21590  0.82410  0.12610  Biso   1.000  N
  N42      1.0000 0.78410  0.32410  0.37390  Biso   1.000  N
  N43      1.0000 0.78410  0.17590  0.87390  Biso   1.000  N
  N44      1.0000 0.21590  0.67590  0.62610  Biso   1.000  N
  C1       1.0000 0.29910  0.00740  0.53900  Biso   1.000  C
  C2       1.0000 0.70090  0.50740  0.96100  Biso   1.000  C
  C3       1.0000 0.70090  0.99260  0.46100  Biso   1.000  C
  C4       1.0000 0.29910  0.49260  0.03900  Biso   1.000  C
  C5       1.0000 0.22040  0.01500  0.48310  Biso   1.000  C
  C6       1.0000 0.77960  0.51500  0.01690  Biso   1.000  C
  C7       1.0000 0.77960  0.98500  0.51690  Biso   1.000  C
  C8       1.0000 0.22040  0.48500  0.98310  Biso   1.000  C
  C9       1.0000 0.24100  0.59470  0.37770  Biso   1.000  C
  C10      1.0000 0.75900  0.09470  0.12230  Biso   1.000  C
  C11      1.0000 0.75900  0.40530  0.62230  Biso   1.000  C
  C12      1.0000 0.24100  0.90530  0.87770  Biso   1.000  C
  C13      1.0000 0.26150  0.47460  0.35610  Biso   1.000  C
  C14      1.0000 0.73850  0.97460  0.14390  Biso   1.000  C
  C15      1.0000 0.73850  0.52540  0.64390  Biso   1.000  C
  C16      1.0000 0.26150  0.02540  0.85610  Biso   1.000  C
  C17      1.0000 0.17270  0.97820  0.30070  Biso   1.000  C
  C18      1.0000 0.82730  0.47820  0.19930  Biso   1.000  C
  C19      1.0000 0.82730  0.02180  0.69930  Biso   1.000  C
  C20      1.0000 0.17270  0.52180  0.80070  Biso   1.000  C
  C21      1.0000 0.30580  0.02150  0.26170  Biso   1.000  C
  C22      1.0000 0.69420  0.52150  0.23830  Biso   1.000  C
  C23      1.0000 0.69420  0.97850  0.73830  Biso   1.000  C
  C24      1.0000 0.30580  0.47850  0.76170  Biso   1.000  C
  C25      1.0000 0.30600  0.97200  0.20520  Biso   1.000  C
  C26      1.0000 0.69400  0.47200  0.29480  Biso   1.000  C
  C27      1.0000 0.69400  0.02800  0.79480  Biso   1.000  C
  C28      1.0000 0.30600  0.52800  0.70520  Biso   1.000  C
  C29      1.0000 0.18580  0.87580  0.18370  Biso   1.000  C
  C30      1.0000 0.81420  0.37580  0.31630  Biso   1.000  C
  C31      1.0000 0.81420  0.12420  0.81630  Biso   1.000  C
  C32      1.0000 0.18580  0.62420  0.68370  Biso   1.000  C
  C33      1.0000 0.04580  0.82830  0.21800  Biso   1.000  C
  C34      1.0000 0.95420  0.32830  0.28200  Biso   1.000  C
  C35      1.0000 0.95420  0.17170  0.78200  Biso   1.000  C
  C36      1.0000 0.04580  0.67170  0.71800  Biso   1.000  C
  C37      1.0000 0.04970  0.88660  0.27490  Biso   1.000  C
  C38      1.0000 0.95030  0.38660  0.22510  Biso   1.000  C
  C39      1.0000 0.95030  0.11340  0.72510  Biso   1.000  C
  C40      1.0000 0.04970  0.61340  0.77490  Biso   1.000  C
  H1       1.0000 0.99700  0.64600  0.48800  Biso   1.000  H
  H2       1.0000 0.00300  0.14600  0.01200  Biso   1.000  H
  H3       1.0000 0.00300  0.35400  0.51200  Biso   1.000  H
  H4       1.0000 0.99700  0.85400  0.98800  Biso   1.000  H
  H5       1.0000 0.39600  0.01300  0.18040  Biso   1.000  H
  H6       1.0000 0.60400  0.51300  0.31960  Biso   1.000  H
  H7       1.0000 0.60400  0.98700  0.81960  Biso   1.000  H
  H8       1.0000 0.39600  0.48700  0.68040  Biso   1.000  H
  H9       1.0000 0.29100  0.45600  0.32100  Biso   1.000  H
  H10      1.0000 0.70900  0.95600  0.17900  Biso   1.000  H
  H11      1.0000 0.70900  0.54400  0.67900  Biso   1.000  H
  H12      1.0000 0.29100  0.04400  0.82100  Biso   1.000  H
  H13      1.0000 0.29300  0.94500  0.56500  Biso   1.000  H
  H14      1.0000 0.70700  0.44500  0.93500  Biso   1.000  H
  H15      1.0000 0.70700  0.05500  0.43500  Biso   1.000  H
  H16      1.0000 0.29300  0.55500  0.06500  Biso   1.000  H
  H17      1.0000 0.16800  0.96000  0.46100  Biso   1.000  H
  H18      1.0000 0.83200  0.46000  0.03900  Biso   1.000  H
  H19      1.0000 0.83200  0.04000  0.53900  Biso   1.000  H
  H20      1.0000 0.16800  0.54000  0.96100  Biso   1.000  H
  H21      1.0000 0.25600  0.67900  0.36700  Biso   1.000  H
  H22      1.0000 0.74400  0.17900  0.13300  Biso   1.000  H
  H23      1.0000 0.74400  0.32100  0.63300  Biso   1.000  H
  H24      1.0000 0.25600  0.82100  0.86700  Biso   1.000  H
  H25      1.0000 0.25000  0.66200  0.50900  Biso   1.000  H
  H26      1.0000 0.75000  0.16200  0.99100  Biso   1.000  H
  H27      1.0000 0.75000  0.33800  0.49100  Biso   1.000  H
  H28      1.0000 0.25000  0.83800  0.00900  Biso   1.000  H
  H29      1.0000 0.43300  0.16900  0.63400  Biso   1.000  H
  H30      1.0000 0.56700  0.66900  0.86600  Biso   1.000  H
  H31      1.0000 0.56700  0.83100  0.36600  Biso   1.000  H
  H32      1.0000 0.43300  0.33100  0.13400  Biso   1.000  H
  H33      1.0000 0.55900  0.10400  0.60800  Biso   1.000  H
  H34      1.0000 0.44100  0.60400  0.89200  Biso   1.000  H
  H35      1.0000 0.44100  0.89600  0.39200  Biso   1.000  H
  H36      1.0000 0.55900  0.39600  0.10800  Biso   1.000  H
