data_image0
_cell_length_a       20.16
_cell_length_b       9
_cell_length_c       24.497
_cell_angle_alpha    90
_cell_angle_beta     118.47
_cell_angle_gamma    90

_symmetry_space_group_name_H-M    "P 1"
_symmetry_int_tables_number       1

loop_
  _symmetry_equiv_pos_as_xyz
  'x, y, z'

loop_
  _atom_site_label
  _atom_site_occupancy
  _atom_site_fract_x
  _atom_site_fract_y
  _atom_site_fract_z
  _atom_site_thermal_displace_type
  _atom_site_B_iso_or_equiv
  _atom_site_type_symbol
  Cu1      1.0000 0.25000  0.25000  0.50000  Biso   1.000  Cu
  Cu2      1.0000 0.75000  0.75000  0.50000  Biso   1.000  Cu
  Cu3      1.0000 0.75000  0.25000  0.00000  Biso   1.000  Cu
  Cu4      1.0000 0.25000  0.75000  0.00000  Biso   1.000  Cu
  Cu5      1.0000 0.50000  0.50000  0.50000  Biso   1.000  Cu
  Cu6      1.0000 0.00000  0.00000  0.50000  Biso   1.000  Cu
  Cu7      1.0000 0.50000  0.50000  0.00000  Biso   1.000  Cu
  Cu8      1.0000 0.00000  0.00000  0.00000  Biso   1.000  Cu
  S1       1.0000 0.43150  0.66390  0.66976  Biso   1.000  S
  S2       1.0000 0.93150  0.16390  0.66976  Biso   1.000  S
  S3       1.0000 0.56850  0.66390  0.83024  Biso   1.000  S
  S4       1.0000 0.06850  0.16390  0.83024  Biso   1.000  S
  S5       1.0000 0.56850  0.33610  0.33024  Biso   1.000  S
  S6       1.0000 0.06850  0.83610  0.33024  Biso   1.000  S
  S7       1.0000 0.43150  0.33610  0.16976  Biso   1.000  S
  S8       1.0000 0.93150  0.83610  0.16976  Biso   1.000  S
  S9       1.0000 0.22290  0.25790  0.31081  Biso   1.000  S
  S10      1.0000 0.72290  0.75790  0.31081  Biso   1.000  S
  S11      1.0000 0.77710  0.25790  0.18919  Biso   1.000  S
  S12      1.0000 0.27710  0.75790  0.18919  Biso   1.000  S
  S13      1.0000 0.77710  0.74210  0.68919  Biso   1.000  S
  S14      1.0000 0.27710  0.24210  0.68919  Biso   1.000  S
  S15      1.0000 0.22290  0.74210  0.81081  Biso   1.000  S
  S16      1.0000 0.72290  0.24210  0.81081  Biso   1.000  S
  O1       1.0000 0.34980  0.22900  0.56870  Biso   1.000  O
  O2       1.0000 0.84980  0.72900  0.56870  Biso   1.000  O
  O3       1.0000 0.65020  0.22900  0.93130  Biso   1.000  O
  O4       1.0000 0.15020  0.72900  0.93130  Biso   1.000  O
  O5       1.0000 0.65020  0.77100  0.43130  Biso   1.000  O
  O6       1.0000 0.15020  0.27100  0.43130  Biso   1.000  O
  O7       1.0000 0.34980  0.77100  0.06870  Biso   1.000  O
  O8       1.0000 0.84980  0.27100  0.06870  Biso   1.000  O
  O9       1.0000 0.43940  0.35520  0.64820  Biso   1.000  O
  O10      1.0000 0.93940  0.85520  0.64820  Biso   1.000  O
  O11      1.0000 0.56060  0.35520  0.85180  Biso   1.000  O
  O12      1.0000 0.06060  0.85520  0.85180  Biso   1.000  O
  O13      1.0000 0.56060  0.64480  0.35180  Biso   1.000  O
  O14      1.0000 0.06060  0.14480  0.35180  Biso   1.000  O
  O15      1.0000 0.43940  0.64480  0.14820  Biso   1.000  O
  O16      1.0000 0.93940  0.14480  0.14820  Biso   1.000  O
  O17      1.0000 0.26260  0.46520  0.53370  Biso   1.000  O
  O18      1.0000 0.76260  0.96520  0.53370  Biso   1.000  O
  O19      1.0000 0.73740  0.46520  0.96630  Biso   1.000  O
  O20      1.0000 0.23740  0.96520  0.96630  Biso   1.000  O
  O21      1.0000 0.73740  0.53480  0.46630  Biso   1.000  O
  O22      1.0000 0.23740  0.03480  0.46630  Biso   1.000  O
  O23      1.0000 0.26260  0.53480  0.03370  Biso   1.000  O
  O24      1.0000 0.76260  0.03480  0.03370  Biso   1.000  O
  O25      1.0000 0.29190  0.32370  0.43440  Biso   1.000  O
  O26      1.0000 0.79190  0.82370  0.43440  Biso   1.000  O
  O27      1.0000 0.70810  0.32370  0.06560  Biso   1.000  O
  O28      1.0000 0.20810  0.82370  0.06560  Biso   1.000  O
  O29      1.0000 0.70810  0.67630  0.56560  Biso   1.000  O
  O30      1.0000 0.20810  0.17630  0.56560  Biso   1.000  O
  O31      1.0000 0.29190  0.67630  0.93440  Biso   1.000  O
  O32      1.0000 0.79190  0.17630  0.93440  Biso   1.000  O
  O33      1.0000 0.40110  0.43870  0.49220  Biso   1.000  O
  O34      1.0000 0.90110  0.93870  0.49220  Biso   1.000  O
  O35      1.0000 0.59890  0.43870  0.00780  Biso   1.000  O
  O36      1.0000 0.09890  0.93870  0.00780  Biso   1.000  O
  O37      1.0000 0.59890  0.56130  0.50780  Biso   1.000  O
  O38      1.0000 0.09890  0.06130  0.50780  Biso   1.000  O
  O39      1.0000 0.40110  0.56130  0.99220  Biso   1.000  O
  O40      1.0000 0.90110  0.06130  0.99220  Biso   1.000  O
  O41      1.0000 0.42700  0.43160  0.39340  Biso   1.000  O
  O42      1.0000 0.92700  0.93160  0.39340  Biso   1.000  O
  O43      1.0000 0.57300  0.43160  0.10660  Biso   1.000  O
  O44      1.0000 0.07300  0.93160  0.10660  Biso   1.000  O
  O45      1.0000 0.57300  0.56840  0.60660  Biso   1.000  O
  O46      1.0000 0.07300  0.06840  0.60660  Biso   1.000  O
  O47      1.0000 0.42700  0.56840  0.89340  Biso   1.000  O
  O48      1.0000 0.92700  0.06840  0.89340  Biso   1.000  O
  O49      1.0000 0.00000  0.34860  0.25000  Biso   1.000  O
  O50      1.0000 0.50000  0.84860  0.25000  Biso   1.000  O
  O51      1.0000 0.00000  0.65140  0.75000  Biso   1.000  O
  O52      1.0000 0.50000  0.15140  0.75000  Biso   1.000  O
  N1       1.0000 0.46180  0.70700  0.47780  Biso   1.000  N
  N2       1.0000 0.96180  0.20700  0.47780  Biso   1.000  N
  N3       1.0000 0.53820  0.70700  0.02220  Biso   1.000  N
  N4       1.0000 0.03820  0.20700  0.02220  Biso   1.000  N
  N5       1.0000 0.53820  0.29300  0.52220  Biso   1.000  N
  N6       1.0000 0.03820  0.79300  0.52220  Biso   1.000  N
  N7       1.0000 0.46180  0.29300  0.97780  Biso   1.000  N
  N8       1.0000 0.96180  0.79300  0.97780  Biso   1.000  N
  C1       1.0000 0.37760  0.34360  0.60150  Biso   1.000  C
  C2       1.0000 0.87760  0.84360  0.60150  Biso   1.000  C
  C3       1.0000 0.62240  0.34360  0.89850  Biso   1.000  C
  C4       1.0000 0.12240  0.84360  0.89850  Biso   1.000  C
  C5       1.0000 0.62240  0.65640  0.39850  Biso   1.000  C
  C6       1.0000 0.12240  0.15640  0.39850  Biso   1.000  C
  C7       1.0000 0.37760  0.65640  0.10150  Biso   1.000  C
  C8       1.0000 0.87760  0.15640  0.10150  Biso   1.000  C
  C9       1.0000 0.32540  0.48300  0.57880  Biso   1.000  C
  C10      1.0000 0.82540  0.98300  0.57880  Biso   1.000  C
  C11      1.0000 0.67460  0.48300  0.92120  Biso   1.000  C
  C12      1.0000 0.17460  0.98300  0.92120  Biso   1.000  C
  C13      1.0000 0.67460  0.51700  0.42120  Biso   1.000  C
  C14      1.0000 0.17460  0.01700  0.42120  Biso   1.000  C
  C15      1.0000 0.32540  0.51700  0.07880  Biso   1.000  C
  C16      1.0000 0.82540  0.01700  0.07880  Biso   1.000  C
  C17      1.0000 0.34910  0.62560  0.60880  Biso   1.000  C
  C18      1.0000 0.84910  0.12560  0.60880  Biso   1.000  C
  C19      1.0000 0.65090  0.62560  0.89120  Biso   1.000  C
  C20      1.0000 0.15090  0.12560  0.89120  Biso   1.000  C
  C21      1.0000 0.65090  0.37440  0.39120  Biso   1.000  C
  C22      1.0000 0.15090  0.87440  0.39120  Biso   1.000  C
  C23      1.0000 0.34910  0.37440  0.10880  Biso   1.000  C
  C24      1.0000 0.84910  0.87440  0.10880  Biso   1.000  C
  C25      1.0000 0.29420  0.76660  0.58210  Biso   1.000  C
  C26      1.0000 0.79420  0.26660  0.58210  Biso   1.000  C
  C27      1.0000 0.70580  0.76660  0.91790  Biso   1.000  C
  C28      1.0000 0.20580  0.26660  0.91790  Biso   1.000  C
  C29      1.0000 0.70580  0.23340  0.41790  Biso   1.000  C
  C30      1.0000 0.20580  0.73340  0.41790  Biso   1.000  C
  C31      1.0000 0.29420  0.23340  0.08210  Biso   1.000  C
  C32      1.0000 0.79420  0.73340  0.08210  Biso   1.000  C
  C33      1.0000 0.34550  0.88340  0.62660  Biso   1.000  C
  C34      1.0000 0.84550  0.38340  0.62660  Biso   1.000  C
  C35      1.0000 0.65450  0.88340  0.87340  Biso   1.000  C
  C36      1.0000 0.15450  0.38340  0.87340  Biso   1.000  C
  C37      1.0000 0.65450  0.11660  0.37340  Biso   1.000  C
  C38      1.0000 0.15450  0.61660  0.37340  Biso   1.000  C
  C39      1.0000 0.34550  0.11660  0.12660  Biso   1.000  C
  C40      1.0000 0.84550  0.61660  0.12660  Biso   1.000  C
  C41      1.0000 0.41330  0.83560  0.67050  Biso   1.000  C
  C42      1.0000 0.91330  0.33560  0.67050  Biso   1.000  C
  C43      1.0000 0.58670  0.83560  0.82950  Biso   1.000  C
  C44      1.0000 0.08670  0.33560  0.82950  Biso   1.000  C
  C45      1.0000 0.58670  0.16440  0.32950  Biso   1.000  C
  C46      1.0000 0.08670  0.66440  0.32950  Biso   1.000  C
  C47      1.0000 0.41330  0.16440  0.17050  Biso   1.000  C
  C48      1.0000 0.91330  0.66440  0.17050  Biso   1.000  C
  C49      1.0000 0.35180  0.38280  0.44300  Biso   1.000  C
  C50      1.0000 0.85180  0.88280  0.44300  Biso   1.000  C
  C51      1.0000 0.64820  0.38280  0.05700  Biso   1.000  C
  C52      1.0000 0.14820  0.88280  0.05700  Biso   1.000  C
  C53      1.0000 0.64820  0.61720  0.55700  Biso   1.000  C
  C54      1.0000 0.14820  0.11720  0.55700  Biso   1.000  C
  C55      1.0000 0.35180  0.61720  0.94300  Biso   1.000  C
  C56      1.0000 0.85180  0.11720  0.94300  Biso   1.000  C
  C57      1.0000 0.36590  0.38450  0.38540  Biso   1.000  C
  C58      1.0000 0.86590  0.88450  0.38540  Biso   1.000  C
  C59      1.0000 0.63410  0.38450  0.11460  Biso   1.000  C
  C60      1.0000 0.13410  0.88450  0.11460  Biso   1.000  C
  C61      1.0000 0.63410  0.61550  0.61460  Biso   1.000  C
  C62      1.0000 0.13410  0.11550  0.61460  Biso   1.000  C
  C63      1.0000 0.36590  0.61550  0.88540  Biso   1.000  C
  C64      1.0000 0.86590  0.11550  0.88540  Biso   1.000  C
  C65      1.0000 0.30960  0.32960  0.32600  Biso   1.000  C
  C66      1.0000 0.80960  0.82960  0.32600  Biso   1.000  C
  C67      1.0000 0.69040  0.32960  0.17400  Biso   1.000  C
  C68      1.0000 0.19040  0.82960  0.17400  Biso   1.000  C
  C69      1.0000 0.69040  0.67040  0.67400  Biso   1.000  C
  C70      1.0000 0.19040  0.17040  0.67400  Biso   1.000  C
  C71      1.0000 0.30960  0.67040  0.82600  Biso   1.000  C
  C72      1.0000 0.80960  0.17040  0.82600  Biso   1.000  C
  C73      1.0000 0.32400  0.32750  0.27160  Biso   1.000  C
  C74      1.0000 0.82400  0.82750  0.27160  Biso   1.000  C
  C75      1.0000 0.67600  0.32750  0.22840  Biso   1.000  C
  C76      1.0000 0.17600  0.82750  0.22840  Biso   1.000  C
  C77      1.0000 0.67600  0.67250  0.72840  Biso   1.000  C
  C78      1.0000 0.17600  0.17250  0.72840  Biso   1.000  C
  C79      1.0000 0.32400  0.67250  0.77160  Biso   1.000  C
  C80      1.0000 0.82400  0.17250  0.77160  Biso   1.000  C
  C81      1.0000 0.25680  0.26630  0.22320  Biso   1.000  C
  C82      1.0000 0.75680  0.76630  0.22320  Biso   1.000  C
  C83      1.0000 0.74320  0.26630  0.27680  Biso   1.000  C
  C84      1.0000 0.24320  0.76630  0.27680  Biso   1.000  C
  C85      1.0000 0.74320  0.73370  0.77680  Biso   1.000  C
  C86      1.0000 0.24320  0.23370  0.77680  Biso   1.000  C
  C87      1.0000 0.25680  0.73370  0.72320  Biso   1.000  C
  C88      1.0000 0.75680  0.23370  0.72320  Biso   1.000  C
  C89      1.0000 0.20150  0.22500  0.23570  Biso   1.000  C
  C90      1.0000 0.70150  0.72500  0.23570  Biso   1.000  C
  C91      1.0000 0.79850  0.22500  0.26430  Biso   1.000  C
  C92      1.0000 0.29850  0.72500  0.26430  Biso   1.000  C
  C93      1.0000 0.79850  0.77500  0.76430  Biso   1.000  C
  C94      1.0000 0.29850  0.27500  0.76430  Biso   1.000  C
  C95      1.0000 0.20150  0.77500  0.73570  Biso   1.000  C
  C96      1.0000 0.70150  0.27500  0.73570  Biso   1.000  C
  C97      1.0000 0.42910  0.77410  0.50760  Biso   1.000  C
  C98      1.0000 0.92910  0.27410  0.50760  Biso   1.000  C
  C99      1.0000 0.57090  0.77410  0.99240  Biso   1.000  C
  C100     1.0000 0.07090  0.27410  0.99240  Biso   1.000  C
  C101     1.0000 0.57090  0.22590  0.49240  Biso   1.000  C
  C102     1.0000 0.07090  0.72590  0.49240  Biso   1.000  C
  C103     1.0000 0.42910  0.22590  0.00760  Biso   1.000  C
  C104     1.0000 0.92910  0.72590  0.00760  Biso   1.000  C
  C105     1.0000 0.39790  0.91360  0.49110  Biso   1.000  C
  C106     1.0000 0.89790  0.41360  0.49110  Biso   1.000  C
  C107     1.0000 0.60210  0.91360  0.00890  Biso   1.000  C
  C108     1.0000 0.10210  0.41360  0.00890  Biso   1.000  C
  C109     1.0000 0.60210  0.08640  0.50890  Biso   1.000  C
  C110     1.0000 0.10210  0.58640  0.50890  Biso   1.000  C
  C111     1.0000 0.39790  0.08640  0.99110  Biso   1.000  C
  C112     1.0000 0.89790  0.58640  0.99110  Biso   1.000  C
  C113     1.0000 0.39880  0.98330  0.44160  Biso   1.000  C
  C114     1.0000 0.89880  0.48330  0.44160  Biso   1.000  C
  C115     1.0000 0.60120  0.98330  0.05840  Biso   1.000  C
  C116     1.0000 0.10120  0.48330  0.05840  Biso   1.000  C
  C117     1.0000 0.60120  0.01670  0.55840  Biso   1.000  C
  C118     1.0000 0.10120  0.51670  0.55840  Biso   1.000  C
  C119     1.0000 0.39880  0.01670  0.94160  Biso   1.000  C
  C120     1.0000 0.89880  0.51670  0.94160  Biso   1.000  C
  C121     1.0000 0.43280  0.91760  0.40990  Biso   1.000  C
  C122     1.0000 0.93280  0.41760  0.40990  Biso   1.000  C
  C123     1.0000 0.56720  0.91760  0.09010  Biso   1.000  C
  C124     1.0000 0.06720  0.41760  0.09010  Biso   1.000  C
  C125     1.0000 0.56720  0.08240  0.59010  Biso   1.000  C
  C126     1.0000 0.06720  0.58240  0.59010  Biso   1.000  C
  C127     1.0000 0.43280  0.08240  0.90990  Biso   1.000  C
  C128     1.0000 0.93280  0.58240  0.90990  Biso   1.000  C
  C129     1.0000 0.46410  0.77700  0.43020  Biso   1.000  C
  C130     1.0000 0.96410  0.27700  0.43020  Biso   1.000  C
  C131     1.0000 0.53590  0.77700  0.06980  Biso   1.000  C
  C132     1.0000 0.03590  0.27700  0.06980  Biso   1.000  C
  C133     1.0000 0.53590  0.22300  0.56980  Biso   1.000  C
  C134     1.0000 0.03590  0.72300  0.56980  Biso   1.000  C
  C135     1.0000 0.46410  0.22300  0.93020  Biso   1.000  C
  C136     1.0000 0.96410  0.72300  0.93020  Biso   1.000  C
  C137     1.0000 0.43760  0.99100  0.35730  Biso   1.000  C
  C138     1.0000 0.93760  0.49100  0.35730  Biso   1.000  C
  C139     1.0000 0.56240  0.99100  0.14270  Biso   1.000  C
  C140     1.0000 0.06240  0.49100  0.14270  Biso   1.000  C
  C141     1.0000 0.56240  0.00900  0.64270  Biso   1.000  C
  C142     1.0000 0.06240  0.50900  0.64270  Biso   1.000  C
  C143     1.0000 0.43760  0.00900  0.85730  Biso   1.000  C
  C144     1.0000 0.93760  0.50900  0.85730  Biso   1.000  C
  H1       1.0000 0.98730  0.30407  0.21060  Biso   1.000  H
  H2       1.0000 0.48730  0.80407  0.21060  Biso   1.000  H
  H3       1.0000 0.01270  0.30407  0.28940  Biso   1.000  H
  H4       1.0000 0.51270  0.80407  0.28940  Biso   1.000  H
  H5       1.0000 0.01270  0.69593  0.78940  Biso   1.000  H
  H6       1.0000 0.51270  0.19593  0.78940  Biso   1.000  H
  H7       1.0000 0.98730  0.69593  0.71060  Biso   1.000  H
  H8       1.0000 0.48730  0.19593  0.71060  Biso   1.000  H
  H9       1.0000 0.24389  0.77480  0.54809  Biso   1.000  H
  H10      1.0000 0.74389  0.27480  0.54809  Biso   1.000  H
  H11      1.0000 0.75611  0.77480  0.95191  Biso   1.000  H
  H12      1.0000 0.25611  0.27480  0.95191  Biso   1.000  H
  H13      1.0000 0.75611  0.22520  0.45191  Biso   1.000  H
  H14      1.0000 0.25611  0.72520  0.45191  Biso   1.000  H
  H15      1.0000 0.24389  0.22520  0.04809  Biso   1.000  H
  H16      1.0000 0.74389  0.72520  0.04809  Biso   1.000  H
  H17      1.0000 0.33084  0.98575  0.62357  Biso   1.000  H
  H18      1.0000 0.83084  0.48575  0.62357  Biso   1.000  H
  H19      1.0000 0.66916  0.98575  0.87643  Biso   1.000  H
  H20      1.0000 0.16916  0.48575  0.87643  Biso   1.000  H
  H21      1.0000 0.66916  0.01425  0.37643  Biso   1.000  H
  H22      1.0000 0.16916  0.51425  0.37643  Biso   1.000  H
  H23      1.0000 0.33084  0.01425  0.12357  Biso   1.000  H
  H24      1.0000 0.83084  0.51425  0.12357  Biso   1.000  H
  H25      1.0000 0.44904  0.90196  0.70111  Biso   1.000  H
  H26      1.0000 0.94904  0.40196  0.70111  Biso   1.000  H
  H27      1.0000 0.55096  0.90196  0.79889  Biso   1.000  H
  H28      1.0000 0.05096  0.40196  0.79889  Biso   1.000  H
  H29      1.0000 0.55096  0.09804  0.29889  Biso   1.000  H
  H30      1.0000 0.05096  0.59804  0.29889  Biso   1.000  H
  H31      1.0000 0.44904  0.09804  0.20111  Biso   1.000  H
  H32      1.0000 0.94904  0.59804  0.20111  Biso   1.000  H
  H33      1.0000 0.36864  0.36002  0.27029  Biso   1.000  H
  H34      1.0000 0.86864  0.86002  0.27029  Biso   1.000  H
  H35      1.0000 0.63136  0.36002  0.22971  Biso   1.000  H
  H36      1.0000 0.13136  0.86002  0.22971  Biso   1.000  H
  H37      1.0000 0.63136  0.63998  0.72971  Biso   1.000  H
  H38      1.0000 0.13136  0.13998  0.72971  Biso   1.000  H
  H39      1.0000 0.36864  0.63998  0.77029  Biso   1.000  H
  H40      1.0000 0.86864  0.13998  0.77029  Biso   1.000  H
  H41      1.0000 0.25187  0.25454  0.18246  Biso   1.000  H
  H42      1.0000 0.75187  0.75454  0.18246  Biso   1.000  H
  H43      1.0000 0.74813  0.25454  0.31754  Biso   1.000  H
  H44      1.0000 0.24813  0.75454  0.31754  Biso   1.000  H
  H45      1.0000 0.74813  0.74546  0.81754  Biso   1.000  H
  H46      1.0000 0.24813  0.24546  0.81754  Biso   1.000  H
  H47      1.0000 0.25187  0.74546  0.68246  Biso   1.000  H
  H48      1.0000 0.75187  0.24546  0.68246  Biso   1.000  H
  H49      1.0000 0.15503  0.18292  0.20459  Biso   1.000  H
  H50      1.0000 0.65503  0.68292  0.20459  Biso   1.000  H
  H51      1.0000 0.84497  0.18292  0.29541  Biso   1.000  H
  H52      1.0000 0.34497  0.68292  0.29541  Biso   1.000  H
  H53      1.0000 0.84497  0.81708  0.79541  Biso   1.000  H
  H54      1.0000 0.34497  0.31708  0.79541  Biso   1.000  H
  H55      1.0000 0.15503  0.81708  0.70459  Biso   1.000  H
  H56      1.0000 0.65503  0.31708  0.70459  Biso   1.000  H
  H57      1.0000 0.42712  0.72328  0.54133  Biso   1.000  H
  H58      1.0000 0.92712  0.22328  0.54133  Biso   1.000  H
  H59      1.0000 0.57288  0.72328  0.95867  Biso   1.000  H
  H60      1.0000 0.07288  0.22328  0.95867  Biso   1.000  H
  H61      1.0000 0.57288  0.27672  0.45867  Biso   1.000  H
  H62      1.0000 0.07288  0.77672  0.45867  Biso   1.000  H
  H63      1.0000 0.42712  0.27672  0.04133  Biso   1.000  H
  H64      1.0000 0.92712  0.77672  0.04133  Biso   1.000  H
  H65      1.0000 0.37615  0.96107  0.51386  Biso   1.000  H
  H66      1.0000 0.87615  0.46107  0.51386  Biso   1.000  H
  H67      1.0000 0.62385  0.96107  0.98614  Biso   1.000  H
  H68      1.0000 0.12385  0.46107  0.98614  Biso   1.000  H
  H69      1.0000 0.62385  0.03893  0.48614  Biso   1.000  H
  H70      1.0000 0.12385  0.53893  0.48614  Biso   1.000  H
  H71      1.0000 0.37615  0.03893  0.01386  Biso   1.000  H
  H72      1.0000 0.87615  0.53893  0.01386  Biso   1.000  H
  H73      1.0000 0.39093  0.06572  0.43019  Biso   1.000  H
  H74      1.0000 0.89093  0.56572  0.43019  Biso   1.000  H
  H75      1.0000 0.60907  0.06572  0.06981  Biso   1.000  H
  H76      1.0000 0.10907  0.56572  0.06981  Biso   1.000  H
  H77      1.0000 0.60907  0.93428  0.56981  Biso   1.000  H
  H78      1.0000 0.10907  0.43428  0.56981  Biso   1.000  H
  H79      1.0000 0.39093  0.93428  0.93019  Biso   1.000  H
  H80      1.0000 0.89093  0.43428  0.93019  Biso   1.000  H
  H81      1.0000 0.48849  0.72860  0.40965  Biso   1.000  H
  H82      1.0000 0.98849  0.22860  0.40965  Biso   1.000  H
  H83      1.0000 0.51151  0.72860  0.09035  Biso   1.000  H
  H84      1.0000 0.01151  0.22860  0.09035  Biso   1.000  H
  H85      1.0000 0.51151  0.27140  0.59035  Biso   1.000  H
  H86      1.0000 0.01151  0.77140  0.59035  Biso   1.000  H
  H87      1.0000 0.48849  0.27140  0.90965  Biso   1.000  H
  H88      1.0000 0.98849  0.77140  0.90965  Biso   1.000  H
  H89      1.0000 0.49025  0.99923  0.36920  Biso   1.000  H
  H90      1.0000 0.99025  0.49923  0.36920  Biso   1.000  H
  H91      1.0000 0.50975  0.99923  0.13080  Biso   1.000  H
  H92      1.0000 0.00975  0.49923  0.13080  Biso   1.000  H
  H93      1.0000 0.50975  0.00077  0.63080  Biso   1.000  H
  H94      1.0000 0.00975  0.50077  0.63080  Biso   1.000  H
  H95      1.0000 0.49025  0.00077  0.86920  Biso   1.000  H
  H96      1.0000 0.99025  0.50077  0.86920  Biso   1.000  H
  H97      1.0000 0.41365  0.92503  0.32250  Biso   1.000  H
  H98      1.0000 0.91365  0.42503  0.32250  Biso   1.000  H
  H99      1.0000 0.58635  0.92503  0.17750  Biso   1.000  H
  H100     1.0000 0.08635  0.42503  0.17750  Biso   1.000  H
  H101     1.0000 0.58635  0.07497  0.67750  Biso   1.000  H
  H102     1.0000 0.08635  0.57497  0.67750  Biso   1.000  H
  H103     1.0000 0.41365  0.07497  0.82250  Biso   1.000  H
  H104     1.0000 0.91365  0.57497  0.82250  Biso   1.000  H
  H105     1.0000 0.41595  0.08753  0.34290  Biso   1.000  H
  H106     1.0000 0.91595  0.58753  0.34290  Biso   1.000  H
  H107     1.0000 0.58405  0.08753  0.15710  Biso   1.000  H
  H108     1.0000 0.08405  0.58753  0.15710  Biso   1.000  H
  H109     1.0000 0.58405  0.91247  0.65710  Biso   1.000  H
  H110     1.0000 0.08405  0.41247  0.65710  Biso   1.000  H
  H111     1.0000 0.41595  0.91247  0.84290  Biso   1.000  H
  H112     1.0000 0.91595  0.41247  0.84290  Biso   1.000  H
