data_image0
_cell_length_a       10.6144
_cell_length_b       11.2212
_cell_length_c       11.7323
_cell_angle_alpha    90
_cell_angle_beta     105.16
_cell_angle_gamma    90

_symmetry_space_group_name_H-M    "P 1"
_symmetry_int_tables_number       1

loop_
  _symmetry_equiv_pos_as_xyz
  'x, y, z'

loop_
  _atom_site_label
  _atom_site_occupancy
  _atom_site_fract_x
  _atom_site_fract_y
  _atom_site_fract_z
  _atom_site_thermal_displace_type
  _atom_site_B_iso_or_equiv
  _atom_site_type_symbol
  Cu1      1.0000 0.36112  0.75795  0.17031  Biso   1.000  Cu
  Cu2      1.0000 0.63888  0.25795  0.32969  Biso   1.000  Cu
  Cu3      1.0000 0.63888  0.24205  0.82969  Biso   1.000  Cu
  Cu4      1.0000 0.36112  0.74205  0.67031  Biso   1.000  Cu
  S1       1.0000 0.57494  0.71391  0.07534  Biso   1.000  S
  S2       1.0000 0.42506  0.21391  0.42466  Biso   1.000  S
  S3       1.0000 0.42506  0.28609  0.92466  Biso   1.000  S
  S4       1.0000 0.57494  0.78609  0.57534  Biso   1.000  S
  O1       1.0000 0.32090  0.59558  0.20010  Biso   1.000  O
  O2       1.0000 0.67910  0.09558  0.29990  Biso   1.000  O
  O3       1.0000 0.67910  0.40442  0.79990  Biso   1.000  O
  O4       1.0000 0.32090  0.90442  0.70010  Biso   1.000  O
  O5       1.0000 0.04530  0.15420  0.92690  Biso   1.000  O
  O6       1.0000 0.95470  0.65420  0.57310  Biso   1.000  O
  O7       1.0000 0.95470  0.84580  0.07310  Biso   1.000  O
  O8       1.0000 0.04530  0.34580  0.42690  Biso   1.000  O
  O9       1.0000 0.99860  0.28390  0.78840  Biso   1.000  O
  O10      1.0000 0.00140  0.78390  0.71160  Biso   1.000  O
  O11      1.0000 0.00140  0.71610  0.21160  Biso   1.000  O
  O12      1.0000 0.99860  0.21610  0.28840  Biso   1.000  O
  N1       1.0000 0.23740  0.76051  0.01592  Biso   1.000  N
  N2       1.0000 0.76260  0.26051  0.48408  Biso   1.000  N
  N3       1.0000 0.76260  0.23949  0.98408  Biso   1.000  N
  N4       1.0000 0.23740  0.73949  0.51592  Biso   1.000  N
  N5       1.0000 0.37570  0.93550  0.14170  Biso   1.000  N
  N6       1.0000 0.62430  0.43550  0.35830  Biso   1.000  N
  N7       1.0000 0.62430  0.06450  0.85830  Biso   1.000  N
  N8       1.0000 0.37570  0.56450  0.64170  Biso   1.000  N
  N9       1.0000 0.04760  0.25690  0.89090  Biso   1.000  N
  N10      1.0000 0.95240  0.75690  0.60910  Biso   1.000  N
  N11      1.0000 0.95240  0.74310  0.10910  Biso   1.000  N
  N12      1.0000 0.04760  0.24310  0.39090  Biso   1.000  N
  N13      1.0000 0.46060  0.72720  0.83450  Biso   1.000  N
  N14      1.0000 0.53940  0.22720  0.66550  Biso   1.000  N
  N15      1.0000 0.53940  0.27280  0.16550  Biso   1.000  N
  N16      1.0000 0.46060  0.77280  0.33450  Biso   1.000  N
  C1       1.0000 0.18690  0.55020  0.00520  Biso   1.000  C
  C2       1.0000 0.81310  0.05020  0.49480  Biso   1.000  C
  C3       1.0000 0.81310  0.44980  0.99480  Biso   1.000  C
  C4       1.0000 0.18690  0.94980  0.50520  Biso   1.000  C
  C5       1.0000 0.25100  0.52160  0.12620  Biso   1.000  C
  C6       1.0000 0.74900  0.02160  0.37380  Biso   1.000  C
  C7       1.0000 0.74900  0.47840  0.87380  Biso   1.000  C
  C8       1.0000 0.25100  0.97840  0.62620  Biso   1.000  C
  C9       1.0000 0.23210  0.40500  0.16440  Biso   1.000  C
  C10      1.0000 0.76790  0.90500  0.33560  Biso   1.000  C
  C11      1.0000 0.76790  0.59500  0.83560  Biso   1.000  C
  C12      1.0000 0.23210  0.09500  0.66440  Biso   1.000  C
  H1       1.0000 0.26650  0.38590  0.24360  Biso   1.000  H
  H2       1.0000 0.73350  0.88590  0.25640  Biso   1.000  H
  H3       1.0000 0.73350  0.61410  0.75640  Biso   1.000  H
  H4       1.0000 0.26650  0.11410  0.74360  Biso   1.000  H
  C13      1.0000 0.16580  0.31980  0.09000  Biso   1.000  C
  C14      1.0000 0.83420  0.81980  0.41000  Biso   1.000  C
  C15      1.0000 0.83420  0.68020  0.91000  Biso   1.000  C
  C16      1.0000 0.16580  0.18020  0.59000  Biso   1.000  C
  H5       1.0000 0.15580  0.24370  0.11790  Biso   1.000  H
  H6       1.0000 0.84420  0.74370  0.38210  Biso   1.000  H
  H7       1.0000 0.84420  0.75630  0.88210  Biso   1.000  H
  H8       1.0000 0.15580  0.25630  0.61790  Biso   1.000  H
  C17      1.0000 0.11310  0.34820  0.97170  Biso   1.000  C
  C18      1.0000 0.88690  0.84820  0.52830  Biso   1.000  C
  C19      1.0000 0.88690  0.65180  0.02830  Biso   1.000  C
  C20      1.0000 0.11310  0.15180  0.47170  Biso   1.000  C
  C21      1.0000 0.12000  0.46130  0.93080  Biso   1.000  C
  C22      1.0000 0.88000  0.96130  0.56920  Biso   1.000  C
  C23      1.0000 0.88000  0.53870  0.06920  Biso   1.000  C
  C24      1.0000 0.12000  0.03870  0.43080  Biso   1.000  C
  H9       1.0000 0.07950  0.47920  0.85230  Biso   1.000  H
  H10      1.0000 0.92050  0.97920  0.64770  Biso   1.000  H
  H11      1.0000 0.92050  0.52080  0.14770  Biso   1.000  H
  H12      1.0000 0.07950  0.02080  0.35230  Biso   1.000  H
  C25      1.0000 0.18220  0.66890  0.95850  Biso   1.000  C
  C26      1.0000 0.81780  0.16890  0.54150  Biso   1.000  C
  C27      1.0000 0.81780  0.33110  0.04150  Biso   1.000  C
  C28      1.0000 0.18220  0.83110  0.45850  Biso   1.000  C
  H13      1.0000 0.13540  0.68030  0.88040  Biso   1.000  H
  H14      1.0000 0.86460  0.18030  0.61960  Biso   1.000  H
  H15      1.0000 0.86460  0.31970  0.11960  Biso   1.000  H
  H16      1.0000 0.13540  0.81970  0.38040  Biso   1.000  H
  C29      1.0000 0.21560  0.87920  0.96000  Biso   1.000  C
  C30      1.0000 0.78440  0.37920  0.54000  Biso   1.000  C
  C31      1.0000 0.78440  0.12080  0.04000  Biso   1.000  C
  C32      1.0000 0.21560  0.62080  0.46000  Biso   1.000  C
  H17      1.0000 0.13860  0.91580  0.97490  Biso   1.000  H
  H18      1.0000 0.86140  0.41580  0.52510  Biso   1.000  H
  H19      1.0000 0.86140  0.08420  0.02510  Biso   1.000  H
  H20      1.0000 0.13860  0.58420  0.47490  Biso   1.000  H
  H21      1.0000 0.20240  0.87200  0.87530  Biso   1.000  H
  H22      1.0000 0.79760  0.37200  0.62470  Biso   1.000  H
  H23      1.0000 0.79760  0.12800  0.12470  Biso   1.000  H
  H24      1.0000 0.20240  0.62800  0.37530  Biso   1.000  H
  C33      1.0000 0.33410  0.95430  0.01210  Biso   1.000  C
  C34      1.0000 0.66590  0.45430  0.48790  Biso   1.000  C
  C35      1.0000 0.66590  0.04570  0.98790  Biso   1.000  C
  C36      1.0000 0.33410  0.54570  0.51210  Biso   1.000  C
  H25      1.0000 0.40430  0.93230  0.97740  Biso   1.000  H
  H26      1.0000 0.59570  0.43230  0.52260  Biso   1.000  H
  H27      1.0000 0.59570  0.06770  0.02260  Biso   1.000  H
  H28      1.0000 0.40430  0.56770  0.47740  Biso   1.000  H
  H29      1.0000 0.31380  0.03780  0.99500  Biso   1.000  H
  H30      1.0000 0.68620  0.53780  0.50500  Biso   1.000  H
  H31      1.0000 0.68620  0.96220  0.00500  Biso   1.000  H
  H32      1.0000 0.31380  0.46220  0.49500  Biso   1.000  H
  C37      1.0000 0.29830  0.00490  0.20520  Biso   1.000  C
  C38      1.0000 0.70170  0.50490  0.29480  Biso   1.000  C
  C39      1.0000 0.70170  0.99510  0.79480  Biso   1.000  C
  C40      1.0000 0.29830  0.49510  0.70520  Biso   1.000  C
  H33      1.0000 0.30560  0.08820  0.18940  Biso   1.000  H
  H34      1.0000 0.69440  0.58820  0.31060  Biso   1.000  H
  H35      1.0000 0.69440  0.91180  0.81060  Biso   1.000  H
  H36      1.0000 0.30560  0.41180  0.68940  Biso   1.000  H
  H37      1.0000 0.33020  0.99070  0.28850  Biso   1.000  H
  H38      1.0000 0.66980  0.49070  0.21150  Biso   1.000  H
  H39      1.0000 0.66980  0.00930  0.71150  Biso   1.000  H
  H40      1.0000 0.33020  0.50930  0.78850  Biso   1.000  H
  H41      1.0000 0.20840  0.98110  0.17930  Biso   1.000  H
  H42      1.0000 0.79160  0.48110  0.32070  Biso   1.000  H
  H43      1.0000 0.79160  0.01890  0.82070  Biso   1.000  H
  H44      1.0000 0.20840  0.51890  0.67930  Biso   1.000  H
  C41      1.0000 0.50810  0.72040  0.93420  Biso   1.000  C
  C42      1.0000 0.49190  0.22040  0.56580  Biso   1.000  C
  C43      1.0000 0.49190  0.27960  0.06580  Biso   1.000  C
  C44      1.0000 0.50810  0.77960  0.43420  Biso   1.000  C
  H45      1.0000 0.45770  0.96400  0.17100  Biso   1.000  H
  H46      1.0000 0.54230  0.46400  0.32900  Biso   1.000  H
  H47      1.0000 0.54230  0.03600  0.82900  Biso   1.000  H
  H48      1.0000 0.45770  0.53600  0.67100  Biso   1.000  H
