data_image0
_cell_length_a       13.4617
_cell_length_b       13.4617
_cell_length_c       13.4617
_cell_angle_alpha    90
_cell_angle_beta     90
_cell_angle_gamma    90

_symmetry_space_group_name_H-M    "P 1"
_symmetry_int_tables_number       1

loop_
  _symmetry_equiv_pos_as_xyz
  'x, y, z'

loop_
  _atom_site_label
  _atom_site_occupancy
  _atom_site_fract_x
  _atom_site_fract_y
  _atom_site_fract_z
  _atom_site_thermal_displace_type
  _atom_site_B_iso_or_equiv
  _atom_site_type_symbol
  Cu1      1.0000 0.32734  0.50000  0.50000  Biso   1.000  Cu
  Cu2      1.0000 0.67266  0.50000  0.50000  Biso   1.000  Cu
  Cu3      1.0000 0.17266  0.00000  0.00000  Biso   1.000  Cu
  Cu4      1.0000 0.50000  0.67266  0.50000  Biso   1.000  Cu
  Cu5      1.0000 0.50000  0.50000  0.32734  Biso   1.000  Cu
  Cu6      1.0000 0.50000  0.50000  0.67266  Biso   1.000  Cu
  Cu7      1.0000 0.50000  0.32734  0.50000  Biso   1.000  Cu
  Cu8      1.0000 0.00000  0.17266  0.00000  Biso   1.000  Cu
  Cu9      1.0000 0.00000  0.00000  0.82734  Biso   1.000  Cu
  Cu10     1.0000 0.00000  0.00000  0.17266  Biso   1.000  Cu
  Cu11     1.0000 0.00000  0.82734  0.00000  Biso   1.000  Cu
  Cu12     1.0000 0.82734  0.00000  0.00000  Biso   1.000  Cu
  N1       1.0000 0.38810  0.38810  0.31506  Biso   1.000  N
  N2       1.0000 0.61190  0.61190  0.31506  Biso   1.000  N
  N3       1.0000 0.61190  0.68494  0.61190  Biso   1.000  N
  N4       1.0000 0.61190  0.31506  0.38810  Biso   1.000  N
  N5       1.0000 0.61190  0.38810  0.68494  Biso   1.000  N
  N6       1.0000 0.11190  0.11190  0.81506  Biso   1.000  N
  N7       1.0000 0.11190  0.18494  0.11190  Biso   1.000  N
  N8       1.0000 0.11190  0.81506  0.88810  Biso   1.000  N
  N9       1.0000 0.11190  0.88810  0.18494  Biso   1.000  N
  N10      1.0000 0.61190  0.61190  0.68494  Biso   1.000  N
  N11      1.0000 0.61190  0.68494  0.38810  Biso   1.000  N
  N12      1.0000 0.61190  0.31506  0.61190  Biso   1.000  N
  N13      1.0000 0.61190  0.38810  0.31506  Biso   1.000  N
  N14      1.0000 0.11190  0.11190  0.18494  Biso   1.000  N
  N15      1.0000 0.11190  0.18494  0.88810  Biso   1.000  N
  N16      1.0000 0.11190  0.81506  0.11190  Biso   1.000  N
  N17      1.0000 0.11190  0.88810  0.81506  Biso   1.000  N
  N18      1.0000 0.68494  0.61190  0.38810  Biso   1.000  N
  N19      1.0000 0.68494  0.61190  0.61190  Biso   1.000  N
  N20      1.0000 0.68494  0.38810  0.38810  Biso   1.000  N
  N21      1.0000 0.68494  0.38810  0.61190  Biso   1.000  N
  N22      1.0000 0.18494  0.11190  0.88810  Biso   1.000  N
  N23      1.0000 0.18494  0.11190  0.11190  Biso   1.000  N
  N24      1.0000 0.18494  0.88810  0.88810  Biso   1.000  N
  N25      1.0000 0.18494  0.88810  0.11190  Biso   1.000  N
  N26      1.0000 0.31506  0.61190  0.61190  Biso   1.000  N
  N27      1.0000 0.31506  0.61190  0.38810  Biso   1.000  N
  N28      1.0000 0.31506  0.38810  0.61190  Biso   1.000  N
  N29      1.0000 0.31506  0.38810  0.38810  Biso   1.000  N
  N30      1.0000 0.81506  0.11190  0.11190  Biso   1.000  N
  N31      1.0000 0.81506  0.11190  0.88810  Biso   1.000  N
  N32      1.0000 0.81506  0.88810  0.11190  Biso   1.000  N
  N33      1.0000 0.81506  0.88810  0.88810  Biso   1.000  N
  N34      1.0000 0.38810  0.61190  0.31506  Biso   1.000  N
  N35      1.0000 0.38810  0.68494  0.61190  Biso   1.000  N
  N36      1.0000 0.38810  0.31506  0.38810  Biso   1.000  N
  N37      1.0000 0.38810  0.38810  0.68494  Biso   1.000  N
  N38      1.0000 0.88810  0.11190  0.81506  Biso   1.000  N
  N39      1.0000 0.88810  0.18494  0.11190  Biso   1.000  N
  N40      1.0000 0.88810  0.81506  0.88810  Biso   1.000  N
  N41      1.0000 0.88810  0.88810  0.18494  Biso   1.000  N
  N42      1.0000 0.38810  0.61190  0.68494  Biso   1.000  N
  N43      1.0000 0.38810  0.68494  0.38810  Biso   1.000  N
  N44      1.0000 0.38810  0.31506  0.61190  Biso   1.000  N
  N45      1.0000 0.88810  0.11190  0.18494  Biso   1.000  N
  N46      1.0000 0.88810  0.18494  0.88810  Biso   1.000  N
  N47      1.0000 0.88810  0.81506  0.11190  Biso   1.000  N
  N48      1.0000 0.88810  0.88810  0.81506  Biso   1.000  N
  C1       1.0000 0.34775  0.34775  0.23000  Biso   1.000  C
  C2       1.0000 0.65225  0.65225  0.23000  Biso   1.000  C
  C3       1.0000 0.65225  0.77000  0.65225  Biso   1.000  C
  C4       1.0000 0.65225  0.23000  0.34775  Biso   1.000  C
  C5       1.0000 0.65225  0.34775  0.77000  Biso   1.000  C
  C6       1.0000 0.15225  0.15225  0.73000  Biso   1.000  C
  C7       1.0000 0.15225  0.27000  0.15225  Biso   1.000  C
  C8       1.0000 0.15225  0.73000  0.84775  Biso   1.000  C
  C9       1.0000 0.15225  0.84775  0.27000  Biso   1.000  C
  C10      1.0000 0.65225  0.65225  0.77000  Biso   1.000  C
  C11      1.0000 0.65225  0.77000  0.34775  Biso   1.000  C
  C12      1.0000 0.65225  0.23000  0.65225  Biso   1.000  C
  C13      1.0000 0.65225  0.34775  0.23000  Biso   1.000  C
  C14      1.0000 0.15225  0.15225  0.27000  Biso   1.000  C
  C15      1.0000 0.15225  0.27000  0.84775  Biso   1.000  C
  C16      1.0000 0.15225  0.73000  0.15225  Biso   1.000  C
  C17      1.0000 0.15225  0.84775  0.73000  Biso   1.000  C
  C18      1.0000 0.77000  0.65225  0.34775  Biso   1.000  C
  C19      1.0000 0.77000  0.65225  0.65225  Biso   1.000  C
  C20      1.0000 0.77000  0.34775  0.34775  Biso   1.000  C
  C21      1.0000 0.77000  0.34775  0.65225  Biso   1.000  C
  C22      1.0000 0.27000  0.15225  0.84775  Biso   1.000  C
  C23      1.0000 0.27000  0.15225  0.15225  Biso   1.000  C
  C24      1.0000 0.27000  0.84775  0.84775  Biso   1.000  C
  C25      1.0000 0.27000  0.84775  0.15225  Biso   1.000  C
  C26      1.0000 0.23000  0.65225  0.65225  Biso   1.000  C
  C27      1.0000 0.23000  0.65225  0.34775  Biso   1.000  C
  C28      1.0000 0.23000  0.34775  0.65225  Biso   1.000  C
  C29      1.0000 0.23000  0.34775  0.34775  Biso   1.000  C
  C30      1.0000 0.73000  0.15225  0.15225  Biso   1.000  C
  C31      1.0000 0.73000  0.15225  0.84775  Biso   1.000  C
  C32      1.0000 0.73000  0.84775  0.15225  Biso   1.000  C
  C33      1.0000 0.73000  0.84775  0.84775  Biso   1.000  C
  C34      1.0000 0.34775  0.65225  0.23000  Biso   1.000  C
  C35      1.0000 0.34775  0.77000  0.65225  Biso   1.000  C
  C36      1.0000 0.34775  0.23000  0.34775  Biso   1.000  C
  C37      1.0000 0.34775  0.34775  0.77000  Biso   1.000  C
  C38      1.0000 0.84775  0.15225  0.73000  Biso   1.000  C
  C39      1.0000 0.84775  0.27000  0.15225  Biso   1.000  C
  C40      1.0000 0.84775  0.73000  0.84775  Biso   1.000  C
  C41      1.0000 0.84775  0.84775  0.27000  Biso   1.000  C
  C42      1.0000 0.34775  0.65225  0.77000  Biso   1.000  C
  C43      1.0000 0.34775  0.77000  0.34775  Biso   1.000  C
  C44      1.0000 0.34775  0.23000  0.65225  Biso   1.000  C
  C45      1.0000 0.84775  0.15225  0.27000  Biso   1.000  C
  C46      1.0000 0.84775  0.27000  0.84775  Biso   1.000  C
  C47      1.0000 0.84775  0.73000  0.15225  Biso   1.000  C
  C48      1.0000 0.84775  0.84775  0.73000  Biso   1.000  C
  C49      1.0000 0.36000  0.36000  0.12422  Biso   1.000  C
  C50      1.0000 0.64000  0.64000  0.12422  Biso   1.000  C
  C51      1.0000 0.64000  0.87578  0.64000  Biso   1.000  C
  C52      1.0000 0.64000  0.12422  0.36000  Biso   1.000  C
  C53      1.0000 0.64000  0.36000  0.87578  Biso   1.000  C
  C54      1.0000 0.14000  0.14000  0.62422  Biso   1.000  C
  C55      1.0000 0.14000  0.37578  0.14000  Biso   1.000  C
  C56      1.0000 0.14000  0.62422  0.86000  Biso   1.000  C
  C57      1.0000 0.14000  0.86000  0.37578  Biso   1.000  C
  C58      1.0000 0.64000  0.64000  0.87578  Biso   1.000  C
  C59      1.0000 0.64000  0.87578  0.36000  Biso   1.000  C
  C60      1.0000 0.64000  0.12422  0.64000  Biso   1.000  C
  C61      1.0000 0.64000  0.36000  0.12422  Biso   1.000  C
  C62      1.0000 0.14000  0.14000  0.37578  Biso   1.000  C
  C63      1.0000 0.14000  0.37578  0.86000  Biso   1.000  C
  C64      1.0000 0.14000  0.62422  0.14000  Biso   1.000  C
  C65      1.0000 0.14000  0.86000  0.62422  Biso   1.000  C
  C66      1.0000 0.87578  0.64000  0.36000  Biso   1.000  C
  C67      1.0000 0.87578  0.64000  0.64000  Biso   1.000  C
  C68      1.0000 0.87578  0.36000  0.36000  Biso   1.000  C
  C69      1.0000 0.87578  0.36000  0.64000  Biso   1.000  C
  C70      1.0000 0.37578  0.14000  0.86000  Biso   1.000  C
  C71      1.0000 0.37578  0.14000  0.14000  Biso   1.000  C
  C72      1.0000 0.37578  0.86000  0.86000  Biso   1.000  C
  C73      1.0000 0.37578  0.86000  0.14000  Biso   1.000  C
  C74      1.0000 0.12422  0.64000  0.64000  Biso   1.000  C
  C75      1.0000 0.12422  0.64000  0.36000  Biso   1.000  C
  C76      1.0000 0.12422  0.36000  0.64000  Biso   1.000  C
  C77      1.0000 0.12422  0.36000  0.36000  Biso   1.000  C
  C78      1.0000 0.62422  0.14000  0.14000  Biso   1.000  C
  C79      1.0000 0.62422  0.14000  0.86000  Biso   1.000  C
  C80      1.0000 0.62422  0.86000  0.14000  Biso   1.000  C
  C81      1.0000 0.62422  0.86000  0.86000  Biso   1.000  C
  C82      1.0000 0.36000  0.64000  0.12422  Biso   1.000  C
  C83      1.0000 0.36000  0.87578  0.64000  Biso   1.000  C
  C84      1.0000 0.36000  0.12422  0.36000  Biso   1.000  C
  C85      1.0000 0.36000  0.36000  0.87578  Biso   1.000  C
  C86      1.0000 0.86000  0.14000  0.62422  Biso   1.000  C
  C87      1.0000 0.86000  0.37578  0.14000  Biso   1.000  C
  C88      1.0000 0.86000  0.62422  0.86000  Biso   1.000  C
  C89      1.0000 0.86000  0.86000  0.37578  Biso   1.000  C
  C90      1.0000 0.36000  0.64000  0.87578  Biso   1.000  C
  C91      1.0000 0.36000  0.87578  0.36000  Biso   1.000  C
  C92      1.0000 0.36000  0.12422  0.64000  Biso   1.000  C
  C93      1.0000 0.86000  0.14000  0.37578  Biso   1.000  C
  C94      1.0000 0.86000  0.37578  0.86000  Biso   1.000  C
  C95      1.0000 0.86000  0.62422  0.14000  Biso   1.000  C
  C96      1.0000 0.86000  0.86000  0.62422  Biso   1.000  C
  C97      1.0000 0.28100  0.28100  0.28100  Biso   1.000  C
  C98      1.0000 0.71900  0.71900  0.28100  Biso   1.000  C
  C99      1.0000 0.71900  0.71900  0.71900  Biso   1.000  C
  C100     1.0000 0.71900  0.28100  0.28100  Biso   1.000  C
  C101     1.0000 0.71900  0.28100  0.71900  Biso   1.000  C
  C102     1.0000 0.21900  0.21900  0.78100  Biso   1.000  C
  C103     1.0000 0.21900  0.21900  0.21900  Biso   1.000  C
  C104     1.0000 0.21900  0.78100  0.78100  Biso   1.000  C
  C105     1.0000 0.21900  0.78100  0.21900  Biso   1.000  C
  C106     1.0000 0.28100  0.71900  0.71900  Biso   1.000  C
  C107     1.0000 0.28100  0.71900  0.28100  Biso   1.000  C
  C108     1.0000 0.28100  0.28100  0.71900  Biso   1.000  C
  C109     1.0000 0.78100  0.21900  0.21900  Biso   1.000  C
  C110     1.0000 0.78100  0.21900  0.78100  Biso   1.000  C
  C111     1.0000 0.78100  0.78100  0.21900  Biso   1.000  C
  C112     1.0000 0.78100  0.78100  0.78100  Biso   1.000  C
