data_image0
_cell_length_a       20.324
_cell_length_b       12.057
_cell_length_c       7.4706
_cell_angle_alpha    90
_cell_angle_beta     90
_cell_angle_gamma    90

_symmetry_space_group_name_H-M    "P 1"
_symmetry_int_tables_number       1

loop_
  _symmetry_equiv_pos_as_xyz
  'x, y, z'

loop_
  _atom_site_label
  _atom_site_occupancy
  _atom_site_fract_x
  _atom_site_fract_y
  _atom_site_fract_z
  _atom_site_thermal_displace_type
  _atom_site_B_iso_or_equiv
  _atom_site_type_symbol
  Cu1      1.0000 0.36820  0.95906  0.68172  Biso   1.000  Cu
  Cu2      1.0000 0.13180  0.04094  0.68172  Biso   1.000  Cu
  Cu3      1.0000 0.13180  0.45906  0.81828  Biso   1.000  Cu
  Cu4      1.0000 0.36820  0.54094  0.81828  Biso   1.000  Cu
  Cu5      1.0000 0.63180  0.04094  0.31828  Biso   1.000  Cu
  Cu6      1.0000 0.86820  0.95906  0.31828  Biso   1.000  Cu
  Cu7      1.0000 0.86820  0.54094  0.18172  Biso   1.000  Cu
  Cu8      1.0000 0.63180  0.45906  0.18172  Biso   1.000  Cu
  O1       1.0000 0.32674  0.22250  0.98210  Biso   1.000  O
  O2       1.0000 0.17326  0.77750  0.98210  Biso   1.000  O
  O3       1.0000 0.17326  0.72250  0.51790  Biso   1.000  O
  O4       1.0000 0.32674  0.27750  0.51790  Biso   1.000  O
  O5       1.0000 0.67326  0.77750  0.01790  Biso   1.000  O
  O6       1.0000 0.82674  0.22250  0.01790  Biso   1.000  O
  O7       1.0000 0.82674  0.27750  0.48210  Biso   1.000  O
  O8       1.0000 0.67326  0.72250  0.48210  Biso   1.000  O
  O9       1.0000 0.75000  0.50000  0.68530  Biso   1.000  O
  O10      1.0000 0.75000  0.00000  0.81470  Biso   1.000  O
  O11      1.0000 0.25000  0.50000  0.31470  Biso   1.000  O
  O12      1.0000 0.25000  0.00000  0.18530  Biso   1.000  O
  H1       1.0000 0.75900  0.55130  0.60970  Biso   1.000  H
  H2       1.0000 0.74100  0.44870  0.60970  Biso   1.000  H
  H3       1.0000 0.74100  0.05130  0.89030  Biso   1.000  H
  H4       1.0000 0.75900  0.94870  0.89030  Biso   1.000  H
  H5       1.0000 0.24100  0.44870  0.39030  Biso   1.000  H
  H6       1.0000 0.25900  0.55130  0.39030  Biso   1.000  H
  H7       1.0000 0.25900  0.94870  0.10970  Biso   1.000  H
  H8       1.0000 0.24100  0.05130  0.10970  Biso   1.000  H
  O13      1.0000 0.72430  0.25000  0.75000  Biso   1.000  O
  O14      1.0000 0.77570  0.75000  0.75000  Biso   1.000  O
  O15      1.0000 0.27570  0.75000  0.25000  Biso   1.000  O
  O16      1.0000 0.22430  0.25000  0.25000  Biso   1.000  O
  H9       1.0000 0.75130  0.23790  0.84230  Biso   1.000  H
  H10      1.0000 0.74870  0.76210  0.84230  Biso   1.000  H
  H11      1.0000 0.74870  0.73790  0.65770  Biso   1.000  H
  H12      1.0000 0.75130  0.26210  0.65770  Biso   1.000  H
  H13      1.0000 0.24870  0.76210  0.15770  Biso   1.000  H
  H14      1.0000 0.25130  0.23790  0.15770  Biso   1.000  H
  H15      1.0000 0.25130  0.26210  0.34230  Biso   1.000  H
  H16      1.0000 0.24870  0.73790  0.34230  Biso   1.000  H
  O17      1.0000 0.31742  0.06710  0.82190  Biso   1.000  O
  O18      1.0000 0.18258  0.93290  0.82190  Biso   1.000  O
  O19      1.0000 0.18258  0.56710  0.67810  Biso   1.000  O
  O20      1.0000 0.31742  0.43290  0.67810  Biso   1.000  O
  O21      1.0000 0.68258  0.93290  0.17810  Biso   1.000  O
  O22      1.0000 0.81742  0.06710  0.17810  Biso   1.000  O
  O23      1.0000 0.81742  0.43290  0.32190  Biso   1.000  O
  O24      1.0000 0.68258  0.56710  0.32190  Biso   1.000  O
  O25      1.0000 0.57268  0.34540  0.08400  Biso   1.000  O
  O26      1.0000 0.92732  0.65460  0.08400  Biso   1.000  O
  O27      1.0000 0.92732  0.84540  0.41600  Biso   1.000  O
  O28      1.0000 0.57268  0.15460  0.41600  Biso   1.000  O
  O29      1.0000 0.42732  0.65460  0.91600  Biso   1.000  O
  O30      1.0000 0.07268  0.34540  0.91600  Biso   1.000  O
  O31      1.0000 0.07268  0.15460  0.58400  Biso   1.000  O
  O32      1.0000 0.42732  0.84540  0.58400  Biso   1.000  O
  O33      1.0000 0.64410  0.20530  0.04320  Biso   1.000  O
  O34      1.0000 0.85590  0.79470  0.04320  Biso   1.000  O
  O35      1.0000 0.85590  0.70530  0.45680  Biso   1.000  O
  O36      1.0000 0.64410  0.29470  0.45680  Biso   1.000  O
  O37      1.0000 0.35590  0.79470  0.95680  Biso   1.000  O
  O38      1.0000 0.14410  0.20530  0.95680  Biso   1.000  O
  O39      1.0000 0.14410  0.29470  0.54320  Biso   1.000  O
  O40      1.0000 0.35590  0.70530  0.54320  Biso   1.000  O
  O41      1.0000 0.35862  0.06310  0.41870  Biso   1.000  O
  O42      1.0000 0.14138  0.93690  0.41870  Biso   1.000  O
  O43      1.0000 0.14138  0.56310  0.08130  Biso   1.000  O
  O44      1.0000 0.35862  0.43690  0.08130  Biso   1.000  O
  O45      1.0000 0.64138  0.93690  0.58130  Biso   1.000  O
  O46      1.0000 0.85862  0.06310  0.58130  Biso   1.000  O
  O47      1.0000 0.85862  0.43690  0.91870  Biso   1.000  O
  O48      1.0000 0.64138  0.56310  0.91870  Biso   1.000  O
  H17      1.0000 0.34650  0.12820  0.43400  Biso   1.000  H
  H18      1.0000 0.15350  0.87180  0.43400  Biso   1.000  H
  H19      1.0000 0.15350  0.62820  0.06600  Biso   1.000  H
  H20      1.0000 0.34650  0.37180  0.06600  Biso   1.000  H
  H21      1.0000 0.65350  0.87180  0.56600  Biso   1.000  H
  H22      1.0000 0.84650  0.12820  0.56600  Biso   1.000  H
  H23      1.0000 0.84650  0.37180  0.93400  Biso   1.000  H
  H24      1.0000 0.65350  0.62820  0.93400  Biso   1.000  H
  H25      1.0000 0.32500  0.06000  0.35800  Biso   1.000  H
  H26      1.0000 0.17500  0.94000  0.35800  Biso   1.000  H
  H27      1.0000 0.17500  0.56000  0.14200  Biso   1.000  H
  H28      1.0000 0.32500  0.44000  0.14200  Biso   1.000  H
  H29      1.0000 0.67500  0.94000  0.64200  Biso   1.000  H
  H30      1.0000 0.82500  0.06000  0.64200  Biso   1.000  H
  H31      1.0000 0.82500  0.44000  0.85800  Biso   1.000  H
  H32      1.0000 0.67500  0.56000  0.85800  Biso   1.000  H
  O49      1.0000 0.28811  0.88480  0.61220  Biso   1.000  O
  O50      1.0000 0.21189  0.11520  0.61220  Biso   1.000  O
  O51      1.0000 0.21189  0.38480  0.88780  Biso   1.000  O
  O52      1.0000 0.28811  0.61520  0.88780  Biso   1.000  O
  O53      1.0000 0.71189  0.11520  0.38780  Biso   1.000  O
  O54      1.0000 0.78811  0.88480  0.38780  Biso   1.000  O
  O55      1.0000 0.78811  0.61520  0.11220  Biso   1.000  O
  O56      1.0000 0.71189  0.38480  0.11220  Biso   1.000  O
  H33      1.0000 0.29510  0.81760  0.60600  Biso   1.000  H
  H34      1.0000 0.20490  0.18240  0.60600  Biso   1.000  H
  H35      1.0000 0.20490  0.31760  0.89400  Biso   1.000  H
  H36      1.0000 0.29510  0.68240  0.89400  Biso   1.000  H
  H37      1.0000 0.70490  0.18240  0.39400  Biso   1.000  H
  H38      1.0000 0.79510  0.81760  0.39400  Biso   1.000  H
  H39      1.0000 0.79510  0.68240  0.10600  Biso   1.000  H
  H40      1.0000 0.70490  0.31760  0.10600  Biso   1.000  H
  H41      1.0000 0.26060  0.87100  0.68800  Biso   1.000  H
  H42      1.0000 0.23940  0.12900  0.68800  Biso   1.000  H
  H43      1.0000 0.23940  0.37100  0.81200  Biso   1.000  H
  H44      1.0000 0.26060  0.62900  0.81200  Biso   1.000  H
  H45      1.0000 0.73940  0.12900  0.31200  Biso   1.000  H
  H46      1.0000 0.76060  0.87100  0.31200  Biso   1.000  H
  H47      1.0000 0.76060  0.62900  0.18800  Biso   1.000  H
  H48      1.0000 0.73940  0.37100  0.18800  Biso   1.000  H
  N1       1.0000 0.44252  0.04640  0.77840  Biso   1.000  N
  N2       1.0000 0.05748  0.95360  0.77840  Biso   1.000  N
  N3       1.0000 0.05748  0.54640  0.72160  Biso   1.000  N
  N4       1.0000 0.44252  0.45360  0.72160  Biso   1.000  N
  N5       1.0000 0.55748  0.95360  0.22160  Biso   1.000  N
  N6       1.0000 0.94252  0.04640  0.22160  Biso   1.000  N
  N7       1.0000 0.94252  0.45360  0.27840  Biso   1.000  N
  N8       1.0000 0.55748  0.54640  0.27840  Biso   1.000  N
  C1       1.0000 0.42427  0.13190  0.88520  Biso   1.000  C
  C2       1.0000 0.07573  0.86810  0.88520  Biso   1.000  C
  C3       1.0000 0.07573  0.63190  0.61480  Biso   1.000  C
  C4       1.0000 0.42427  0.36810  0.61480  Biso   1.000  C
  C5       1.0000 0.57573  0.86810  0.11480  Biso   1.000  C
  C6       1.0000 0.92427  0.13190  0.11480  Biso   1.000  C
  C7       1.0000 0.92427  0.36810  0.38520  Biso   1.000  C
  C8       1.0000 0.57573  0.63190  0.38520  Biso   1.000  C
  C9       1.0000 0.46900  0.20090  0.96900  Biso   1.000  C
  C10      1.0000 0.03100  0.79910  0.96900  Biso   1.000  C
  C11      1.0000 0.03100  0.70090  0.53100  Biso   1.000  C
  C12      1.0000 0.46900  0.29910  0.53100  Biso   1.000  C
  C13      1.0000 0.53100  0.79910  0.03100  Biso   1.000  C
  C14      1.0000 0.96900  0.20090  0.03100  Biso   1.000  C
  C15      1.0000 0.96900  0.29910  0.46900  Biso   1.000  C
  C16      1.0000 0.53100  0.70090  0.46900  Biso   1.000  C
  H49      1.0000 0.45460  0.26140  0.04070  Biso   1.000  H
  H50      1.0000 0.04540  0.73860  0.04070  Biso   1.000  H
  H51      1.0000 0.04540  0.76140  0.45930  Biso   1.000  H
  H52      1.0000 0.45460  0.23860  0.45930  Biso   1.000  H
  H53      1.0000 0.54540  0.73860  0.95930  Biso   1.000  H
  H54      1.0000 0.95460  0.26140  0.95930  Biso   1.000  H
  H55      1.0000 0.95460  0.23860  0.54070  Biso   1.000  H
  H56      1.0000 0.54540  0.76140  0.54070  Biso   1.000  H
  C17      1.0000 0.53563  0.17960  0.94540  Biso   1.000  C
  C18      1.0000 0.96437  0.82040  0.94540  Biso   1.000  C
  C19      1.0000 0.96437  0.67960  0.55460  Biso   1.000  C
  C20      1.0000 0.53563  0.32040  0.55460  Biso   1.000  C
  C21      1.0000 0.46437  0.82040  0.05460  Biso   1.000  C
  C22      1.0000 0.03563  0.17960  0.05460  Biso   1.000  C
  C23      1.0000 0.03563  0.32040  0.44540  Biso   1.000  C
  C24      1.0000 0.46437  0.67960  0.44540  Biso   1.000  C
  C25      1.0000 0.55445  0.09210  0.83700  Biso   1.000  C
  C26      1.0000 0.94555  0.90790  0.83700  Biso   1.000  C
  C27      1.0000 0.94555  0.59210  0.66300  Biso   1.000  C
  C28      1.0000 0.55445  0.40790  0.66300  Biso   1.000  C
  C29      1.0000 0.44555  0.90790  0.16300  Biso   1.000  C
  C30      1.0000 0.05445  0.09210  0.16300  Biso   1.000  C
  C31      1.0000 0.05445  0.40790  0.33700  Biso   1.000  C
  C32      1.0000 0.44555  0.59210  0.33700  Biso   1.000  C
  H57      1.0000 0.59970  0.07660  0.81880  Biso   1.000  H
  H58      1.0000 0.90030  0.92340  0.81880  Biso   1.000  H
  H59      1.0000 0.90030  0.57660  0.68120  Biso   1.000  H
  H60      1.0000 0.59970  0.42340  0.68120  Biso   1.000  H
  H61      1.0000 0.40030  0.92340  0.18120  Biso   1.000  H
  H62      1.0000 0.09970  0.07660  0.18120  Biso   1.000  H
  H63      1.0000 0.09970  0.42340  0.31880  Biso   1.000  H
  H64      1.0000 0.40030  0.57660  0.31880  Biso   1.000  H
  C33      1.0000 0.50722  0.02760  0.75560  Biso   1.000  C
  C34      1.0000 0.99278  0.97240  0.75560  Biso   1.000  C
  C35      1.0000 0.99278  0.52760  0.74440  Biso   1.000  C
  C36      1.0000 0.50722  0.47240  0.74440  Biso   1.000  C
  C37      1.0000 0.49278  0.97240  0.24440  Biso   1.000  C
  C38      1.0000 0.00722  0.02760  0.24440  Biso   1.000  C
  C39      1.0000 0.00722  0.47240  0.25560  Biso   1.000  C
  C40      1.0000 0.49278  0.52760  0.25560  Biso   1.000  C
  H65      1.0000 0.52070  0.96790  0.68080  Biso   1.000  H
  H66      1.0000 0.97930  0.03210  0.68080  Biso   1.000  H
  H67      1.0000 0.97930  0.46790  0.81920  Biso   1.000  H
  H68      1.0000 0.52070  0.53210  0.81920  Biso   1.000  H
  H69      1.0000 0.47930  0.03210  0.31920  Biso   1.000  H
  H70      1.0000 0.02070  0.96790  0.31920  Biso   1.000  H
  H71      1.0000 0.02070  0.53210  0.18080  Biso   1.000  H
  H72      1.0000 0.47930  0.46790  0.18080  Biso   1.000  H
  C41      1.0000 0.35013  0.14400  0.90100  Biso   1.000  C
  C42      1.0000 0.14987  0.85600  0.90100  Biso   1.000  C
  C43      1.0000 0.14987  0.64400  0.59900  Biso   1.000  C
  C44      1.0000 0.35013  0.35600  0.59900  Biso   1.000  C
  C45      1.0000 0.64987  0.85600  0.09900  Biso   1.000  C
  C46      1.0000 0.85013  0.14400  0.09900  Biso   1.000  C
  C47      1.0000 0.85013  0.35600  0.40100  Biso   1.000  C
  C48      1.0000 0.64987  0.64400  0.40100  Biso   1.000  C
  C49      1.0000 0.58945  0.24890  0.03170  Biso   1.000  C
  C50      1.0000 0.91055  0.75110  0.03170  Biso   1.000  C
  C51      1.0000 0.91055  0.74890  0.46830  Biso   1.000  C
  C52      1.0000 0.58945  0.25110  0.46830  Biso   1.000  C
  C53      1.0000 0.41055  0.75110  0.96830  Biso   1.000  C
  C54      1.0000 0.08945  0.24890  0.96830  Biso   1.000  C
  C55      1.0000 0.08945  0.25110  0.53170  Biso   1.000  C
  C56      1.0000 0.41055  0.74890  0.53170  Biso   1.000  C
