data_image0
_cell_length_a       24.602
_cell_length_b       7.849
_cell_length_c       15.711
_cell_angle_alpha    90
_cell_angle_beta     97.97
_cell_angle_gamma    90

_symmetry_space_group_name_H-M    "P 1"
_symmetry_int_tables_number       1

loop_
  _symmetry_equiv_pos_as_xyz
  'x, y, z'

loop_
  _atom_site_label
  _atom_site_occupancy
  _atom_site_fract_x
  _atom_site_fract_y
  _atom_site_fract_z
  _atom_site_thermal_displace_type
  _atom_site_B_iso_or_equiv
  _atom_site_type_symbol
  Cu1      1.0000 0.47549  0.07524  0.75761  Biso   1.000  Cu
  Cu2      1.0000 0.97549  0.57524  0.25761  Biso   1.000  Cu
  Cu3      1.0000 0.97549  0.92476  0.75761  Biso   1.000  Cu
  Cu4      1.0000 0.47549  0.42476  0.25761  Biso   1.000  Cu
  Cu5      1.0000 0.52451  0.92476  0.24239  Biso   1.000  Cu
  Cu6      1.0000 0.02451  0.42476  0.74239  Biso   1.000  Cu
  Cu7      1.0000 0.02451  0.07524  0.24239  Biso   1.000  Cu
  Cu8      1.0000 0.52451  0.57524  0.74239  Biso   1.000  Cu
  N1       1.0000 0.48640  0.07810  0.88670  Biso   1.000  N
  N2       1.0000 0.98640  0.57810  0.38670  Biso   1.000  N
  N3       1.0000 0.98640  0.92190  0.88670  Biso   1.000  N
  N4       1.0000 0.48640  0.42190  0.38670  Biso   1.000  N
  N5       1.0000 0.51360  0.92190  0.11330  Biso   1.000  N
  N6       1.0000 0.01360  0.42190  0.61330  Biso   1.000  N
  N7       1.0000 0.01360  0.07810  0.11330  Biso   1.000  N
  N8       1.0000 0.51360  0.57810  0.61330  Biso   1.000  N
  N9       1.0000 0.40340  0.18540  0.76710  Biso   1.000  N
  N10      1.0000 0.90340  0.68540  0.26710  Biso   1.000  N
  N11      1.0000 0.90340  0.81460  0.76710  Biso   1.000  N
  N12      1.0000 0.40340  0.31460  0.26710  Biso   1.000  N
  N13      1.0000 0.59660  0.81460  0.23290  Biso   1.000  N
  N14      1.0000 0.09660  0.31460  0.73290  Biso   1.000  N
  N15      1.0000 0.09660  0.18540  0.23290  Biso   1.000  N
  N16      1.0000 0.59660  0.68540  0.73290  Biso   1.000  N
  N17      1.0000 0.44810  0.06590  0.63090  Biso   1.000  N
  N18      1.0000 0.94810  0.56590  0.13090  Biso   1.000  N
  N19      1.0000 0.94810  0.93410  0.63090  Biso   1.000  N
  N20      1.0000 0.44810  0.43410  0.13090  Biso   1.000  N
  N21      1.0000 0.55190  0.93410  0.36910  Biso   1.000  N
  N22      1.0000 0.05190  0.43410  0.86910  Biso   1.000  N
  N23      1.0000 0.05190  0.06590  0.36910  Biso   1.000  N
  N24      1.0000 0.55190  0.56590  0.86910  Biso   1.000  N
  O1       1.0000 0.44030  0.80030  0.76340  Biso   1.000  O
  O2       1.0000 0.94030  0.30030  0.26340  Biso   1.000  O
  O3       1.0000 0.94030  0.19970  0.76340  Biso   1.000  O
  O4       1.0000 0.44030  0.69970  0.26340  Biso   1.000  O
  O5       1.0000 0.55970  0.19970  0.23660  Biso   1.000  O
  O6       1.0000 0.05970  0.69970  0.73660  Biso   1.000  O
  O7       1.0000 0.05970  0.80030  0.23660  Biso   1.000  O
  O8       1.0000 0.55970  0.30030  0.73660  Biso   1.000  O
  O9       1.0000 0.44876  0.51930  0.76080  Biso   1.000  O
  O10      1.0000 0.94876  0.01930  0.26080  Biso   1.000  O
  O11      1.0000 0.94876  0.48070  0.76080  Biso   1.000  O
  O12      1.0000 0.44876  0.98070  0.26080  Biso   1.000  O
  O13      1.0000 0.55124  0.48070  0.23920  Biso   1.000  O
  O14      1.0000 0.05124  0.98070  0.73920  Biso   1.000  O
  O15      1.0000 0.05124  0.51930  0.23920  Biso   1.000  O
  O16      1.0000 0.55124  0.01930  0.73920  Biso   1.000  O
  O17      1.0000 0.45902  0.70600  0.94560  Biso   1.000  O
  O18      1.0000 0.95902  0.20600  0.44560  Biso   1.000  O
  O19      1.0000 0.95902  0.29400  0.94560  Biso   1.000  O
  O20      1.0000 0.45902  0.79400  0.44560  Biso   1.000  O
  O21      1.0000 0.54098  0.29400  0.05440  Biso   1.000  O
  O22      1.0000 0.04098  0.79400  0.55440  Biso   1.000  O
  O23      1.0000 0.04098  0.70600  0.05440  Biso   1.000  O
  O24      1.0000 0.54098  0.20600  0.55440  Biso   1.000  O
  O25      1.0000 0.40110  0.77430  0.03410  Biso   1.000  O
  O26      1.0000 0.90110  0.27430  0.53410  Biso   1.000  O
  O27      1.0000 0.90110  0.22570  0.03410  Biso   1.000  O
  O28      1.0000 0.40110  0.72570  0.53410  Biso   1.000  O
  O29      1.0000 0.59890  0.22570  0.96590  Biso   1.000  O
  O30      1.0000 0.09890  0.72570  0.46590  Biso   1.000  O
  O31      1.0000 0.09890  0.77430  0.96590  Biso   1.000  O
  O32      1.0000 0.59890  0.27430  0.46590  Biso   1.000  O
  C1       1.0000 0.44020  0.16840  0.91680  Biso   1.000  C
  C2       1.0000 0.94020  0.66840  0.41680  Biso   1.000  C
  C3       1.0000 0.94020  0.83160  0.91680  Biso   1.000  C
  C4       1.0000 0.44020  0.33160  0.41680  Biso   1.000  C
  C5       1.0000 0.55980  0.83160  0.08320  Biso   1.000  C
  C6       1.0000 0.05980  0.33160  0.58320  Biso   1.000  C
  C7       1.0000 0.05980  0.16840  0.08320  Biso   1.000  C
  C8       1.0000 0.55980  0.66840  0.58320  Biso   1.000  C
  C9       1.0000 0.38830  0.14350  0.85190  Biso   1.000  C
  C10      1.0000 0.88830  0.64350  0.35190  Biso   1.000  C
  C11      1.0000 0.88830  0.85650  0.85190  Biso   1.000  C
  C12      1.0000 0.38830  0.35650  0.35190  Biso   1.000  C
  C13      1.0000 0.61170  0.85650  0.14810  Biso   1.000  C
  C14      1.0000 0.11170  0.35650  0.64810  Biso   1.000  C
  C15      1.0000 0.11170  0.14350  0.14810  Biso   1.000  C
  C16      1.0000 0.61170  0.64350  0.64810  Biso   1.000  C
  C17      1.0000 0.36490  0.13660  0.69040  Biso   1.000  C
  C18      1.0000 0.86490  0.63660  0.19040  Biso   1.000  C
  C19      1.0000 0.86490  0.86340  0.69040  Biso   1.000  C
  C20      1.0000 0.36490  0.36340  0.19040  Biso   1.000  C
  C21      1.0000 0.63510  0.86340  0.30960  Biso   1.000  C
  C22      1.0000 0.13510  0.36340  0.80960  Biso   1.000  C
  C23      1.0000 0.13510  0.13660  0.30960  Biso   1.000  C
  C24      1.0000 0.63510  0.63660  0.80960  Biso   1.000  C
  C25      1.0000 0.39590  0.16050  0.61390  Biso   1.000  C
  C26      1.0000 0.89590  0.66050  0.11390  Biso   1.000  C
  C27      1.0000 0.89590  0.83950  0.61390  Biso   1.000  C
  C28      1.0000 0.39590  0.33950  0.11390  Biso   1.000  C
  C29      1.0000 0.60410  0.83950  0.38610  Biso   1.000  C
  C30      1.0000 0.10410  0.33950  0.88610  Biso   1.000  C
  C31      1.0000 0.10410  0.16050  0.38610  Biso   1.000  C
  C32      1.0000 0.60410  0.66050  0.88610  Biso   1.000  C
  C33      1.0000 0.42410  0.65510  0.77710  Biso   1.000  C
  C34      1.0000 0.92410  0.15510  0.27710  Biso   1.000  C
  C35      1.0000 0.92410  0.34490  0.77710  Biso   1.000  C
  C36      1.0000 0.42410  0.84490  0.27710  Biso   1.000  C
  C37      1.0000 0.57590  0.34490  0.22290  Biso   1.000  C
  C38      1.0000 0.07590  0.84490  0.72290  Biso   1.000  C
  C39      1.0000 0.07590  0.65510  0.22290  Biso   1.000  C
  C40      1.0000 0.57590  0.15510  0.72290  Biso   1.000  C
  C41      1.0000 0.37070  0.62930  0.81210  Biso   1.000  C
  C42      1.0000 0.87070  0.12930  0.31210  Biso   1.000  C
  C43      1.0000 0.87070  0.37070  0.81210  Biso   1.000  C
  C44      1.0000 0.37070  0.87070  0.31210  Biso   1.000  C
  C45      1.0000 0.62930  0.37070  0.18790  Biso   1.000  C
  C46      1.0000 0.12930  0.87070  0.68790  Biso   1.000  C
  C47      1.0000 0.12930  0.62930  0.18790  Biso   1.000  C
  C48      1.0000 0.62930  0.12930  0.68790  Biso   1.000  C
  C49      1.0000 0.32560  0.57430  0.75500  Biso   1.000  C
  C50      1.0000 0.82560  0.07430  0.25500  Biso   1.000  C
  C51      1.0000 0.82560  0.42570  0.75500  Biso   1.000  C
  C52      1.0000 0.32560  0.92570  0.25500  Biso   1.000  C
  C53      1.0000 0.67440  0.42570  0.24500  Biso   1.000  C
  C54      1.0000 0.17440  0.92570  0.74500  Biso   1.000  C
  C55      1.0000 0.17440  0.57430  0.24500  Biso   1.000  C
  C56      1.0000 0.67440  0.07430  0.74500  Biso   1.000  C
  C57      1.0000 0.27570  0.54600  0.78250  Biso   1.000  C
  C58      1.0000 0.77570  0.04600  0.28250  Biso   1.000  C
  C59      1.0000 0.77570  0.45400  0.78250  Biso   1.000  C
  C60      1.0000 0.27570  0.95400  0.28250  Biso   1.000  C
  C61      1.0000 0.72430  0.45400  0.21750  Biso   1.000  C
  C62      1.0000 0.22430  0.95400  0.71750  Biso   1.000  C
  C63      1.0000 0.22430  0.54600  0.21750  Biso   1.000  C
  C64      1.0000 0.72430  0.04600  0.71750  Biso   1.000  C
  C65      1.0000 0.26960  0.57250  0.86740  Biso   1.000  C
  C66      1.0000 0.76960  0.07250  0.36740  Biso   1.000  C
  C67      1.0000 0.76960  0.42750  0.86740  Biso   1.000  C
  C68      1.0000 0.26960  0.92750  0.36740  Biso   1.000  C
  C69      1.0000 0.73040  0.42750  0.13260  Biso   1.000  C
  C70      1.0000 0.23040  0.92750  0.63260  Biso   1.000  C
  C71      1.0000 0.23040  0.57250  0.13260  Biso   1.000  C
  C72      1.0000 0.73040  0.07250  0.63260  Biso   1.000  C
  C73      1.0000 0.31360  0.62970  0.92400  Biso   1.000  C
  C74      1.0000 0.81360  0.12970  0.42400  Biso   1.000  C
  C75      1.0000 0.81360  0.37030  0.92400  Biso   1.000  C
  C76      1.0000 0.31360  0.87030  0.42400  Biso   1.000  C
  C77      1.0000 0.68640  0.37030  0.07600  Biso   1.000  C
  C78      1.0000 0.18640  0.87030  0.57600  Biso   1.000  C
  C79      1.0000 0.18640  0.62970  0.07600  Biso   1.000  C
  C80      1.0000 0.68640  0.12970  0.57600  Biso   1.000  C
  C81      1.0000 0.36440  0.65970  0.89890  Biso   1.000  C
  C82      1.0000 0.86440  0.15970  0.39890  Biso   1.000  C
  C83      1.0000 0.86440  0.34030  0.89890  Biso   1.000  C
  C84      1.0000 0.36440  0.84030  0.39890  Biso   1.000  C
  C85      1.0000 0.63560  0.34030  0.10110  Biso   1.000  C
  C86      1.0000 0.13560  0.84030  0.60110  Biso   1.000  C
  C87      1.0000 0.13560  0.65970  0.10110  Biso   1.000  C
  C88      1.0000 0.63560  0.15970  0.60110  Biso   1.000  C
  C89      1.0000 0.41250  0.71680  0.96420  Biso   1.000  C
  C90      1.0000 0.91250  0.21680  0.46420  Biso   1.000  C
  C91      1.0000 0.91250  0.28320  0.96420  Biso   1.000  C
  C92      1.0000 0.41250  0.78320  0.46420  Biso   1.000  C
  C93      1.0000 0.58750  0.28320  0.03580  Biso   1.000  C
  C94      1.0000 0.08750  0.78320  0.53580  Biso   1.000  C
  C95      1.0000 0.08750  0.71680  0.03580  Biso   1.000  C
  C96      1.0000 0.58750  0.21680  0.53580  Biso   1.000  C
  O33      1.0000 0.31750  0.02900  0.03910  Biso   1.000  O
  O34      1.0000 0.81750  0.52900  0.53910  Biso   1.000  O
  O35      1.0000 0.81750  0.97100  0.03910  Biso   1.000  O
  O36      1.0000 0.31750  0.47100  0.53910  Biso   1.000  O
  O37      1.0000 0.68250  0.97100  0.96090  Biso   1.000  O
  O38      1.0000 0.18250  0.47100  0.46090  Biso   1.000  O
  O39      1.0000 0.18250  0.02900  0.96090  Biso   1.000  O
  O40      1.0000 0.68250  0.52900  0.46090  Biso   1.000  O
  C97      1.0000 0.26840  0.04570  0.99390  Biso   1.000  C
  C98      1.0000 0.76840  0.54570  0.49390  Biso   1.000  C
  C99      1.0000 0.76840  0.95430  0.99390  Biso   1.000  C
  C100     1.0000 0.26840  0.45430  0.49390  Biso   1.000  C
  C101     1.0000 0.73160  0.95430  0.00610  Biso   1.000  C
  C102     1.0000 0.23160  0.45430  0.50610  Biso   1.000  C
  C103     1.0000 0.23160  0.04570  0.00610  Biso   1.000  C
  C104     1.0000 0.73160  0.54570  0.50610  Biso   1.000  C
  H1       1.0000 0.48440  0.97380  0.89950  Biso   1.000  H
  H2       1.0000 0.98440  0.47380  0.39950  Biso   1.000  H
  H3       1.0000 0.98440  0.02620  0.89950  Biso   1.000  H
  H4       1.0000 0.48440  0.52620  0.39950  Biso   1.000  H
  H5       1.0000 0.51560  0.02620  0.10050  Biso   1.000  H
  H6       1.0000 0.01560  0.52620  0.60050  Biso   1.000  H
  H7       1.0000 0.01560  0.97380  0.10050  Biso   1.000  H
  H8       1.0000 0.51560  0.47380  0.60050  Biso   1.000  H
  H9       1.0000 0.52140  0.11840  0.91120  Biso   1.000  H
  H10      1.0000 0.02140  0.61840  0.41120  Biso   1.000  H
  H11      1.0000 0.02140  0.88160  0.91120  Biso   1.000  H
  H12      1.0000 0.52140  0.38160  0.41120  Biso   1.000  H
  H13      1.0000 0.47860  0.88160  0.08880  Biso   1.000  H
  H14      1.0000 0.97860  0.38160  0.58880  Biso   1.000  H
  H15      1.0000 0.97860  0.11840  0.08880  Biso   1.000  H
  H16      1.0000 0.47860  0.61840  0.58880  Biso   1.000  H
  H17      1.0000 0.41100  0.27630  0.76060  Biso   1.000  H
  H18      1.0000 0.91100  0.77630  0.26060  Biso   1.000  H
  H19      1.0000 0.91100  0.72370  0.76060  Biso   1.000  H
  H20      1.0000 0.41100  0.22370  0.26060  Biso   1.000  H
  H21      1.0000 0.58900  0.72370  0.23940  Biso   1.000  H
  H22      1.0000 0.08900  0.22370  0.73940  Biso   1.000  H
  H23      1.0000 0.08900  0.27630  0.23940  Biso   1.000  H
  H24      1.0000 0.58900  0.77630  0.73940  Biso   1.000  H
  H25      1.0000 0.47090  0.11030  0.60200  Biso   1.000  H
  H26      1.0000 0.97090  0.61030  0.10200  Biso   1.000  H
  H27      1.0000 0.97090  0.88970  0.60200  Biso   1.000  H
  H28      1.0000 0.47090  0.38970  0.10200  Biso   1.000  H
  H29      1.0000 0.52910  0.88970  0.39800  Biso   1.000  H
  H30      1.0000 0.02910  0.38970  0.89800  Biso   1.000  H
  H31      1.0000 0.02910  0.11030  0.39800  Biso   1.000  H
  H32      1.0000 0.52910  0.61030  0.89800  Biso   1.000  H
  H33      1.0000 0.44180  0.97470  0.61490  Biso   1.000  H
  H34      1.0000 0.94180  0.47470  0.11490  Biso   1.000  H
  H35      1.0000 0.94180  0.02530  0.61490  Biso   1.000  H
  H36      1.0000 0.44180  0.52530  0.11490  Biso   1.000  H
  H37      1.0000 0.55820  0.02530  0.38510  Biso   1.000  H
  H38      1.0000 0.05820  0.52530  0.88510  Biso   1.000  H
  H39      1.0000 0.05820  0.97470  0.38510  Biso   1.000  H
  H40      1.0000 0.55820  0.47470  0.88510  Biso   1.000  H
  H41      1.0000 0.44820  0.28960  0.92060  Biso   1.000  H
  H42      1.0000 0.94820  0.78960  0.42060  Biso   1.000  H
  H43      1.0000 0.94820  0.71040  0.92060  Biso   1.000  H
  H44      1.0000 0.44820  0.21040  0.42060  Biso   1.000  H
  H45      1.0000 0.55180  0.71040  0.07940  Biso   1.000  H
  H46      1.0000 0.05180  0.21040  0.57940  Biso   1.000  H
  H47      1.0000 0.05180  0.28960  0.07940  Biso   1.000  H
  H48      1.0000 0.55180  0.78960  0.57940  Biso   1.000  H
  H49      1.0000 0.43310  0.12320  0.96890  Biso   1.000  H
  H50      1.0000 0.93310  0.62320  0.46890  Biso   1.000  H
  H51      1.0000 0.93310  0.87680  0.96890  Biso   1.000  H
  H52      1.0000 0.43310  0.37680  0.46890  Biso   1.000  H
  H53      1.0000 0.56690  0.87680  0.03110  Biso   1.000  H
  H54      1.0000 0.06690  0.37680  0.53110  Biso   1.000  H
  H55      1.0000 0.06690  0.12320  0.03110  Biso   1.000  H
  H56      1.0000 0.56690  0.62320  0.53110  Biso   1.000  H
  H57      1.0000 0.37720  0.02720  0.85160  Biso   1.000  H
  H58      1.0000 0.87720  0.52720  0.35160  Biso   1.000  H
  H59      1.0000 0.87720  0.97280  0.85160  Biso   1.000  H
  H60      1.0000 0.37720  0.47280  0.35160  Biso   1.000  H
  H61      1.0000 0.62280  0.97280  0.14840  Biso   1.000  H
  H62      1.0000 0.12280  0.47280  0.64840  Biso   1.000  H
  H63      1.0000 0.12280  0.02720  0.14840  Biso   1.000  H
  H64      1.0000 0.62280  0.52720  0.64840  Biso   1.000  H
  H65      1.0000 0.35990  0.21110  0.86530  Biso   1.000  H
  H66      1.0000 0.85990  0.71110  0.36530  Biso   1.000  H
  H67      1.0000 0.85990  0.78890  0.86530  Biso   1.000  H
  H68      1.0000 0.35990  0.28890  0.36530  Biso   1.000  H
  H69      1.0000 0.64010  0.78890  0.13470  Biso   1.000  H
  H70      1.0000 0.14010  0.28890  0.63470  Biso   1.000  H
  H71      1.0000 0.14010  0.21110  0.13470  Biso   1.000  H
  H72      1.0000 0.64010  0.71110  0.63470  Biso   1.000  H
  H73      1.0000 0.35460  0.02360  0.70030  Biso   1.000  H
  H74      1.0000 0.85460  0.52360  0.20030  Biso   1.000  H
  H75      1.0000 0.85460  0.97640  0.70030  Biso   1.000  H
  H76      1.0000 0.35460  0.47640  0.20030  Biso   1.000  H
  H77      1.0000 0.64540  0.97640  0.29970  Biso   1.000  H
  H78      1.0000 0.14540  0.47640  0.79970  Biso   1.000  H
  H79      1.0000 0.14540  0.02360  0.29970  Biso   1.000  H
  H80      1.0000 0.64540  0.52360  0.79970  Biso   1.000  H
  H81      1.0000 0.32800  0.20810  0.68000  Biso   1.000  H
  H82      1.0000 0.82800  0.70810  0.18000  Biso   1.000  H
  H83      1.0000 0.82800  0.79190  0.68000  Biso   1.000  H
  H84      1.0000 0.32800  0.29190  0.18000  Biso   1.000  H
  H85      1.0000 0.67200  0.79190  0.32000  Biso   1.000  H
  H86      1.0000 0.17200  0.29190  0.82000  Biso   1.000  H
  H87      1.0000 0.17200  0.20810  0.32000  Biso   1.000  H
  H88      1.0000 0.67200  0.70810  0.82000  Biso   1.000  H
  H89      1.0000 0.37430  0.12600  0.56790  Biso   1.000  H
  H90      1.0000 0.87430  0.62600  0.06790  Biso   1.000  H
  H91      1.0000 0.87430  0.87400  0.56790  Biso   1.000  H
  H92      1.0000 0.37430  0.37400  0.06790  Biso   1.000  H
  H93      1.0000 0.62570  0.87400  0.43210  Biso   1.000  H
  H94      1.0000 0.12570  0.37400  0.93210  Biso   1.000  H
  H95      1.0000 0.12570  0.12600  0.43210  Biso   1.000  H
  H96      1.0000 0.62570  0.62600  0.93210  Biso   1.000  H
  H97      1.0000 0.40380  0.28000  0.60660  Biso   1.000  H
  H98      1.0000 0.90380  0.78000  0.10660  Biso   1.000  H
  H99      1.0000 0.90380  0.72000  0.60660  Biso   1.000  H
  H100     1.0000 0.40380  0.22000  0.10660  Biso   1.000  H
  H101     1.0000 0.59620  0.72000  0.39340  Biso   1.000  H
  H102     1.0000 0.09620  0.22000  0.89340  Biso   1.000  H
  H103     1.0000 0.09620  0.28000  0.39340  Biso   1.000  H
  H104     1.0000 0.59620  0.78000  0.89340  Biso   1.000  H
  H105     1.0000 0.33150  0.55960  0.70150  Biso   1.000  H
  H106     1.0000 0.83150  0.05960  0.20150  Biso   1.000  H
  H107     1.0000 0.83150  0.44040  0.70150  Biso   1.000  H
  H108     1.0000 0.33150  0.94040  0.20150  Biso   1.000  H
  H109     1.0000 0.66850  0.44040  0.29850  Biso   1.000  H
  H110     1.0000 0.16850  0.94040  0.79850  Biso   1.000  H
  H111     1.0000 0.16850  0.55960  0.29850  Biso   1.000  H
  H112     1.0000 0.66850  0.05960  0.79850  Biso   1.000  H
  H113     1.0000 0.24830  0.51740  0.74340  Biso   1.000  H
  H114     1.0000 0.74830  0.01740  0.24340  Biso   1.000  H
  H115     1.0000 0.74830  0.48260  0.74340  Biso   1.000  H
  H116     1.0000 0.24830  0.98260  0.24340  Biso   1.000  H
  H117     1.0000 0.75170  0.48260  0.25660  Biso   1.000  H
  H118     1.0000 0.25170  0.98260  0.75660  Biso   1.000  H
  H119     1.0000 0.25170  0.51740  0.25660  Biso   1.000  H
  H120     1.0000 0.75170  0.01740  0.75660  Biso   1.000  H
  H121     1.0000 0.23620  0.56020  0.88230  Biso   1.000  H
  H122     1.0000 0.73620  0.06020  0.38230  Biso   1.000  H
  H123     1.0000 0.73620  0.43980  0.88230  Biso   1.000  H
  H124     1.0000 0.23620  0.93980  0.38230  Biso   1.000  H
  H125     1.0000 0.76380  0.43980  0.11770  Biso   1.000  H
  H126     1.0000 0.26380  0.93980  0.61770  Biso   1.000  H
  H127     1.0000 0.26380  0.56020  0.11770  Biso   1.000  H
  H128     1.0000 0.76380  0.06020  0.61770  Biso   1.000  H
  H129     1.0000 0.30910  0.65330  0.97330  Biso   1.000  H
  H130     1.0000 0.80910  0.15330  0.47330  Biso   1.000  H
  H131     1.0000 0.80910  0.34670  0.97330  Biso   1.000  H
  H132     1.0000 0.30910  0.84670  0.47330  Biso   1.000  H
  H133     1.0000 0.69090  0.34670  0.02670  Biso   1.000  H
  H134     1.0000 0.19090  0.84670  0.52670  Biso   1.000  H
  H135     1.0000 0.19090  0.65330  0.02670  Biso   1.000  H
  H136     1.0000 0.69090  0.15330  0.52670  Biso   1.000  H
