data_image0
_cell_length_a       9.8753
_cell_length_b       10.0867
_cell_length_c       20.0518
_cell_angle_alpha    96.032
_cell_angle_beta     96.262
_cell_angle_gamma    118.476

_symmetry_space_group_name_H-M    "P 1"
_symmetry_int_tables_number       1

loop_
  _symmetry_equiv_pos_as_xyz
  'x, y, z'

loop_
  _atom_site_label
  _atom_site_occupancy
  _atom_site_fract_x
  _atom_site_fract_y
  _atom_site_fract_z
  _atom_site_thermal_displace_type
  _atom_site_B_iso_or_equiv
  _atom_site_type_symbol
  Cu1      1.0000 0.65607  0.98335  0.02263  Biso   1.000  Cu
  Cu2      1.0000 0.34393  0.01665  0.97737  Biso   1.000  Cu
  S1       1.0000 0.38597  0.39467  0.32058  Biso   1.000  S
  S2       1.0000 0.61403  0.60533  0.67942  Biso   1.000  S
  S3       1.0000 0.53072  0.74467  0.41981  Biso   1.000  S
  S4       1.0000 0.46928  0.25533  0.58019  Biso   1.000  S
  S5       1.0000 0.94452  0.57843  0.60404  Biso   1.000  S
  S6       1.0000 0.05548  0.42157  0.39596  Biso   1.000  S
  S7       1.0000 0.76682  0.67700  0.49095  Biso   1.000  S
  S8       1.0000 0.23318  0.32300  0.50905  Biso   1.000  S
  S9       1.0000 0.81760  0.27564  0.51914  Biso   1.000  S
  S10      1.0000 0.18240  0.72436  0.48086  Biso   1.000  S
  S11      1.0000 0.65607  0.38354  0.40057  Biso   1.000  S
  S12      1.0000 0.34393  0.61646  0.59943  Biso   1.000  S
  S13      1.0000 0.02380  0.47851  0.73167  Biso   1.000  S
  S14      1.0000 0.97620  0.52149  0.26833  Biso   1.000  S
  S15      1.0000 0.87970  0.13763  0.63691  Biso   1.000  S
  S16      1.0000 0.12030  0.86237  0.36309  Biso   1.000  S
  O1       1.0000 0.59011  0.13282  0.04829  Biso   1.000  O
  O2       1.0000 0.40989  0.86718  0.95171  Biso   1.000  O
  O3       1.0000 0.57251  0.88456  0.09961  Biso   1.000  O
  O4       1.0000 0.42749  0.11544  0.90039  Biso   1.000  O
  O5       1.0000 0.80580  0.36198  0.08200  Biso   1.000  O
  O6       1.0000 0.19420  0.63802  0.91800  Biso   1.000  O
  O7       1.0000 0.82000  0.04160  0.14635  Biso   1.000  O
  O8       1.0000 0.18000  0.95840  0.85365  Biso   1.000  O
  N1       1.0000 0.72110  0.83040  0.99264  Biso   1.000  N
  N2       1.0000 0.27890  0.16960  0.00736  Biso   1.000  N
  N3       1.0000 0.78080  0.08660  0.95299  Biso   1.000  N
  N4       1.0000 0.21920  0.91340  0.04701  Biso   1.000  N
  C1       1.0000 0.64850  0.89660  0.21725  Biso   1.000  C
  C2       1.0000 0.35150  0.10340  0.78275  Biso   1.000  C
  C3       1.0000 0.68520  0.94550  0.15046  Biso   1.000  C
  C4       1.0000 0.31480  0.05450  0.84954  Biso   1.000  C
  C5       1.0000 0.49580  0.82160  0.22790  Biso   1.000  C
  C6       1.0000 0.50420  0.17840  0.77210  Biso   1.000  C
  H1       1.0000 0.41470  0.80100  0.19290  Biso   1.000  H
  H2       1.0000 0.58530  0.19900  0.80710  Biso   1.000  H
  C7       1.0000 0.57930  0.80410  0.34067  Biso   1.000  C
  C8       1.0000 0.42070  0.19590  0.65933  Biso   1.000  C
  C9       1.0000 0.79920  0.21590  0.93296  Biso   1.000  C
  C10      1.0000 0.20080  0.78410  0.06704  Biso   1.000  C
  H3       1.0000 0.75440  0.26800  0.95390  Biso   1.000  H
  H4       1.0000 0.24560  0.73200  0.04610  Biso   1.000  H
  C11      1.0000 0.84580  0.01150  0.92209  Biso   1.000  C
  C12      1.0000 0.15420  0.98850  0.07791  Biso   1.000  C
  C13      1.0000 0.46120  0.77650  0.28951  Biso   1.000  C
  C14      1.0000 0.53880  0.22350  0.71049  Biso   1.000  C
  H5       1.0000 0.35790  0.72760  0.29600  Biso   1.000  H
  H6       1.0000 0.64210  0.27240  0.70400  Biso   1.000  H
  C15      1.0000 0.88240  0.27410  0.88230  Biso   1.000  C
  C16      1.0000 0.11760  0.72590  0.11770  Biso   1.000  C
  H7       1.0000 0.89460  0.36490  0.86980  Biso   1.000  H
  H8       1.0000 0.10540  0.63510  0.13020  Biso   1.000  H
  C17      1.0000 0.43700  0.20920  0.22846  Biso   1.000  C
  C18      1.0000 0.56300  0.79080  0.77154  Biso   1.000  C
  H9       1.0000 0.37370  0.13000  0.24970  Biso   1.000  H
  H10      1.0000 0.62630  0.87000  0.75030  Biso   1.000  H
  C19      1.0000 0.59700  0.29650  0.14288  Biso   1.000  C
  C20      1.0000 0.40300  0.70350  0.85712  Biso   1.000  C
  C21      1.0000 0.68510  0.70060  0.01676  Biso   1.000  C
  C22      1.0000 0.31490  0.29940  0.98324  Biso   1.000  C
  H11      1.0000 0.61830  0.67310  0.04830  Biso   1.000  H
  H12      1.0000 0.38170  0.32690  0.95170  Biso   1.000  H
  C23      1.0000 0.67380  0.26600  0.08728  Biso   1.000  C
  C24      1.0000 0.32620  0.73400  0.91272  Biso   1.000  C
  C25      1.0000 0.92940  0.06430  0.87065  Biso   1.000  C
  C26      1.0000 0.07060  0.93570  0.12935  Biso   1.000  C
  H13      1.0000 0.97340  0.01110  0.84990  Biso   1.000  H
  H14      1.0000 0.02660  0.98890  0.15010  Biso   1.000  H
  C27      1.0000 0.46940  0.35760  0.25103  Biso   1.000  C
  C28      1.0000 0.53060  0.64240  0.74897  Biso   1.000  C
  C29      1.0000 0.94650  0.19730  0.85066  Biso   1.000  C
  C30      1.0000 0.05350  0.80270  0.14934  Biso   1.000  C
  H15      1.0000 0.00140  0.23430  0.81580  Biso   1.000  H
  H16      1.0000 0.99860  0.76570  0.18420  Biso   1.000  H
  C31      1.0000 0.49960  0.17980  0.17404  Biso   1.000  C
  C32      1.0000 0.50040  0.82020  0.82596  Biso   1.000  C
  H17      1.0000 0.47560  0.07970  0.15820  Biso   1.000  H
  H18      1.0000 0.52440  0.92030  0.84180  Biso   1.000  H
  C33      1.0000 0.81500  0.86750  0.94626  Biso   1.000  C
  C34      1.0000 0.18500  0.13250  0.05374  Biso   1.000  C
  C35      1.0000 0.76770  0.92550  0.26987  Biso   1.000  C
  C36      1.0000 0.23230  0.07450  0.73013  Biso   1.000  C
  H19      1.0000 0.87130  0.97540  0.26370  Biso   1.000  H
  H20      1.0000 0.12870  0.02460  0.73630  Biso   1.000  H
  C37      1.0000 0.55100  0.48160  0.38534  Biso   1.000  C
  C38      1.0000 0.44900  0.51840  0.61466  Biso   1.000  C
  C39      1.0000 0.60570  0.61840  0.42603  Biso   1.000  C
  C40      1.0000 0.39430  0.38160  0.57397  Biso   1.000  C
  C41      1.0000 0.62960  0.44640  0.16657  Biso   1.000  C
  C42      1.0000 0.37040  0.55360  0.83343  Biso   1.000  C
  H21      1.0000 0.69570  0.52640  0.14640  Biso   1.000  H
  H22      1.0000 0.30430  0.47360  0.85360  Biso   1.000  H
  C43      1.0000 0.73370  0.88050  0.33137  Biso   1.000  C
  C44      1.0000 0.26630  0.11950  0.66863  Biso   1.000  C
  H23      1.0000 0.81430  0.90140  0.36670  Biso   1.000  H
  H24      1.0000 0.18570  0.09860  0.63330  Biso   1.000  H
  C45      1.0000 0.56460  0.47540  0.21928  Biso   1.000  C
  C46      1.0000 0.43540  0.52460  0.78072  Biso   1.000  C
  H25      1.0000 0.58440  0.57470  0.23390  Biso   1.000  H
  H26      1.0000 0.41560  0.42530  0.76610  Biso   1.000  H
  C47      1.0000 0.83030  0.45580  0.52766  Biso   1.000  C
  C48      1.0000 0.16970  0.54420  0.47234  Biso   1.000  C
  C49      1.0000 0.74390  0.60700  0.99648  Biso   1.000  C
  C50      1.0000 0.25610  0.39300  0.00352  Biso   1.000  C
  H27      1.0000 0.71580  0.51680  0.01340  Biso   1.000  H
  H28      1.0000 0.28420  0.48320  0.98660  Biso   1.000  H
  C51      1.0000 0.76110  0.49890  0.47995  Biso   1.000  C
  C52      1.0000 0.23890  0.50110  0.52005  Biso   1.000  C
  C53      1.0000 0.93520  0.43130  0.64587  Biso   1.000  C
  C54      1.0000 0.06480  0.56870  0.35413  Biso   1.000  C
  C55      1.0000 0.88040  0.77960  0.92462  Biso   1.000  C
  C56      1.0000 0.11960  0.22040  0.07538  Biso   1.000  C
  H29      1.0000 0.94700  0.80870  0.89310  Biso   1.000  H
  H30      1.0000 0.05300  0.19130  0.10690  Biso   1.000  H
  C57      1.0000 0.87750  0.29270  0.60732  Biso   1.000  C
  C58      1.0000 0.12250  0.70730  0.39268  Biso   1.000  C
  C59      1.0000 0.84490  0.64860  0.95075  Biso   1.000  C
  C60      1.0000 0.15510  0.35140  0.04925  Biso   1.000  C
  H31      1.0000 0.88870  0.58860  0.93770  Biso   1.000  H
  H32      1.0000 0.11130  0.41140  0.06230  Biso   1.000  H
  C61      1.0000 0.68710  0.98550  0.60480  Biso   1.000  C
  C62      1.0000 0.31290  0.01450  0.39520  Biso   1.000  C
  H33      1.0000 0.65950  0.98500  0.55730  Biso   1.000  H
  H34      1.0000 0.34050  0.01500  0.44270  Biso   1.000  H
  H35      1.0000 0.61540  0.99910  0.62940  Biso   1.000  H
  H36      1.0000 0.38460  0.00090  0.37060  Biso   1.000  H
  H37      1.0000 0.68200  0.88990  0.61010  Biso   1.000  H
  H38      1.0000 0.31800  0.11010  0.38990  Biso   1.000  H
  C63      1.0000 0.97840  0.61360  0.76720  Biso   1.000  C
  C64      1.0000 0.02160  0.38640  0.23280  Biso   1.000  C
  H39      1.0000 0.03090  0.70570  0.74880  Biso   1.000  H
  H40      1.0000 0.96910  0.29430  0.25120  Biso   1.000  H
  H41      1.0000 0.01190  0.63620  0.81580  Biso   1.000  H
  H42      1.0000 0.98810  0.36380  0.18420  Biso   1.000  H
  H43      1.0000 0.86720  0.57370  0.75670  Biso   1.000  H
  H44      1.0000 0.13280  0.42630  0.24330  Biso   1.000  H
