data_image0
_cell_length_a       11.493
_cell_length_b       11.945
_cell_length_c       14.462
_cell_angle_alpha    68.36
_cell_angle_beta     69.26
_cell_angle_gamma    88.63

_symmetry_space_group_name_H-M    "P 1"
_symmetry_int_tables_number       1

loop_
  _symmetry_equiv_pos_as_xyz
  'x, y, z'

loop_
  _atom_site_label
  _atom_site_occupancy
  _atom_site_fract_x
  _atom_site_fract_y
  _atom_site_fract_z
  _atom_site_thermal_displace_type
  _atom_site_B_iso_or_equiv
  _atom_site_type_symbol
  Cu1      1.0000 0.06971  0.07190  0.40388  Biso   1.000  Cu
  Cu2      1.0000 0.93029  0.92810  0.59612  Biso   1.000  Cu
  O1       1.0000 0.20290  0.98530  0.44130  Biso   1.000  O
  O2       1.0000 0.79710  0.01470  0.55870  Biso   1.000  O
  O3       1.0000 0.03760  0.94480  0.35740  Biso   1.000  O
  O4       1.0000 0.96240  0.05520  0.64260  Biso   1.000  O
  O5       1.0000 0.08440  0.86010  0.60500  Biso   1.000  O
  O6       1.0000 0.91560  0.13990  0.39500  Biso   1.000  O
  O7       1.0000 0.91330  0.82510  0.52140  Biso   1.000  O
  O8       1.0000 0.08670  0.17490  0.47860  Biso   1.000  O
  O9       1.0000 0.61980  0.71580  0.59540  Biso   1.000  O
  O10      1.0000 0.38020  0.28420  0.40460  Biso   1.000  O
  O11      1.0000 0.91720  0.47340  0.28730  Biso   1.000  O
  O12      1.0000 0.08280  0.52660  0.71270  Biso   1.000  O
  N1       1.0000 0.19920  0.20030  0.25460  Biso   1.000  N
  N2       1.0000 0.80080  0.79970  0.74540  Biso   1.000  N
  N3       1.0000 0.50130  0.44690  0.00350  Biso   1.000  N
  N4       1.0000 0.49870  0.55310  0.99650  Biso   1.000  N
  C1       1.0000 0.18890  0.90220  0.52830  Biso   1.000  C
  C2       1.0000 0.81110  0.09780  0.47170  Biso   1.000  C
  C3       1.0000 0.30190  0.84820  0.54460  Biso   1.000  C
  C4       1.0000 0.69810  0.15180  0.45540  Biso   1.000  C
  C5       1.0000 0.41780  0.88790  0.46080  Biso   1.000  C
  C6       1.0000 0.58220  0.11210  0.53920  Biso   1.000  C
  H1       1.0000 0.42260  0.94530  0.39490  Biso   1.000  H
  H2       1.0000 0.57740  0.05470  0.60510  Biso   1.000  H
  C7       1.0000 0.52580  0.84430  0.47290  Biso   1.000  C
  C8       1.0000 0.47420  0.15570  0.52710  Biso   1.000  C
  C9       1.0000 0.51620  0.76070  0.57420  Biso   1.000  C
  C10      1.0000 0.48380  0.23930  0.42580  Biso   1.000  C
  C11      1.0000 0.40020  0.71690  0.66040  Biso   1.000  C
  C12      1.0000 0.59980  0.28310  0.33960  Biso   1.000  C
  C13      1.0000 0.29450  0.76270  0.64210  Biso   1.000  C
  C14      1.0000 0.70550  0.23730  0.35790  Biso   1.000  C
  H3       1.0000 0.21640  0.73470  0.69740  Biso   1.000  H
  H4       1.0000 0.78360  0.26530  0.30260  Biso   1.000  H
  C15      1.0000 0.65110  0.87890  0.37700  Biso   1.000  C
  C16      1.0000 0.34890  0.12110  0.62300  Biso   1.000  C
  H5       1.0000 0.71790  0.88750  0.40210  Biso   1.000  H
  H6       1.0000 0.28210  0.11250  0.59790  Biso   1.000  H
  C17      1.0000 0.67520  0.77650  0.33590  Biso   1.000  C
  C18      1.0000 0.32480  0.22350  0.66410  Biso   1.000  C
  H7       1.0000 0.67110  0.70180  0.39370  Biso   1.000  H
  H8       1.0000 0.32890  0.29820  0.60630  Biso   1.000  H
  H9       1.0000 0.61290  0.76890  0.30780  Biso   1.000  H
  H10      1.0000 0.38710  0.23110  0.69220  Biso   1.000  H
  H11      1.0000 0.75690  0.79460  0.28030  Biso   1.000  H
  H12      1.0000 0.24310  0.20540  0.71970  Biso   1.000  H
  C19      1.0000 0.65760  0.99750  0.28550  Biso   1.000  C
  C20      1.0000 0.34240  0.00250  0.71450  Biso   1.000  C
  H13      1.0000 0.64240  0.06180  0.31160  Biso   1.000  H
  H14      1.0000 0.35760  0.93820  0.68840  Biso   1.000  H
  H15      1.0000 0.73930  0.01570  0.22990  Biso   1.000  H
  H16      1.0000 0.26070  0.98430  0.77010  Biso   1.000  H
  H17      1.0000 0.59530  0.99000  0.25750  Biso   1.000  H
  H18      1.0000 0.40470  0.01000  0.74250  Biso   1.000  H
  C21      1.0000 0.39530  0.62340  0.76720  Biso   1.000  C
  C22      1.0000 0.60470  0.37660  0.23280  Biso   1.000  C
  H19      1.0000 0.46660  0.64690  0.78110  Biso   1.000  H
  H20      1.0000 0.53340  0.35310  0.21890  Biso   1.000  H
  C23      1.0000 0.40840  0.49700  0.76450  Biso   1.000  C
  C24      1.0000 0.59160  0.50300  0.23550  Biso   1.000  C
  H21      1.0000 0.40490  0.44030  0.83310  Biso   1.000  H
  H22      1.0000 0.59510  0.55970  0.16690  Biso   1.000  H
  H23      1.0000 0.34120  0.47280  0.74840  Biso   1.000  H
  H24      1.0000 0.65880  0.52720  0.25160  Biso   1.000  H
  H25      1.0000 0.48720  0.49850  0.71050  Biso   1.000  H
  H26      1.0000 0.51280  0.50150  0.28950  Biso   1.000  H
  C25      1.0000 0.27570  0.61890  0.86030  Biso   1.000  C
  C26      1.0000 0.72430  0.38110  0.13970  Biso   1.000  C
  H27      1.0000 0.27680  0.55880  0.92590  Biso   1.000  H
  H28      1.0000 0.72320  0.44120  0.07410  Biso   1.000  H
  H29      1.0000 0.27140  0.69680  0.86560  Biso   1.000  H
  H30      1.0000 0.72860  0.30320  0.13440  Biso   1.000  H
  H31      1.0000 0.20390  0.59840  0.84790  Biso   1.000  H
  H32      1.0000 0.79610  0.40160  0.15210  Biso   1.000  H
  C27      1.0000 0.97100  0.84720  0.42350  Biso   1.000  C
  C28      1.0000 0.02900  0.15280  0.57650  Biso   1.000  C
  C29      1.0000 0.95610  0.74870  0.38710  Biso   1.000  C
  C30      1.0000 0.04390  0.25130  0.61290  Biso   1.000  C
  C31      1.0000 0.88790  0.63840  0.46090  Biso   1.000  C
  C32      1.0000 0.11210  0.36160  0.53910  Biso   1.000  C
  H33      1.0000 0.85230  0.62740  0.53280  Biso   1.000  H
  H34      1.0000 0.14770  0.37260  0.46720  Biso   1.000  H
  C33      1.0000 0.87030  0.54330  0.43190  Biso   1.000  C
  C34      1.0000 0.12970  0.45670  0.56810  Biso   1.000  C
  C35      1.0000 0.92690  0.56290  0.32360  Biso   1.000  C
  C36      1.0000 0.07310  0.43710  0.67640  Biso   1.000  C
  C37      1.0000 0.99860  0.67240  0.24620  Biso   1.000  C
  C38      1.0000 0.00140  0.32760  0.75380  Biso   1.000  C
  C39      1.0000 0.01050  0.76580  0.27980  Biso   1.000  C
  C40      1.0000 0.98950  0.23420  0.72020  Biso   1.000  C
  H35      1.0000 0.05540  0.84030  0.22960  Biso   1.000  H
  H36      1.0000 0.94460  0.15970  0.77040  Biso   1.000  H
  C41      1.0000 0.78660  0.42710  0.51230  Biso   1.000  C
  C42      1.0000 0.21340  0.57290  0.48770  Biso   1.000  C
  H37      1.0000 0.82510  0.35960  0.49510  Biso   1.000  H
  H38      1.0000 0.17490  0.64040  0.50490  Biso   1.000  H
  C43      1.0000 0.76840  0.40270  0.62730  Biso   1.000  C
  C44      1.0000 0.23160  0.59730  0.37270  Biso   1.000  C
  H39      1.0000 0.71460  0.32790  0.67380  Biso   1.000  H
  H40      1.0000 0.28540  0.67210  0.32620  Biso   1.000  H
  H41      1.0000 0.84810  0.39680  0.63500  Biso   1.000  H
  H42      1.0000 0.15190  0.60320  0.36500  Biso   1.000  H
  H43      1.0000 0.73080  0.46790  0.64590  Biso   1.000  H
  H44      1.0000 0.26920  0.53210  0.35410  Biso   1.000  H
  C45      1.0000 0.65760  0.43000  0.50160  Biso   1.000  C
  C46      1.0000 0.34240  0.57000  0.49840  Biso   1.000  C
  H45      1.0000 0.60460  0.35610  0.55270  Biso   1.000  H
  H46      1.0000 0.39540  0.64390  0.44730  Biso   1.000  H
  H47      1.0000 0.61970  0.49780  0.51500  Biso   1.000  H
  H48      1.0000 0.38030  0.50220  0.48500  Biso   1.000  H
  H49      1.0000 0.66820  0.43790  0.43050  Biso   1.000  H
  H50      1.0000 0.33180  0.56210  0.56950  Biso   1.000  H
  C47      1.0000 0.06000  0.68910  0.12890  Biso   1.000  C
  C48      1.0000 0.94000  0.31090  0.87110  Biso   1.000  C
  H51      1.0000 0.07920  0.60940  0.12710  Biso   1.000  H
  H52      1.0000 0.92080  0.39060  0.87290  Biso   1.000  H
  C49      1.0000 0.96830  0.73230  0.07250  Biso   1.000  C
  C50      1.0000 0.03170  0.26770  0.92750  Biso   1.000  C
  H53      1.0000 0.89210  0.67720  0.11070  Biso   1.000  H
  H54      1.0000 0.10790  0.32280  0.88930  Biso   1.000  H
  H55      1.0000 0.95020  0.81190  0.07050  Biso   1.000  H
  H56      1.0000 0.04980  0.18810  0.92950  Biso   1.000  H
  H57      1.0000 0.00460  0.73520  0.00070  Biso   1.000  H
  H58      1.0000 0.99540  0.26480  0.99930  Biso   1.000  H
  C51      1.0000 0.18250  0.77340  0.07140  Biso   1.000  C
  C52      1.0000 0.81750  0.22660  0.92860  Biso   1.000  C
  H59      1.0000 0.23810  0.74360  0.10890  Biso   1.000  H
  H60      1.0000 0.76190  0.25640  0.89110  Biso   1.000  H
  H61      1.0000 0.22060  0.77660  0.99960  Biso   1.000  H
  H62      1.0000 0.77940  0.22340  0.00040  Biso   1.000  H
  H63      1.0000 0.16620  0.85330  0.06940  Biso   1.000  H
  H64      1.0000 0.83380  0.14670  0.93060  Biso   1.000  H
  C53      1.0000 0.19570  0.31890  0.22880  Biso   1.000  C
  C54      1.0000 0.80430  0.68110  0.77120  Biso   1.000  C
  H65      1.0000 0.12470  0.34430  0.26790  Biso   1.000  H
  H66      1.0000 0.87530  0.65570  0.73210  Biso   1.000  H
  C55      1.0000 0.28980  0.40650  0.14820  Biso   1.000  C
  C56      1.0000 0.71020  0.59350  0.85180  Biso   1.000  C
  H67      1.0000 0.28390  0.48850  0.13380  Biso   1.000  H
  H68      1.0000 0.71610  0.51150  0.86620  Biso   1.000  H
  C57      1.0000 0.39340  0.36780  0.08950  Biso   1.000  C
  C58      1.0000 0.60660  0.63220  0.91050  Biso   1.000  C
  C59      1.0000 0.39880  0.24660  0.11220  Biso   1.000  C
  C60      1.0000 0.60120  0.75340  0.88780  Biso   1.000  C
  H69      1.0000 0.46690  0.21920  0.07200  Biso   1.000  H
  H70      1.0000 0.53310  0.78080  0.92800  Biso   1.000  H
  C61      1.0000 0.30020  0.16600  0.19670  Biso   1.000  C
  C62      1.0000 0.69980  0.83400  0.80330  Biso   1.000  C
  H71      1.0000 0.30500  0.08340  0.21380  Biso   1.000  H
  H72      1.0000 0.69500  0.91660  0.78620  Biso   1.000  H
  H73      1.0000 0.69080  0.78020  0.54270  Biso   1.000  H
  H74      1.0000 0.30920  0.21980  0.45730  Biso   1.000  H
  H75      1.0000 0.84170  0.40450  0.34470  Biso   1.000  H
  H76      1.0000 0.15830  0.59550  0.65530  Biso   1.000  H
