data_image0
_cell_length_a       11.132
_cell_length_b       14.3355
_cell_length_c       11.5297
_cell_angle_alpha    90
_cell_angle_beta     91.768
_cell_angle_gamma    90

_symmetry_space_group_name_H-M    "P 1"
_symmetry_int_tables_number       1

loop_
  _symmetry_equiv_pos_as_xyz
  'x, y, z'

loop_
  _atom_site_label
  _atom_site_occupancy
  _atom_site_fract_x
  _atom_site_fract_y
  _atom_site_fract_z
  _atom_site_thermal_displace_type
  _atom_site_B_iso_or_equiv
  _atom_site_type_symbol
  Cu1      1.0000 0.41535  0.01955  0.41896  Biso   1.000  Cu
  Cu2      1.0000 0.08465  0.51955  0.08104  Biso   1.000  Cu
  Cu3      1.0000 0.58465  0.98045  0.58104  Biso   1.000  Cu
  Cu4      1.0000 0.91535  0.48045  0.91896  Biso   1.000  Cu
  N1       1.0000 0.28503  0.06048  0.27881  Biso   1.000  N
  N2       1.0000 0.21497  0.56048  0.22119  Biso   1.000  N
  N3       1.0000 0.71497  0.93952  0.72119  Biso   1.000  N
  N4       1.0000 0.78503  0.43952  0.77881  Biso   1.000  N
  O1       1.0000 0.96491  0.92327  0.22669  Biso   1.000  O
  O2       1.0000 0.53509  0.42327  0.27331  Biso   1.000  O
  O3       1.0000 0.03509  0.07673  0.77331  Biso   1.000  O
  O4       1.0000 0.46491  0.57673  0.72669  Biso   1.000  O
  C1       1.0000 0.30988  0.13255  0.20926  Biso   1.000  C
  C2       1.0000 0.19012  0.63255  0.29074  Biso   1.000  C
  C3       1.0000 0.69012  0.86745  0.79074  Biso   1.000  C
  C4       1.0000 0.80988  0.36745  0.70926  Biso   1.000  C
  H1       1.0000 0.38480  0.16090  0.21800  Biso   1.000  H
  H2       1.0000 0.11520  0.66090  0.28200  Biso   1.000  H
  H3       1.0000 0.61520  0.83910  0.78200  Biso   1.000  H
  H4       1.0000 0.88480  0.33910  0.71800  Biso   1.000  H
  O5       1.0000 0.31786  0.92955  0.50343  Biso   1.000  O
  O6       1.0000 0.18214  0.42955  0.99657  Biso   1.000  O
  O7       1.0000 0.68214  0.07045  0.49657  Biso   1.000  O
  O8       1.0000 0.81786  0.57045  0.00343  Biso   1.000  O
  N5       1.0000 0.87804  0.03723  0.12044  Biso   1.000  N
  N6       1.0000 0.62196  0.53723  0.37956  Biso   1.000  N
  N7       1.0000 0.12196  0.96277  0.87956  Biso   1.000  N
  N8       1.0000 0.37804  0.46277  0.62044  Biso   1.000  N
  H5       1.0000 0.88690  0.08810  0.08210  Biso   1.000  H
  H6       1.0000 0.61310  0.58810  0.41790  Biso   1.000  H
  H7       1.0000 0.11310  0.91190  0.91790  Biso   1.000  H
  H8       1.0000 0.38690  0.41190  0.58210  Biso   1.000  H
  C5       1.0000 0.23080  0.16676  0.12590  Biso   1.000  C
  C6       1.0000 0.26920  0.66676  0.37410  Biso   1.000  C
  C7       1.0000 0.76920  0.83324  0.87410  Biso   1.000  C
  C8       1.0000 0.73080  0.33324  0.62590  Biso   1.000  C
  H9       1.0000 0.25220  0.21680  0.07960  Biso   1.000  H
  H10      1.0000 0.24780  0.71680  0.42040  Biso   1.000  H
  H11      1.0000 0.74780  0.78320  0.92040  Biso   1.000  H
  H12      1.0000 0.75220  0.28320  0.57960  Biso   1.000  H
  O9       1.0000 0.45765  0.89826  0.63774  Biso   1.000  O
  O10      1.0000 0.04235  0.39826  0.86226  Biso   1.000  O
  O11      1.0000 0.54235  0.10174  0.36226  Biso   1.000  O
  O12      1.0000 0.95765  0.60174  0.13774  Biso   1.000  O
  C9       1.0000 0.11849  0.12556  0.11174  Biso   1.000  C
  C10      1.0000 0.38151  0.62556  0.38826  Biso   1.000  C
  C11      1.0000 0.88151  0.87444  0.88826  Biso   1.000  C
  C12      1.0000 0.61849  0.37444  0.61174  Biso   1.000  C
  H13      1.0000 0.06310  0.14800  0.05660  Biso   1.000  H
  H14      1.0000 0.43690  0.64800  0.44340  Biso   1.000  H
  H15      1.0000 0.93690  0.85200  0.94340  Biso   1.000  H
  H16      1.0000 0.56310  0.35200  0.55660  Biso   1.000  H
  O13      1.0000 0.12487  0.61675  0.96677  Biso   1.000  O
  O14      1.0000 0.37513  0.11675  0.53323  Biso   1.000  O
  O15      1.0000 0.87513  0.38325  0.03323  Biso   1.000  O
  O16      1.0000 0.62487  0.88325  0.46677  Biso   1.000  O
  C13      1.0000 0.09052  0.05045  0.18115  Biso   1.000  C
  C14      1.0000 0.40948  0.55045  0.31885  Biso   1.000  C
  C15      1.0000 0.90948  0.94955  0.81885  Biso   1.000  C
  C16      1.0000 0.59052  0.44955  0.68115  Biso   1.000  C
  O17      1.0000 0.98620  0.58358  0.83107  Biso   1.000  O
  O18      1.0000 0.51380  0.08358  0.66893  Biso   1.000  O
  O19      1.0000 0.01380  0.41642  0.16893  Biso   1.000  O
  O20      1.0000 0.48620  0.91642  0.33107  Biso   1.000  O
  C17      1.0000 0.17689  0.02009  0.26268  Biso   1.000  C
  C18      1.0000 0.32311  0.52009  0.23732  Biso   1.000  C
  C19      1.0000 0.82311  0.97991  0.73732  Biso   1.000  C
  C20      1.0000 0.67689  0.47991  0.76268  Biso   1.000  C
  H17      1.0000 0.15860  0.96900  0.30850  Biso   1.000  H
  H18      1.0000 0.34140  0.46900  0.19150  Biso   1.000  H
  H19      1.0000 0.84140  0.03100  0.69150  Biso   1.000  H
  H20      1.0000 0.65860  0.53100  0.80850  Biso   1.000  H
  C21      1.0000 0.97211  0.99870  0.17739  Biso   1.000  C
  C22      1.0000 0.52789  0.49870  0.32261  Biso   1.000  C
  C23      1.0000 0.02789  0.00130  0.82261  Biso   1.000  C
  C24      1.0000 0.47211  0.50130  0.67739  Biso   1.000  C
  C25      1.0000 0.75947  0.99224  0.12366  Biso   1.000  C
  C26      1.0000 0.74053  0.49224  0.37634  Biso   1.000  C
  C27      1.0000 0.24053  0.00776  0.87634  Biso   1.000  C
  C28      1.0000 0.25947  0.50776  0.62366  Biso   1.000  C
  H21      1.0000 0.72930  0.99770  0.20140  Biso   1.000  H
  H22      1.0000 0.77070  0.49770  0.29860  Biso   1.000  H
  H23      1.0000 0.27070  0.00230  0.79860  Biso   1.000  H
  H24      1.0000 0.22930  0.50230  0.70140  Biso   1.000  H
  H25      1.0000 0.76840  0.92640  0.10680  Biso   1.000  H
  H26      1.0000 0.73160  0.42640  0.39320  Biso   1.000  H
  H27      1.0000 0.23160  0.07360  0.89320  Biso   1.000  H
  H28      1.0000 0.26840  0.57360  0.60680  Biso   1.000  H
  C29      1.0000 0.66811  0.03400  0.03807  Biso   1.000  C
  C30      1.0000 0.83189  0.53400  0.46193  Biso   1.000  C
  C31      1.0000 0.33189  0.96600  0.96193  Biso   1.000  C
  C32      1.0000 0.16811  0.46600  0.53807  Biso   1.000  C
  H29      1.0000 0.69840  0.03020  0.96020  Biso   1.000  H
  H30      1.0000 0.80160  0.53020  0.53980  Biso   1.000  H
  H31      1.0000 0.30160  0.96980  0.03980  Biso   1.000  H
  H32      1.0000 0.19840  0.46980  0.46020  Biso   1.000  H
  H33      1.0000 0.65600  0.09930  0.05640  Biso   1.000  H
  H34      1.0000 0.84400  0.59930  0.44360  Biso   1.000  H
  H35      1.0000 0.34400  0.90070  0.94360  Biso   1.000  H
  H36      1.0000 0.15600  0.40070  0.55640  Biso   1.000  H
  C33      1.0000 0.54785  0.98198  0.04276  Biso   1.000  C
  C34      1.0000 0.95215  0.48198  0.45724  Biso   1.000  C
  C35      1.0000 0.45215  0.01802  0.95724  Biso   1.000  C
  C36      1.0000 0.04785  0.51802  0.54276  Biso   1.000  C
  H37      1.0000 0.56160  0.91640  0.02730  Biso   1.000  H
  H38      1.0000 0.93840  0.41640  0.47270  Biso   1.000  H
  H39      1.0000 0.43840  0.08360  0.97270  Biso   1.000  H
  H40      1.0000 0.06160  0.58360  0.52730  Biso   1.000  H
  H41      1.0000 0.51790  0.98700  0.12060  Biso   1.000  H
  H42      1.0000 0.98210  0.48700  0.37940  Biso   1.000  H
  H43      1.0000 0.48210  0.01300  0.87940  Biso   1.000  H
  H44      1.0000 0.01790  0.51300  0.62060  Biso   1.000  H
  C37      1.0000 0.27144  0.82488  0.65815  Biso   1.000  C
  C38      1.0000 0.22856  0.32488  0.84185  Biso   1.000  C
  C39      1.0000 0.72856  0.17512  0.34185  Biso   1.000  C
  C40      1.0000 0.77144  0.67512  0.15815  Biso   1.000  C
  C41      1.0000 0.32358  0.77136  0.74417  Biso   1.000  C
  C42      1.0000 0.17642  0.27136  0.75583  Biso   1.000  C
  C43      1.0000 0.67642  0.22864  0.25583  Biso   1.000  C
  C44      1.0000 0.82358  0.72864  0.24417  Biso   1.000  C
  H45      1.0000 0.40600  0.77570  0.75890  Biso   1.000  H
  H46      1.0000 0.09400  0.27570  0.74110  Biso   1.000  H
  H47      1.0000 0.59400  0.22430  0.24110  Biso   1.000  H
  H48      1.0000 0.90600  0.72430  0.25890  Biso   1.000  H
  C45      1.0000 0.25587  0.71043  0.81019  Biso   1.000  C
  C46      1.0000 0.24413  0.21043  0.68981  Biso   1.000  C
  C47      1.0000 0.74413  0.28957  0.18981  Biso   1.000  C
  C48      1.0000 0.75587  0.78957  0.31019  Biso   1.000  C
  H49      1.0000 0.29410  0.67710  0.86980  Biso   1.000  H
  H50      1.0000 0.20590  0.17710  0.63020  Biso   1.000  H
  H51      1.0000 0.70590  0.32290  0.13020  Biso   1.000  H
  H52      1.0000 0.79410  0.82290  0.36980  Biso   1.000  H
  C49      1.0000 0.13521  0.69809  0.79020  Biso   1.000  C
  C50      1.0000 0.36479  0.19809  0.70980  Biso   1.000  C
  C51      1.0000 0.86479  0.30191  0.20980  Biso   1.000  C
  C52      1.0000 0.63521  0.80191  0.29020  Biso   1.000  C
  C53      1.0000 0.07588  0.62808  0.86768  Biso   1.000  C
  C54      1.0000 0.42412  0.12808  0.63232  Biso   1.000  C
  C55      1.0000 0.92412  0.37192  0.13232  Biso   1.000  C
  C56      1.0000 0.57588  0.87192  0.36768  Biso   1.000  C
  C57      1.0000 0.07577  0.74958  0.69846  Biso   1.000  C
  C58      1.0000 0.42423  0.24958  0.80154  Biso   1.000  C
  C59      1.0000 0.92423  0.25042  0.30154  Biso   1.000  C
  C60      1.0000 0.57577  0.75042  0.19846  Biso   1.000  C
  C61      1.0000 0.95190  0.73850  0.66896  Biso   1.000  C
  C62      1.0000 0.54810  0.23850  0.83104  Biso   1.000  C
  C63      1.0000 0.04810  0.26150  0.33104  Biso   1.000  C
  C64      1.0000 0.45190  0.76150  0.16896  Biso   1.000  C
  H53      1.0000 0.90750  0.69400  0.70770  Biso   1.000  H
  H54      1.0000 0.59250  0.19400  0.79230  Biso   1.000  H
  H55      1.0000 0.09250  0.30600  0.29230  Biso   1.000  H
  H56      1.0000 0.40750  0.80600  0.20770  Biso   1.000  H
  C65      1.0000 0.89684  0.79150  0.58536  Biso   1.000  C
  C66      1.0000 0.60316  0.29150  0.91464  Biso   1.000  C
  C67      1.0000 0.10316  0.20850  0.41464  Biso   1.000  C
  C68      1.0000 0.39684  0.70850  0.08536  Biso   1.000  C
  H57      1.0000 0.81610  0.78170  0.56590  Biso   1.000  H
  H58      1.0000 0.68390  0.28170  0.93410  Biso   1.000  H
  H59      1.0000 0.18390  0.21830  0.43410  Biso   1.000  H
  H60      1.0000 0.31610  0.71830  0.06590  Biso   1.000  H
  C69      1.0000 0.96130  0.86108  0.52810  Biso   1.000  C
  C70      1.0000 0.53870  0.36108  0.97190  Biso   1.000  C
  C71      1.0000 0.03870  0.13892  0.47190  Biso   1.000  C
  C72      1.0000 0.46130  0.63892  0.02810  Biso   1.000  C
  H61      1.0000 0.92190  0.89960  0.47430  Biso   1.000  H
  H62      1.0000 0.57810  0.39960  0.02570  Biso   1.000  H
  H63      1.0000 0.07810  0.10040  0.52570  Biso   1.000  H
  H64      1.0000 0.42190  0.60040  0.97430  Biso   1.000  H
  C73      1.0000 0.08155  0.87242  0.55124  Biso   1.000  C
  C74      1.0000 0.41845  0.37242  0.94876  Biso   1.000  C
  C75      1.0000 0.91845  0.12758  0.44876  Biso   1.000  C
  C76      1.0000 0.58155  0.62758  0.05124  Biso   1.000  C
  H65      1.0000 0.12330  0.91810  0.51160  Biso   1.000  H
  H66      1.0000 0.37670  0.41810  0.98840  Biso   1.000  H
  H67      1.0000 0.87670  0.08190  0.48840  Biso   1.000  H
  H68      1.0000 0.62330  0.58190  0.01160  Biso   1.000  H
  C77      1.0000 0.14415  0.81615  0.63423  Biso   1.000  C
  C78      1.0000 0.35585  0.31615  0.86577  Biso   1.000  C
  C79      1.0000 0.85585  0.18385  0.36577  Biso   1.000  C
  C80      1.0000 0.64415  0.68385  0.13423  Biso   1.000  C
  C81      1.0000 0.35393  0.88933  0.59425  Biso   1.000  C
  C82      1.0000 0.14607  0.38933  0.90575  Biso   1.000  C
  C83      1.0000 0.64607  0.11067  0.40575  Biso   1.000  C
  C84      1.0000 0.85393  0.61067  0.09425  Biso   1.000  C
  O21      1.0000 0.10540  0.80995  0.07120  Biso   1.000  O
  O22      1.0000 0.39460  0.30995  0.42880  Biso   1.000  O
  O23      1.0000 0.89460  0.19005  0.92880  Biso   1.000  O
  O24      1.0000 0.60540  0.69005  0.57120  Biso   1.000  O
  H69      1.0000 0.06900  0.83100  0.13300  Biso   1.000  H
  H70      1.0000 0.43100  0.33100  0.36700  Biso   1.000  H
  H71      1.0000 0.93100  0.16900  0.86700  Biso   1.000  H
  H72      1.0000 0.56900  0.66900  0.63300  Biso   1.000  H
  H73      1.0000 0.08700  0.75200  0.07000  Biso   1.000  H
  H74      1.0000 0.41300  0.25200  0.43000  Biso   1.000  H
  H75      1.0000 0.91300  0.24800  0.93000  Biso   1.000  H
  H76      1.0000 0.58700  0.74800  0.57000  Biso   1.000  H
