data_image0
_cell_length_a       8.259
_cell_length_b       8.707
_cell_length_c       19.798
_cell_angle_alpha    92.2
_cell_angle_beta     91.716
_cell_angle_gamma    106.706

_symmetry_space_group_name_H-M    "P 1"
_symmetry_int_tables_number       1

loop_
  _symmetry_equiv_pos_as_xyz
  'x, y, z'

loop_
  _atom_site_label
  _atom_site_occupancy
  _atom_site_fract_x
  _atom_site_fract_y
  _atom_site_fract_z
  _atom_site_thermal_displace_type
  _atom_site_B_iso_or_equiv
  _atom_site_type_symbol
  Cu1      1.0000 0.00000  0.50000  0.00000  Biso   1.000  Cu
  O1       1.0000 0.40200  0.92760  0.86350  Biso   1.000  O
  O2       1.0000 0.59800  0.07240  0.13650  Biso   1.000  O
  N1       1.0000 0.10910  0.73660  0.02080  Biso   1.000  N
  N2       1.0000 0.89090  0.26340  0.97920  Biso   1.000  N
  C1       1.0000 0.08900  0.80530  0.08030  Biso   1.000  C
  C2       1.0000 0.91100  0.19470  0.91970  Biso   1.000  C
  H1       1.0000 0.03310  0.74010  0.11360  Biso   1.000  H
  H2       1.0000 0.96690  0.25990  0.88640  Biso   1.000  H
  Cu2      1.0000 0.50000  0.50000  0.50000  Biso   1.000  Cu
  N3       1.0000 0.33080  0.10080  0.93510  Biso   1.000  N
  N4       1.0000 0.66920  0.89920  0.06490  Biso   1.000  N
  H3       1.0000 0.33520  0.20000  0.94220  Biso   1.000  H
  H4       1.0000 0.66480  0.80000  0.05780  Biso   1.000  H
  O3       1.0000 0.92100  0.21740  0.59050  Biso   1.000  O
  O4       1.0000 0.07900  0.78260  0.40950  Biso   1.000  O
  C3       1.0000 0.14620  0.96500  0.09420  Biso   1.000  C
  C4       1.0000 0.85380  0.03500  0.90580  Biso   1.000  C
  H5       1.0000 0.13150  0.00860  0.13640  Biso   1.000  H
  H6       1.0000 0.86850  0.99140  0.86360  Biso   1.000  H
  O5       1.0000 0.27210  0.44570  0.10460  Biso   1.000  O
  O6       1.0000 0.72790  0.55430  0.89540  Biso   1.000  O
  N5       1.0000 0.68900  0.06330  0.63850  Biso   1.000  N
  N6       1.0000 0.31100  0.93670  0.36150  Biso   1.000  N
  H7       1.0000 0.65550  0.99720  0.66980  Biso   1.000  H
  H8       1.0000 0.34450  0.00280  0.33020  Biso   1.000  H
  C5       1.0000 0.22620  0.06140  0.04530  Biso   1.000  C
  C6       1.0000 0.77380  0.93860  0.95470  Biso   1.000  C
  H9       1.0000 0.26410  0.17200  0.05380  Biso   1.000  H
  H10      1.0000 0.73590  0.82800  0.94620  Biso   1.000  H
  O7       1.0000 0.00840  0.45890  0.09489  Biso   1.000  O
  O8       1.0000 0.99160  0.54110  0.90511  Biso   1.000  O
  C7       1.0000 0.25110  0.99610  0.98370  Biso   1.000  C
  C8       1.0000 0.74890  0.00390  0.01630  Biso   1.000  C
  N7       1.0000 0.46180  0.27660  0.53230  Biso   1.000  N
  N8       1.0000 0.53820  0.72340  0.46770  Biso   1.000  N
  O9       1.0000 0.75240  0.48480  0.43810  Biso   1.000  O
  O10      1.0000 0.24760  0.51520  0.56190  Biso   1.000  O
  H11      1.0000 0.79280  0.41730  0.45620  Biso   1.000  H
  H12      1.0000 0.20720  0.58270  0.54380  Biso   1.000  H
  H13      1.0000 0.83680  0.56430  0.42790  Biso   1.000  H
  H14      1.0000 0.16320  0.43570  0.57210  Biso   1.000  H
  O11      1.0000 0.51350  0.42610  0.33540  Biso   1.000  O
  O12      1.0000 0.48650  0.57390  0.66460  Biso   1.000  O
  C9       1.0000 0.19060  0.83320  0.97340  Biso   1.000  C
  C10      1.0000 0.80940  0.16680  0.02660  Biso   1.000  C
  H15      1.0000 0.20630  0.78710  0.93190  Biso   1.000  H
  H16      1.0000 0.79370  0.21290  0.06810  Biso   1.000  H
  C11      1.0000 0.40090  0.06530  0.87910  Biso   1.000  C
  C12      1.0000 0.59910  0.93470  0.12090  Biso   1.000  C
  O13      1.0000 0.34650  0.41270  0.42180  Biso   1.000  O
  O14      1.0000 0.65350  0.58730  0.57820  Biso   1.000  O
  C13      1.0000 0.47400  0.20070  0.83400  Biso   1.000  C
  C14      1.0000 0.52600  0.79930  0.16600  Biso   1.000  C
  H17      1.0000 0.58760  0.19980  0.82340  Biso   1.000  H
  H18      1.0000 0.41240  0.80020  0.17660  Biso   1.000  H
  H19      1.0000 0.48270  0.30140  0.85870  Biso   1.000  H
  H20      1.0000 0.51730  0.69860  0.14130  Biso   1.000  H
  C15      1.0000 0.37300  0.19400  0.76900  Biso   1.000  C
  C16      1.0000 0.62700  0.80600  0.23100  Biso   1.000  C
  H21      1.0000 0.40600  0.30190  0.75220  Biso   1.000  H
  H22      1.0000 0.59400  0.69810  0.24780  Biso   1.000  H
  H23      1.0000 0.41120  0.12700  0.73660  Biso   1.000  H
  H24      1.0000 0.58880  0.87300  0.26340  Biso   1.000  H
  C17      1.0000 0.21030  0.14620  0.76500  Biso   1.000  C
  C18      1.0000 0.78970  0.85380  0.23500  Biso   1.000  C
  H25      1.0000 0.17550  0.17910  0.80820  Biso   1.000  H
  H26      1.0000 0.82450  0.82090  0.19180  Biso   1.000  H
  H27      1.0000 0.18100  0.03000  0.76420  Biso   1.000  H
  H28      1.0000 0.81900  0.97000  0.23580  Biso   1.000  H
  C19      1.0000 0.09280  0.18290  0.71340  Biso   1.000  C
  C20      1.0000 0.90720  0.81710  0.28660  Biso   1.000  C
  H29      1.0000 0.05450  0.26890  0.73350  Biso   1.000  H
  H30      1.0000 0.94550  0.73110  0.26650  Biso   1.000  H
  H31      1.0000 0.16160  0.22780  0.67610  Biso   1.000  H
  H32      1.0000 0.83840  0.77220  0.32390  Biso   1.000  H
  C21      1.0000 0.96130  0.07980  0.68710  Biso   1.000  C
  C22      1.0000 0.03870  0.92020  0.31290  Biso   1.000  C
  H33      1.0000 0.88850  0.03830  0.72380  Biso   1.000  H
  H34      1.0000 0.11150  0.96170  0.27620  Biso   1.000  H
  H35      1.0000 0.99740  0.99130  0.66810  Biso   1.000  H
  H36      1.0000 0.00260  0.00870  0.33190  Biso   1.000  H
  C23      1.0000 0.85390  0.12460  0.63370  Biso   1.000  C
  C24      1.0000 0.14610  0.87540  0.36630  Biso   1.000  C
  C25      1.0000 0.56200  0.09630  0.59650  Biso   1.000  C
  C26      1.0000 0.43800  0.90370  0.40350  Biso   1.000  C
  C27      1.0000 0.40890  0.98130  0.58600  Biso   1.000  C
  C28      1.0000 0.59110  0.01870  0.41400  Biso   1.000  C
  H37      1.0000 0.39070  0.88080  0.60400  Biso   1.000  H
  H38      1.0000 0.60930  0.11920  0.39600  Biso   1.000  H
  C29      1.0000 0.28420  0.01690  0.54890  Biso   1.000  C
  C30      1.0000 0.71580  0.98310  0.45110  Biso   1.000  C
  H39      1.0000 0.17900  0.94140  0.54170  Biso   1.000  H
  H40      1.0000 0.82100  0.05860  0.45830  Biso   1.000  H
  C31      1.0000 0.31530  0.16510  0.52240  Biso   1.000  C
  C32      1.0000 0.68470  0.83490  0.47760  Biso   1.000  C
  H41      1.0000 0.23010  0.18790  0.49650  Biso   1.000  H
  H42      1.0000 0.76990  0.81210  0.50350  Biso   1.000  H
  C33      1.0000 0.58590  0.24060  0.56800  Biso   1.000  C
  C34      1.0000 0.41410  0.75940  0.43200  Biso   1.000  C
  H43      1.0000 0.69130  0.31660  0.57350  Biso   1.000  H
  H44      1.0000 0.30870  0.68340  0.42650  Biso   1.000  H
  C35      1.0000 0.13450  0.44090  0.12850  Biso   1.000  C
  C36      1.0000 0.86550  0.55910  0.87150  Biso   1.000  C
  C37      1.0000 0.10920  0.41390  0.20190  Biso   1.000  C
  C38      1.0000 0.89080  0.58610  0.79810  Biso   1.000  C
  C39      1.0000 0.95040  0.38460  0.22700  Biso   1.000  C
  C40      1.0000 0.04960  0.61540  0.77300  Biso   1.000  C
  H45      1.0000 0.85790  0.37940  0.19810  Biso   1.000  H
  H46      1.0000 0.14210  0.62060  0.80190  Biso   1.000  H
  C41      1.0000 0.92810  0.36290  0.29500  Biso   1.000  C
  C42      1.0000 0.07190  0.63710  0.70500  Biso   1.000  C
  H47      1.0000 0.82070  0.34280  0.31220  Biso   1.000  H
  H48      1.0000 0.17930  0.65720  0.68780  Biso   1.000  H
  C43      1.0000 0.06590  0.37120  0.33760  Biso   1.000  C
  C44      1.0000 0.93410  0.62880  0.66240  Biso   1.000  C
  H49      1.0000 0.05040  0.35720  0.38350  Biso   1.000  H
  H50      1.0000 0.94960  0.64280  0.61650  Biso   1.000  H
  C45      1.0000 0.22430  0.39960  0.31370  Biso   1.000  C
  C46      1.0000 0.77570  0.60040  0.68630  Biso   1.000  C
  C47      1.0000 0.24490  0.42060  0.24470  Biso   1.000  C
  C48      1.0000 0.75510  0.57940  0.75530  Biso   1.000  C
  H51      1.0000 0.35200  0.43940  0.22750  Biso   1.000  H
  H52      1.0000 0.64800  0.56060  0.77250  Biso   1.000  H
  C49      1.0000 0.37470  0.41430  0.36000  Biso   1.000  C
  C50      1.0000 0.62530  0.58570  0.64000  Biso   1.000  C
  O15      1.0000 0.71640  0.58430  0.03220  Biso   1.000  O
  O16      1.0000 0.28360  0.41570  0.96780  Biso   1.000  O
  H53      1.0000 0.68100  0.52710  0.99600  Biso   1.000  H
  H54      1.0000 0.31900  0.47290  0.00400  Biso   1.000  H
  H55      1.0000 0.76520  0.53290  0.05730  Biso   1.000  H
  H56      1.0000 0.23480  0.46710  0.94270  Biso   1.000  H
  C51      1.0000 0.33300  0.24300  0.79400  Biso   1.000  C
  C52      1.0000 0.66700  0.75700  0.20600  Biso   1.000  C
  H57      1.0000 0.28820  0.30750  0.82480  Biso   1.000  H
  H58      1.0000 0.71180  0.69250  0.17520  Biso   1.000  H
  H59      1.0000 0.38910  0.31350  0.75970  Biso   1.000  H
  H60      1.0000 0.61090  0.68650  0.24030  Biso   1.000  H
  O17      1.0000 0.54730  0.86220  0.74270  Biso   1.000  O
  O18      1.0000 0.45270  0.13780  0.25730  Biso   1.000  O
  H61      1.0000 0.45270  0.86680  0.75690  Biso   1.000  H
  H62      1.0000 0.54730  0.13320  0.24310  Biso   1.000  H
  H63      1.0000 0.53630  0.76700  0.72820  Biso   1.000  H
  H64      1.0000 0.46370  0.23300  0.27180  Biso   1.000  H
  O19      1.0000 0.57090  0.38130  0.12340  Biso   1.000  O
  O20      1.0000 0.42910  0.61870  0.87660  Biso   1.000  O
  H65      1.0000 0.55760  0.28250  0.11370  Biso   1.000  H
  H66      1.0000 0.44240  0.71750  0.88630  Biso   1.000  H
  H67      1.0000 0.48270  0.38960  0.14230  Biso   1.000  H
  H68      1.0000 0.51730  0.61040  0.85770  Biso   1.000  H
