data_image0
_cell_length_a       12.2612
_cell_length_b       16.8753
_cell_length_c       18.5387
_cell_angle_alpha    90
_cell_angle_beta     90
_cell_angle_gamma    90

_symmetry_space_group_name_H-M    "P 1"
_symmetry_int_tables_number       1

loop_
  _symmetry_equiv_pos_as_xyz
  'x, y, z'

loop_
  _atom_site_label
  _atom_site_occupancy
  _atom_site_fract_x
  _atom_site_fract_y
  _atom_site_fract_z
  _atom_site_thermal_displace_type
  _atom_site_B_iso_or_equiv
  _atom_site_type_symbol
  Cu1      1.0000 0.18446  0.97237  0.53565  Biso   1.000  Cu
  Cu2      1.0000 0.81554  0.02763  0.03565  Biso   1.000  Cu
  Cu3      1.0000 0.18446  0.52763  0.46436  Biso   1.000  Cu
  Cu4      1.0000 0.81554  0.47237  0.96435  Biso   1.000  Cu
  Cu5      1.0000 0.81554  0.02763  0.46436  Biso   1.000  Cu
  Cu6      1.0000 0.18446  0.97237  0.96435  Biso   1.000  Cu
  Cu7      1.0000 0.81554  0.47237  0.53565  Biso   1.000  Cu
  Cu8      1.0000 0.18446  0.52763  0.03565  Biso   1.000  Cu
  N1       1.0000 0.32228  0.03704  0.52899  Biso   1.000  N
  N2       1.0000 0.67772  0.96296  0.02899  Biso   1.000  N
  N3       1.0000 0.32228  0.46296  0.47101  Biso   1.000  N
  N4       1.0000 0.67772  0.53704  0.97101  Biso   1.000  N
  N5       1.0000 0.67772  0.96296  0.47101  Biso   1.000  N
  N6       1.0000 0.32228  0.03704  0.97101  Biso   1.000  N
  N7       1.0000 0.67772  0.53704  0.52899  Biso   1.000  N
  N8       1.0000 0.32228  0.46296  0.02899  Biso   1.000  N
  O1       1.0000 0.14861  0.03050  0.62381  Biso   1.000  O
  O2       1.0000 0.85139  0.96950  0.12381  Biso   1.000  O
  O3       1.0000 0.14861  0.46950  0.37619  Biso   1.000  O
  O4       1.0000 0.85139  0.53050  0.87619  Biso   1.000  O
  O5       1.0000 0.85139  0.96950  0.37619  Biso   1.000  O
  O6       1.0000 0.14861  0.03050  0.87619  Biso   1.000  O
  O7       1.0000 0.85139  0.53050  0.62381  Biso   1.000  O
  O8       1.0000 0.14861  0.46950  0.12381  Biso   1.000  O
  C1       1.0000 0.39940  0.03119  0.58034  Biso   1.000  C
  C2       1.0000 0.60060  0.96881  0.08034  Biso   1.000  C
  C3       1.0000 0.39940  0.46881  0.41966  Biso   1.000  C
  C4       1.0000 0.60060  0.53119  0.91966  Biso   1.000  C
  C5       1.0000 0.60060  0.96881  0.41966  Biso   1.000  C
  C6       1.0000 0.39940  0.03119  0.91966  Biso   1.000  C
  C7       1.0000 0.60060  0.53119  0.58034  Biso   1.000  C
  C8       1.0000 0.39940  0.46881  0.08034  Biso   1.000  C
  H1       1.0000 0.38760  0.99700  0.61890  Biso   1.000  H
  H2       1.0000 0.61240  0.00300  0.11890  Biso   1.000  H
  H3       1.0000 0.38760  0.50300  0.38110  Biso   1.000  H
  H4       1.0000 0.61240  0.49700  0.88110  Biso   1.000  H
  H5       1.0000 0.61240  0.00300  0.38110  Biso   1.000  H
  H6       1.0000 0.38760  0.99700  0.88110  Biso   1.000  H
  H7       1.0000 0.61240  0.49700  0.61890  Biso   1.000  H
  H8       1.0000 0.38760  0.50300  0.11890  Biso   1.000  H
  O9       1.0000 0.25541  0.86833  0.60373  Biso   1.000  O
  O10      1.0000 0.74459  0.13167  0.10373  Biso   1.000  O
  O11      1.0000 0.25541  0.63167  0.39627  Biso   1.000  O
  O12      1.0000 0.74459  0.36833  0.89627  Biso   1.000  O
  O13      1.0000 0.74459  0.13167  0.39627  Biso   1.000  O
  O14      1.0000 0.25541  0.86833  0.89627  Biso   1.000  O
  O15      1.0000 0.74459  0.36833  0.60373  Biso   1.000  O
  O16      1.0000 0.25541  0.63167  0.10373  Biso   1.000  O
  H9       1.0000 0.21170  0.83280  0.61870  Biso   1.000  H
  H10      1.0000 0.78830  0.16720  0.11870  Biso   1.000  H
  H11      1.0000 0.21170  0.66720  0.38130  Biso   1.000  H
  H12      1.0000 0.78830  0.33280  0.88130  Biso   1.000  H
  H13      1.0000 0.78830  0.16720  0.38130  Biso   1.000  H
  H14      1.0000 0.21170  0.83280  0.88130  Biso   1.000  H
  H15      1.0000 0.78830  0.33280  0.61870  Biso   1.000  H
  H16      1.0000 0.21170  0.66720  0.11870  Biso   1.000  H
  H17      1.0000 0.31920  0.85560  0.61740  Biso   1.000  H
  H18      1.0000 0.68080  0.14440  0.11740  Biso   1.000  H
  H19      1.0000 0.31920  0.64440  0.38260  Biso   1.000  H
  H20      1.0000 0.68080  0.35560  0.88260  Biso   1.000  H
  H21      1.0000 0.68080  0.14440  0.38260  Biso   1.000  H
  H22      1.0000 0.31920  0.85560  0.88260  Biso   1.000  H
  H23      1.0000 0.68080  0.35560  0.61740  Biso   1.000  H
  H24      1.0000 0.31920  0.64440  0.11740  Biso   1.000  H
  N9       1.0000 0.36253  0.22752  0.38278  Biso   1.000  N
  N10      1.0000 0.63747  0.77248  0.88278  Biso   1.000  N
  N11      1.0000 0.36253  0.27248  0.61722  Biso   1.000  N
  N12      1.0000 0.63747  0.72752  0.11722  Biso   1.000  N
  N13      1.0000 0.63747  0.77248  0.61722  Biso   1.000  N
  N14      1.0000 0.36253  0.22752  0.11722  Biso   1.000  N
  N15      1.0000 0.63747  0.72752  0.38278  Biso   1.000  N
  N16      1.0000 0.36253  0.27248  0.88278  Biso   1.000  N
  H25      1.0000 0.30290  0.22490  0.40700  Biso   1.000  H
  H26      1.0000 0.69710  0.77510  0.90700  Biso   1.000  H
  H27      1.0000 0.30290  0.27510  0.59300  Biso   1.000  H
  H28      1.0000 0.69710  0.72490  0.09300  Biso   1.000  H
  H29      1.0000 0.69710  0.77510  0.59300  Biso   1.000  H
  H30      1.0000 0.30290  0.22490  0.09300  Biso   1.000  H
  H31      1.0000 0.69710  0.72490  0.40700  Biso   1.000  H
  H32      1.0000 0.30290  0.27510  0.90700  Biso   1.000  H
  O17      1.0000 0.08460  0.13000  0.55713  Biso   1.000  O
  O18      1.0000 0.91540  0.87000  0.05713  Biso   1.000  O
  O19      1.0000 0.08460  0.37000  0.44287  Biso   1.000  O
  O20      1.0000 0.91540  0.63000  0.94287  Biso   1.000  O
  O21      1.0000 0.91540  0.87000  0.44287  Biso   1.000  O
  O22      1.0000 0.08460  0.13000  0.94287  Biso   1.000  O
  O23      1.0000 0.91540  0.63000  0.55713  Biso   1.000  O
  O24      1.0000 0.08460  0.37000  0.05713  Biso   1.000  O
  C9       1.0000 0.49540  0.07409  0.57790  Biso   1.000  C
  C10      1.0000 0.50460  0.92591  0.07790  Biso   1.000  C
  C11      1.0000 0.49540  0.42591  0.42210  Biso   1.000  C
  C12      1.0000 0.50460  0.57409  0.92210  Biso   1.000  C
  C13      1.0000 0.50460  0.92591  0.42210  Biso   1.000  C
  C14      1.0000 0.49540  0.07409  0.92210  Biso   1.000  C
  C15      1.0000 0.50460  0.57409  0.57790  Biso   1.000  C
  C16      1.0000 0.49540  0.42591  0.07790  Biso   1.000  C
  H33      1.0000 0.54740  0.06850  0.61410  Biso   1.000  H
  H34      1.0000 0.45260  0.93150  0.11410  Biso   1.000  H
  H35      1.0000 0.54740  0.43150  0.38590  Biso   1.000  H
  H36      1.0000 0.45260  0.56850  0.88590  Biso   1.000  H
  H37      1.0000 0.45260  0.93150  0.38590  Biso   1.000  H
  H38      1.0000 0.54740  0.06850  0.88590  Biso   1.000  H
  H39      1.0000 0.45260  0.56850  0.61410  Biso   1.000  H
  H40      1.0000 0.54740  0.43150  0.11410  Biso   1.000  H
  O25      1.0000 0.04460  0.91827  0.54696  Biso   1.000  O
  O26      1.0000 0.95540  0.08173  0.04696  Biso   1.000  O
  O27      1.0000 0.04460  0.58173  0.45304  Biso   1.000  O
  O28      1.0000 0.95540  0.41827  0.95304  Biso   1.000  O
  O29      1.0000 0.95540  0.08173  0.45304  Biso   1.000  O
  O30      1.0000 0.04460  0.91827  0.95304  Biso   1.000  O
  O31      1.0000 0.95540  0.41827  0.54696  Biso   1.000  O
  O32      1.0000 0.04460  0.58173  0.04696  Biso   1.000  O
  H41      1.0000 0.01260  0.87770  0.52980  Biso   1.000  H
  H42      1.0000 0.98740  0.12230  0.02980  Biso   1.000  H
  H43      1.0000 0.01260  0.62230  0.47020  Biso   1.000  H
  H44      1.0000 0.98740  0.37770  0.97020  Biso   1.000  H
  H45      1.0000 0.98740  0.12230  0.47020  Biso   1.000  H
  H46      1.0000 0.01260  0.87770  0.97020  Biso   1.000  H
  H47      1.0000 0.98740  0.37770  0.52980  Biso   1.000  H
  H48      1.0000 0.01260  0.62230  0.02980  Biso   1.000  H
  H49      1.0000 0.00710  0.93490  0.58240  Biso   1.000  H
  H50      1.0000 0.99290  0.06510  0.08240  Biso   1.000  H
  H51      1.0000 0.00710  0.56510  0.41760  Biso   1.000  H
  H52      1.0000 0.99290  0.43490  0.91760  Biso   1.000  H
  H53      1.0000 0.99290  0.06510  0.41760  Biso   1.000  H
  H54      1.0000 0.00710  0.93490  0.91760  Biso   1.000  H
  H55      1.0000 0.99290  0.43490  0.58240  Biso   1.000  H
  H56      1.0000 0.00710  0.56510  0.08240  Biso   1.000  H
  O33      1.0000 0.21411  0.91870  0.44382  Biso   1.000  O
  O34      1.0000 0.78589  0.08130  0.94382  Biso   1.000  O
  O35      1.0000 0.21411  0.58130  0.55618  Biso   1.000  O
  O36      1.0000 0.78589  0.41870  0.05618  Biso   1.000  O
  O37      1.0000 0.78589  0.08130  0.55618  Biso   1.000  O
  O38      1.0000 0.21411  0.91870  0.05618  Biso   1.000  O
  O39      1.0000 0.78589  0.41870  0.44382  Biso   1.000  O
  O40      1.0000 0.21411  0.58130  0.94382  Biso   1.000  O
  C17      1.0000 0.51310  0.12529  0.52119  Biso   1.000  C
  C18      1.0000 0.48690  0.87471  0.02119  Biso   1.000  C
  C19      1.0000 0.51310  0.37471  0.47881  Biso   1.000  C
  C20      1.0000 0.48690  0.62529  0.97881  Biso   1.000  C
  C21      1.0000 0.48690  0.87471  0.47881  Biso   1.000  C
  C22      1.0000 0.51310  0.12529  0.97881  Biso   1.000  C
  C23      1.0000 0.48690  0.62529  0.52119  Biso   1.000  C
  C24      1.0000 0.51310  0.37471  0.02119  Biso   1.000  C
  H57      1.0000 0.57790  0.15370  0.51790  Biso   1.000  H
  H58      1.0000 0.42210  0.84630  0.01790  Biso   1.000  H
  H59      1.0000 0.57790  0.34630  0.48210  Biso   1.000  H
  H60      1.0000 0.42210  0.65370  0.98210  Biso   1.000  H
  H61      1.0000 0.42210  0.84630  0.48210  Biso   1.000  H
  H62      1.0000 0.57790  0.15370  0.98210  Biso   1.000  H
  H63      1.0000 0.42210  0.65370  0.51790  Biso   1.000  H
  H64      1.0000 0.57790  0.34630  0.01790  Biso   1.000  H
  O41      1.0000 0.12565  0.01285  0.38369  Biso   1.000  O
  O42      1.0000 0.87435  0.98715  0.88369  Biso   1.000  O
  O43      1.0000 0.12565  0.48715  0.61631  Biso   1.000  O
  O44      1.0000 0.87435  0.51285  0.11631  Biso   1.000  O
  O45      1.0000 0.87435  0.98715  0.61631  Biso   1.000  O
  O46      1.0000 0.12565  0.01285  0.11631  Biso   1.000  O
  O47      1.0000 0.87435  0.51285  0.38369  Biso   1.000  O
  O48      1.0000 0.12565  0.48715  0.88369  Biso   1.000  O
  C25      1.0000 0.43220  0.13386  0.46870  Biso   1.000  C
  C26      1.0000 0.56780  0.86614  0.96870  Biso   1.000  C
  C27      1.0000 0.43220  0.36614  0.53130  Biso   1.000  C
  C28      1.0000 0.56780  0.63386  0.03130  Biso   1.000  C
  C29      1.0000 0.56780  0.86614  0.53130  Biso   1.000  C
  C30      1.0000 0.43220  0.13386  0.03130  Biso   1.000  C
  C31      1.0000 0.56780  0.63386  0.46870  Biso   1.000  C
  C32      1.0000 0.43220  0.36614  0.96870  Biso   1.000  C
  O49      1.0000 0.53940  0.19265  0.37596  Biso   1.000  O
  O50      1.0000 0.46060  0.80735  0.87596  Biso   1.000  O
  O51      1.0000 0.53940  0.30735  0.62404  Biso   1.000  O
  O52      1.0000 0.46060  0.69265  0.12404  Biso   1.000  O
  O53      1.0000 0.46060  0.80735  0.62404  Biso   1.000  O
  O54      1.0000 0.53940  0.19265  0.12404  Biso   1.000  O
  O55      1.0000 0.46060  0.69265  0.37596  Biso   1.000  O
  O56      1.0000 0.53940  0.30735  0.87596  Biso   1.000  O
  C33      1.0000 0.33850  0.08832  0.47460  Biso   1.000  C
  C34      1.0000 0.66150  0.91168  0.97460  Biso   1.000  C
  C35      1.0000 0.33850  0.41168  0.52540  Biso   1.000  C
  C36      1.0000 0.66150  0.58832  0.02540  Biso   1.000  C
  C37      1.0000 0.66150  0.91168  0.52540  Biso   1.000  C
  C38      1.0000 0.33850  0.08832  0.02540  Biso   1.000  C
  C39      1.0000 0.66150  0.58832  0.47460  Biso   1.000  C
  C40      1.0000 0.33850  0.41168  0.97460  Biso   1.000  C
  H65      1.0000 0.28480  0.09350  0.43950  Biso   1.000  H
  H66      1.0000 0.71520  0.90650  0.93950  Biso   1.000  H
  H67      1.0000 0.28480  0.40650  0.56050  Biso   1.000  H
  H68      1.0000 0.71520  0.59350  0.06050  Biso   1.000  H
  H69      1.0000 0.71520  0.90650  0.56050  Biso   1.000  H
  H70      1.0000 0.28480  0.09350  0.06050  Biso   1.000  H
  H71      1.0000 0.71520  0.59350  0.43950  Biso   1.000  H
  H72      1.0000 0.28480  0.40650  0.93950  Biso   1.000  H
  C41      1.0000 0.44910  0.18732  0.40542  Biso   1.000  C
  C42      1.0000 0.55090  0.81268  0.90542  Biso   1.000  C
  C43      1.0000 0.44910  0.31268  0.59458  Biso   1.000  C
  C44      1.0000 0.55090  0.68732  0.09458  Biso   1.000  C
  C45      1.0000 0.55090  0.81268  0.59458  Biso   1.000  C
  C46      1.0000 0.44910  0.18732  0.09458  Biso   1.000  C
  C47      1.0000 0.55090  0.68732  0.40542  Biso   1.000  C
  C48      1.0000 0.44910  0.31268  0.90542  Biso   1.000  C
  C49      1.0000 0.36620  0.27602  0.31784  Biso   1.000  C
  C50      1.0000 0.63380  0.72398  0.81784  Biso   1.000  C
  C51      1.0000 0.36620  0.22398  0.68216  Biso   1.000  C
  C52      1.0000 0.63380  0.77602  0.18216  Biso   1.000  C
  C53      1.0000 0.63380  0.72398  0.68216  Biso   1.000  C
  C54      1.0000 0.36620  0.27602  0.18216  Biso   1.000  C
  C55      1.0000 0.63380  0.77602  0.31784  Biso   1.000  C
  C56      1.0000 0.36620  0.22398  0.81784  Biso   1.000  C
  H73      1.0000 0.43630  0.30250  0.31510  Biso   1.000  H
  H74      1.0000 0.56370  0.69750  0.81510  Biso   1.000  H
  H75      1.0000 0.43630  0.19750  0.68490  Biso   1.000  H
  H76      1.0000 0.56370  0.80250  0.18490  Biso   1.000  H
  H77      1.0000 0.56370  0.69750  0.68490  Biso   1.000  H
  H78      1.0000 0.43630  0.30250  0.18490  Biso   1.000  H
  H79      1.0000 0.56370  0.80250  0.31510  Biso   1.000  H
  H80      1.0000 0.43630  0.19750  0.81510  Biso   1.000  H
  H81      1.0000 0.31010  0.31640  0.32060  Biso   1.000  H
  H82      1.0000 0.68990  0.68360  0.82060  Biso   1.000  H
  H83      1.0000 0.31010  0.18360  0.67940  Biso   1.000  H
  H84      1.0000 0.68990  0.81640  0.17940  Biso   1.000  H
  H85      1.0000 0.68990  0.68360  0.67940  Biso   1.000  H
  H86      1.0000 0.31010  0.31640  0.17940  Biso   1.000  H
  H87      1.0000 0.68990  0.81640  0.32060  Biso   1.000  H
  H88      1.0000 0.31010  0.18360  0.82060  Biso   1.000  H
  C57      1.0000 0.34930  0.22710  0.25000  Biso   1.000  C
  C58      1.0000 0.65070  0.77290  0.75000  Biso   1.000  C
  C59      1.0000 0.34930  0.27290  0.75000  Biso   1.000  C
  C60      1.0000 0.65070  0.72710  0.25000  Biso   1.000  C
  H89      1.0000 0.39990  0.18290  0.25000  Biso   1.000  H
  H90      1.0000 0.60010  0.81710  0.75000  Biso   1.000  H
  H91      1.0000 0.39990  0.31710  0.75000  Biso   1.000  H
  H92      1.0000 0.60010  0.68290  0.25000  Biso   1.000  H
  H93      1.0000 0.27580  0.20560  0.25000  Biso   1.000  H
  H94      1.0000 0.72420  0.79440  0.75000  Biso   1.000  H
  H95      1.0000 0.27580  0.29440  0.75000  Biso   1.000  H
  H96      1.0000 0.72420  0.70560  0.25000  Biso   1.000  H
  C61      1.0000 0.10550  0.09859  0.61689  Biso   1.000  C
  C62      1.0000 0.89450  0.90141  0.11689  Biso   1.000  C
  C63      1.0000 0.10550  0.40141  0.38311  Biso   1.000  C
  C64      1.0000 0.89450  0.59859  0.88311  Biso   1.000  C
  C65      1.0000 0.89450  0.90141  0.38311  Biso   1.000  C
  C66      1.0000 0.10550  0.09859  0.88311  Biso   1.000  C
  C67      1.0000 0.89450  0.59859  0.61689  Biso   1.000  C
  C68      1.0000 0.10550  0.40141  0.11689  Biso   1.000  C
  C69      1.0000 0.07982  0.14216  0.68478  Biso   1.000  C
  C70      1.0000 0.92018  0.85784  0.18478  Biso   1.000  C
  C71      1.0000 0.07982  0.35784  0.31522  Biso   1.000  C
  C72      1.0000 0.92018  0.64216  0.81522  Biso   1.000  C
  C73      1.0000 0.92018  0.85784  0.31522  Biso   1.000  C
  C74      1.0000 0.07982  0.14216  0.81522  Biso   1.000  C
  C75      1.0000 0.92018  0.64216  0.68478  Biso   1.000  C
  C76      1.0000 0.07982  0.35784  0.18478  Biso   1.000  C
  C77      1.0000 0.03200  0.21649  0.68506  Biso   1.000  C
  C78      1.0000 0.96800  0.78351  0.18506  Biso   1.000  C
  C79      1.0000 0.03200  0.28351  0.31494  Biso   1.000  C
  C80      1.0000 0.96800  0.71649  0.81494  Biso   1.000  C
  C81      1.0000 0.96800  0.78351  0.31494  Biso   1.000  C
  C82      1.0000 0.03200  0.21649  0.81494  Biso   1.000  C
  C83      1.0000 0.96800  0.71649  0.68506  Biso   1.000  C
  C84      1.0000 0.03200  0.28351  0.18506  Biso   1.000  C
  H97      1.0000 0.01560  0.24160  0.64170  Biso   1.000  H
  H98      1.0000 0.98440  0.75840  0.14170  Biso   1.000  H
  H99      1.0000 0.01560  0.25840  0.35830  Biso   1.000  H
  H100     1.0000 0.98440  0.74160  0.85830  Biso   1.000  H
  H101     1.0000 0.98440  0.75840  0.35830  Biso   1.000  H
  H102     1.0000 0.01560  0.24160  0.85830  Biso   1.000  H
  H103     1.0000 0.98440  0.74160  0.64170  Biso   1.000  H
  H104     1.0000 0.01560  0.25840  0.14170  Biso   1.000  H
  C85      1.0000 0.00880  0.25330  0.75000  Biso   1.000  C
  C86      1.0000 0.99120  0.74670  0.25000  Biso   1.000  C
  C87      1.0000 0.00880  0.24670  0.25000  Biso   1.000  C
  C88      1.0000 0.99120  0.75330  0.75000  Biso   1.000  C
  H105     1.0000 0.97710  0.30340  0.75000  Biso   1.000  H
  H106     1.0000 0.02290  0.69660  0.25000  Biso   1.000  H
  H107     1.0000 0.97710  0.19660  0.25000  Biso   1.000  H
  H108     1.0000 0.02290  0.80340  0.75000  Biso   1.000  H
  C89      1.0000 0.10320  0.10570  0.75000  Biso   1.000  C
  C90      1.0000 0.89680  0.89430  0.25000  Biso   1.000  C
  C91      1.0000 0.10320  0.39430  0.25000  Biso   1.000  C
  C92      1.0000 0.89680  0.60570  0.75000  Biso   1.000  C
  H109     1.0000 0.13520  0.05580  0.75000  Biso   1.000  H
  H110     1.0000 0.86480  0.94420  0.25000  Biso   1.000  H
  H111     1.0000 0.13520  0.44420  0.25000  Biso   1.000  H
  H112     1.0000 0.86480  0.55580  0.75000  Biso   1.000  H
  C93      1.0000 0.18017  0.95129  0.38547  Biso   1.000  C
  C94      1.0000 0.81983  0.04871  0.88547  Biso   1.000  C
  C95      1.0000 0.18017  0.54871  0.61453  Biso   1.000  C
  C96      1.0000 0.81983  0.45129  0.11453  Biso   1.000  C
  C97      1.0000 0.81983  0.04871  0.61453  Biso   1.000  C
  C98      1.0000 0.18017  0.95129  0.11453  Biso   1.000  C
  C99      1.0000 0.81983  0.45129  0.38547  Biso   1.000  C
  C100     1.0000 0.18017  0.54871  0.88547  Biso   1.000  C
  C101     1.0000 0.21374  0.91211  0.31537  Biso   1.000  C
  C102     1.0000 0.78626  0.08789  0.81537  Biso   1.000  C
  C103     1.0000 0.21374  0.58789  0.68463  Biso   1.000  C
  C104     1.0000 0.78626  0.41211  0.18463  Biso   1.000  C
  C105     1.0000 0.78626  0.08789  0.68463  Biso   1.000  C
  C106     1.0000 0.21374  0.91211  0.18463  Biso   1.000  C
  C107     1.0000 0.78626  0.41211  0.31537  Biso   1.000  C
  C108     1.0000 0.21374  0.58789  0.81537  Biso   1.000  C
  C109     1.0000 0.27380  0.84252  0.31481  Biso   1.000  C
  C110     1.0000 0.72620  0.15748  0.81481  Biso   1.000  C
  C111     1.0000 0.27380  0.65748  0.68519  Biso   1.000  C
  C112     1.0000 0.72620  0.34252  0.18519  Biso   1.000  C
  C113     1.0000 0.72620  0.15748  0.68519  Biso   1.000  C
  C114     1.0000 0.27380  0.84252  0.18519  Biso   1.000  C
  C115     1.0000 0.72620  0.34252  0.31481  Biso   1.000  C
  C116     1.0000 0.27380  0.65748  0.81481  Biso   1.000  C
  H113     1.0000 0.29390  0.81900  0.35820  Biso   1.000  H
  H114     1.0000 0.70610  0.18100  0.85820  Biso   1.000  H
  H115     1.0000 0.29390  0.68100  0.64180  Biso   1.000  H
  H116     1.0000 0.70610  0.31900  0.14180  Biso   1.000  H
  H117     1.0000 0.70610  0.18100  0.64180  Biso   1.000  H
  H118     1.0000 0.29390  0.81900  0.14180  Biso   1.000  H
  H119     1.0000 0.70610  0.31900  0.35820  Biso   1.000  H
  H120     1.0000 0.29390  0.68100  0.85820  Biso   1.000  H
  C117     1.0000 0.30430  0.80770  0.25000  Biso   1.000  C
  C118     1.0000 0.69570  0.19230  0.75000  Biso   1.000  C
  C119     1.0000 0.30430  0.69230  0.75000  Biso   1.000  C
  C120     1.0000 0.69570  0.30770  0.25000  Biso   1.000  C
  H121     1.0000 0.34500  0.76110  0.25000  Biso   1.000  H
  H122     1.0000 0.65500  0.23890  0.75000  Biso   1.000  H
  H123     1.0000 0.34500  0.73890  0.75000  Biso   1.000  H
  H124     1.0000 0.65500  0.26110  0.25000  Biso   1.000  H
  C121     1.0000 0.18310  0.94660  0.25000  Biso   1.000  C
  C122     1.0000 0.81690  0.05340  0.75000  Biso   1.000  C
  C123     1.0000 0.18310  0.55340  0.75000  Biso   1.000  C
  C124     1.0000 0.81690  0.44660  0.25000  Biso   1.000  C
  H125     1.0000 0.14200  0.99290  0.25000  Biso   1.000  H
  H126     1.0000 0.85800  0.00710  0.75000  Biso   1.000  H
  H127     1.0000 0.14200  0.50710  0.75000  Biso   1.000  H
  H128     1.0000 0.85800  0.49290  0.25000  Biso   1.000  H
  O57      1.0000 0.20130  0.25000  0.50000  Biso   1.000  O
  O58      1.0000 0.79870  0.75000  0.00000  Biso   1.000  O
  O59      1.0000 0.79870  0.75000  0.50000  Biso   1.000  O
  O60      1.0000 0.20130  0.25000  0.00000  Biso   1.000  O
  H129     1.0000 0.18980  0.22590  0.46890  Biso   1.000  H
  H130     1.0000 0.81020  0.77410  0.96890  Biso   1.000  H
  H131     1.0000 0.18980  0.27410  0.53110  Biso   1.000  H
  H132     1.0000 0.81020  0.72590  0.03110  Biso   1.000  H
  H133     1.0000 0.81020  0.77410  0.53110  Biso   1.000  H
  H134     1.0000 0.18980  0.22590  0.03110  Biso   1.000  H
  H135     1.0000 0.81020  0.72590  0.46890  Biso   1.000  H
  H136     1.0000 0.18980  0.27410  0.96890  Biso   1.000  H
  O61      1.0000 0.79880  0.40260  0.75000  Biso   1.000  O
  O62      1.0000 0.20120  0.59740  0.25000  Biso   1.000  O
  O63      1.0000 0.79880  0.09740  0.25000  Biso   1.000  O
  O64      1.0000 0.20120  0.90260  0.75000  Biso   1.000  O
  H137     1.0000 0.76070  0.37150  0.71340  Biso   1.000  H
  H138     1.0000 0.23930  0.62850  0.21340  Biso   1.000  H
  H139     1.0000 0.76070  0.12850  0.28660  Biso   1.000  H
  H140     1.0000 0.23930  0.87150  0.78660  Biso   1.000  H
  H141     1.0000 0.23930  0.62850  0.28660  Biso   1.000  H
  H142     1.0000 0.76070  0.37150  0.78660  Biso   1.000  H
  H143     1.0000 0.23930  0.87150  0.71340  Biso   1.000  H
  H144     1.0000 0.76070  0.12850  0.21340  Biso   1.000  H
  O65      1.0000 0.17730  0.75000  0.50000  Biso   1.000  O
  O66      1.0000 0.82270  0.25000  0.00000  Biso   1.000  O
  O67      1.0000 0.82270  0.25000  0.50000  Biso   1.000  O
  O68      1.0000 0.17730  0.75000  0.00000  Biso   1.000  O
  H145     1.0000 0.13530  0.78240  0.46370  Biso   1.000  H
  H146     1.0000 0.86470  0.21760  0.96370  Biso   1.000  H
  H147     1.0000 0.13530  0.71760  0.53630  Biso   1.000  H
  H148     1.0000 0.86470  0.28240  0.03630  Biso   1.000  H
  H149     1.0000 0.86470  0.21760  0.53630  Biso   1.000  H
  H150     1.0000 0.13530  0.78240  0.03630  Biso   1.000  H
  H151     1.0000 0.86470  0.28240  0.46370  Biso   1.000  H
  H152     1.0000 0.13530  0.71760  0.96370  Biso   1.000  H
