data_image0
_cell_length_a       6.9266
_cell_length_b       13.3091
_cell_length_c       15.0058
_cell_angle_alpha    90
_cell_angle_beta     95.106
_cell_angle_gamma    90

_symmetry_space_group_name_H-M    "P 1"
_symmetry_int_tables_number       1

loop_
  _symmetry_equiv_pos_as_xyz
  'x, y, z'

loop_
  _atom_site_label
  _atom_site_occupancy
  _atom_site_fract_x
  _atom_site_fract_y
  _atom_site_fract_z
  _atom_site_thermal_displace_type
  _atom_site_B_iso_or_equiv
  _atom_site_type_symbol
  Cu1      1.0000 0.00000  0.57355  0.25000  Biso   1.000  Cu
  Cu2      1.0000 0.00000  0.42645  0.75000  Biso   1.000  Cu
  O1       1.0000 0.85960  0.68376  0.30878  Biso   1.000  O
  O2       1.0000 0.14040  0.68376  0.19122  Biso   1.000  O
  O3       1.0000 0.14040  0.31624  0.69122  Biso   1.000  O
  O4       1.0000 0.85960  0.31624  0.80878  Biso   1.000  O
  N1       1.0000 0.07730  0.47260  0.16132  Biso   1.000  N
  N2       1.0000 0.92270  0.47260  0.33868  Biso   1.000  N
  N3       1.0000 0.92270  0.52740  0.83868  Biso   1.000  N
  N4       1.0000 0.07730  0.52740  0.66132  Biso   1.000  N
  C1       1.0000 0.93680  0.41390  0.12292  Biso   1.000  C
  C2       1.0000 0.06320  0.41390  0.37708  Biso   1.000  C
  C3       1.0000 0.06320  0.58610  0.87708  Biso   1.000  C
  C4       1.0000 0.93680  0.58610  0.62292  Biso   1.000  C
  H1       1.0000 0.81980  0.41010  0.14870  Biso   1.000  H
  H2       1.0000 0.18020  0.41010  0.35130  Biso   1.000  H
  H3       1.0000 0.18020  0.58990  0.85130  Biso   1.000  H
  H4       1.0000 0.81980  0.58990  0.64870  Biso   1.000  H
  O5       1.0000 0.67460  0.63518  0.18850  Biso   1.000  O
  O6       1.0000 0.32540  0.63518  0.31150  Biso   1.000  O
  O7       1.0000 0.32540  0.36482  0.81150  Biso   1.000  O
  O8       1.0000 0.67460  0.36482  0.68850  Biso   1.000  O
  N5       1.0000 0.80800  0.29967  0.00449  Biso   1.000  N
  N6       1.0000 0.19200  0.29967  0.49551  Biso   1.000  N
  N7       1.0000 0.19200  0.70033  0.99551  Biso   1.000  N
  N8       1.0000 0.80800  0.70033  0.50449  Biso   1.000  N
  H5       1.0000 0.79640  0.29790  0.94700  Biso   1.000  H
  H6       1.0000 0.20360  0.29790  0.55300  Biso   1.000  H
  H7       1.0000 0.20360  0.70210  0.05300  Biso   1.000  H
  H8       1.0000 0.79640  0.70210  0.44700  Biso   1.000  H
  C5       1.0000 0.95850  0.35830  0.04604  Biso   1.000  C
  C6       1.0000 0.04150  0.35830  0.45396  Biso   1.000  C
  C7       1.0000 0.04150  0.64170  0.95396  Biso   1.000  C
  C8       1.0000 0.95850  0.64170  0.54604  Biso   1.000  C
  O9       1.0000 0.68520  0.24420  0.12911  Biso   1.000  O
  O10      1.0000 0.31480  0.24420  0.37089  Biso   1.000  O
  O11      1.0000 0.31480  0.75580  0.87089  Biso   1.000  O
  O12      1.0000 0.68520  0.75580  0.62911  Biso   1.000  O
  C9       1.0000 0.13250  0.36580  0.00731  Biso   1.000  C
  C10      1.0000 0.86750  0.36580  0.49269  Biso   1.000  C
  C11      1.0000 0.86750  0.63420  0.99269  Biso   1.000  C
  C12      1.0000 0.13250  0.63420  0.50731  Biso   1.000  C
  H9       1.0000 0.14990  0.33240  0.95420  Biso   1.000  H
  H10      1.0000 0.85010  0.33240  0.54580  Biso   1.000  H
  H11      1.0000 0.85010  0.66760  0.04580  Biso   1.000  H
  H12      1.0000 0.14990  0.66760  0.45420  Biso   1.000  H
  C13      1.0000 0.27990  0.42390  0.04920  Biso   1.000  C
  C14      1.0000 0.72010  0.42390  0.45080  Biso   1.000  C
  C15      1.0000 0.72010  0.57610  0.95080  Biso   1.000  C
  C16      1.0000 0.27990  0.57610  0.54920  Biso   1.000  C
  H13      1.0000 0.39930  0.42750  0.02550  Biso   1.000  H
  H14      1.0000 0.60070  0.42750  0.47450  Biso   1.000  H
  H15      1.0000 0.60070  0.57250  0.97450  Biso   1.000  H
  H16      1.0000 0.39930  0.57250  0.52550  Biso   1.000  H
  C17      1.0000 0.25000  0.47640  0.12590  Biso   1.000  C
  C18      1.0000 0.75000  0.47640  0.37410  Biso   1.000  C
  C19      1.0000 0.75000  0.52360  0.87410  Biso   1.000  C
  C20      1.0000 0.25000  0.52360  0.62590  Biso   1.000  C
  H17      1.0000 0.34990  0.51510  0.15370  Biso   1.000  H
  H18      1.0000 0.65010  0.51510  0.34630  Biso   1.000  H
  H19      1.0000 0.65010  0.48490  0.84630  Biso   1.000  H
  H20      1.0000 0.34990  0.48490  0.65370  Biso   1.000  H
  C21      1.0000 0.67880  0.24540  0.04789  Biso   1.000  C
  C22      1.0000 0.32120  0.24540  0.45211  Biso   1.000  C
  C23      1.0000 0.32120  0.75460  0.95211  Biso   1.000  C
  C24      1.0000 0.67880  0.75460  0.54789  Biso   1.000  C
  C25      1.0000 0.52980  0.18880  0.98818  Biso   1.000  C
  C26      1.0000 0.47020  0.18880  0.51182  Biso   1.000  C
  C27      1.0000 0.47020  0.81120  0.01182  Biso   1.000  C
  C28      1.0000 0.52980  0.81120  0.48818  Biso   1.000  C
  H21      1.0000 0.59540  0.13970  0.95380  Biso   1.000  H
  H22      1.0000 0.40460  0.13970  0.54620  Biso   1.000  H
  H23      1.0000 0.40460  0.86030  0.04620  Biso   1.000  H
  H24      1.0000 0.59540  0.86030  0.45380  Biso   1.000  H
  H25      1.0000 0.46350  0.23560  0.94630  Biso   1.000  H
  H26      1.0000 0.53650  0.23560  0.55370  Biso   1.000  H
  H27      1.0000 0.53650  0.76440  0.05370  Biso   1.000  H
  H28      1.0000 0.46350  0.76440  0.44630  Biso   1.000  H
  C29      1.0000 0.38040  0.13510  0.03950  Biso   1.000  C
  C30      1.0000 0.61960  0.13510  0.46050  Biso   1.000  C
  C31      1.0000 0.61960  0.86490  0.96050  Biso   1.000  C
  C32      1.0000 0.38040  0.86490  0.53950  Biso   1.000  C
  H29      1.0000 0.44560  0.08530  0.07860  Biso   1.000  H
  H30      1.0000 0.55440  0.08530  0.42140  Biso   1.000  H
  H31      1.0000 0.55440  0.91470  0.92140  Biso   1.000  H
  H32      1.0000 0.44560  0.91470  0.57860  Biso   1.000  H
  H33      1.0000 0.32040  0.18350  0.07680  Biso   1.000  H
  H34      1.0000 0.67960  0.18350  0.42320  Biso   1.000  H
  H35      1.0000 0.67960  0.81650  0.92320  Biso   1.000  H
  H36      1.0000 0.32040  0.81650  0.57680  Biso   1.000  H
  C33      1.0000 0.22370  0.08380  0.97860  Biso   1.000  C
  C34      1.0000 0.77630  0.08380  0.52140  Biso   1.000  C
  C35      1.0000 0.77630  0.91620  0.02140  Biso   1.000  C
  C36      1.0000 0.22370  0.91620  0.47860  Biso   1.000  C
  H37      1.0000 0.28400  0.03640  0.94060  Biso   1.000  H
  H38      1.0000 0.71600  0.03640  0.55940  Biso   1.000  H
  H39      1.0000 0.71600  0.96360  0.05940  Biso   1.000  H
  H40      1.0000 0.28400  0.96360  0.44060  Biso   1.000  H
  H41      1.0000 0.15720  0.13390  0.94020  Biso   1.000  H
  H42      1.0000 0.84280  0.13390  0.55980  Biso   1.000  H
  H43      1.0000 0.84280  0.86610  0.05980  Biso   1.000  H
  H44      1.0000 0.15720  0.86610  0.44020  Biso   1.000  H
  C37      1.0000 0.07510  0.02830  0.02970  Biso   1.000  C
  C38      1.0000 0.92490  0.02830  0.47030  Biso   1.000  C
  C39      1.0000 0.92490  0.97170  0.97030  Biso   1.000  C
  C40      1.0000 0.07510  0.97170  0.52970  Biso   1.000  C
  H45      1.0000 0.14280  0.98120  0.07080  Biso   1.000  H
  H46      1.0000 0.85720  0.98120  0.42920  Biso   1.000  H
  H47      1.0000 0.85720  0.01880  0.92920  Biso   1.000  H
  H48      1.0000 0.14280  0.01880  0.57080  Biso   1.000  H
  H49      1.0000 0.00970  0.07650  0.06500  Biso   1.000  H
  H50      1.0000 0.99030  0.07650  0.43500  Biso   1.000  H
  H51      1.0000 0.99030  0.92350  0.93500  Biso   1.000  H
  H52      1.0000 0.00970  0.92350  0.56500  Biso   1.000  H
  C41      1.0000 0.60180  0.79167  0.25448  Biso   1.000  C
  C42      1.0000 0.39820  0.79167  0.24552  Biso   1.000  C
  C43      1.0000 0.39820  0.20833  0.74552  Biso   1.000  C
  C44      1.0000 0.60180  0.20833  0.75448  Biso   1.000  C
  C45      1.0000 0.69930  0.88280  0.25971  Biso   1.000  C
  C46      1.0000 0.30070  0.88280  0.24029  Biso   1.000  C
  C47      1.0000 0.30070  0.11720  0.74029  Biso   1.000  C
  C48      1.0000 0.69930  0.11720  0.75971  Biso   1.000  C
  H53      1.0000 0.83410  0.88320  0.26650  Biso   1.000  H
  H54      1.0000 0.16590  0.88320  0.23350  Biso   1.000  H
  H55      1.0000 0.16590  0.11680  0.73350  Biso   1.000  H
  H56      1.0000 0.83410  0.11680  0.76650  Biso   1.000  H
  C49      1.0000 0.60010  0.97320  0.25500  Biso   1.000  C
  C50      1.0000 0.39990  0.97320  0.24500  Biso   1.000  C
  C51      1.0000 0.39990  0.02680  0.74500  Biso   1.000  C
  C52      1.0000 0.60010  0.02680  0.75500  Biso   1.000  C
  H57      1.0000 0.66780  0.03360  0.25860  Biso   1.000  H
  H58      1.0000 0.33220  0.03360  0.24140  Biso   1.000  H
  H59      1.0000 0.33220  0.96640  0.74140  Biso   1.000  H
  H60      1.0000 0.66780  0.96640  0.75860  Biso   1.000  H
  C53      1.0000 0.71500  0.69590  0.25013  Biso   1.000  C
  C54      1.0000 0.28500  0.69590  0.24987  Biso   1.000  C
  C55      1.0000 0.28500  0.30410  0.74987  Biso   1.000  C
  C56      1.0000 0.71500  0.30410  0.75013  Biso   1.000  C
  O13      1.0000 0.00000  0.15470  0.25000  Biso   1.000  O
  O14      1.0000 0.00000  0.84530  0.75000  Biso   1.000  O
  H61      1.0000 0.09660  0.20000  0.21840  Biso   1.000  H
  H62      1.0000 0.90340  0.20000  0.28160  Biso   1.000  H
  H63      1.0000 0.90340  0.80000  0.78160  Biso   1.000  H
  H64      1.0000 0.09660  0.80000  0.71840  Biso   1.000  H
