data_image0
_cell_length_a       6.8317
_cell_length_b       21.0819
_cell_length_c       15.1676
_cell_angle_alpha    90
_cell_angle_beta     92.992
_cell_angle_gamma    90

_symmetry_space_group_name_H-M    "P 1"
_symmetry_int_tables_number       1

loop_
  _symmetry_equiv_pos_as_xyz
  'x, y, z'

loop_
  _atom_site_label
  _atom_site_occupancy
  _atom_site_fract_x
  _atom_site_fract_y
  _atom_site_fract_z
  _atom_site_thermal_displace_type
  _atom_site_B_iso_or_equiv
  _atom_site_type_symbol
  Cu1      1.0000 0.50000  0.96373  0.75000  Biso   1.000  Cu
  Cu2      1.0000 0.00000  0.46373  0.75000  Biso   1.000  Cu
  Cu3      1.0000 0.50000  0.03627  0.25000  Biso   1.000  Cu
  Cu4      1.0000 0.00000  0.53627  0.25000  Biso   1.000  Cu
  N1       1.0000 0.44040  0.02621  0.84377  Biso   1.000  N
  N2       1.0000 0.55960  0.02621  0.65623  Biso   1.000  N
  N3       1.0000 0.94040  0.52621  0.84377  Biso   1.000  N
  N4       1.0000 0.05960  0.52621  0.65623  Biso   1.000  N
  N5       1.0000 0.55960  0.97379  0.15623  Biso   1.000  N
  N6       1.0000 0.44040  0.97379  0.34377  Biso   1.000  N
  N7       1.0000 0.05960  0.47379  0.15623  Biso   1.000  N
  N8       1.0000 0.94040  0.47379  0.34377  Biso   1.000  N
  C1       1.0000 0.10270  0.82477  0.75564  Biso   1.000  C
  C2       1.0000 0.89730  0.82477  0.74436  Biso   1.000  C
  C3       1.0000 0.60270  0.32477  0.75564  Biso   1.000  C
  C4       1.0000 0.39730  0.32477  0.74436  Biso   1.000  C
  C5       1.0000 0.89730  0.17523  0.24436  Biso   1.000  C
  C6       1.0000 0.10270  0.17523  0.25564  Biso   1.000  C
  C7       1.0000 0.39730  0.67523  0.24436  Biso   1.000  C
  C8       1.0000 0.60270  0.67523  0.25564  Biso   1.000  C
  C9       1.0000 0.27400  0.02226  0.88651  Biso   1.000  C
  C10      1.0000 0.72600  0.02226  0.61349  Biso   1.000  C
  C11      1.0000 0.77400  0.52226  0.88651  Biso   1.000  C
  C12      1.0000 0.22600  0.52226  0.61349  Biso   1.000  C
  C13      1.0000 0.72600  0.97774  0.11349  Biso   1.000  C
  C14      1.0000 0.27400  0.97774  0.38651  Biso   1.000  C
  C15      1.0000 0.22600  0.47774  0.11349  Biso   1.000  C
  C16      1.0000 0.77400  0.47774  0.38651  Biso   1.000  C
  H1       1.0000 0.16920  0.99920  0.86140  Biso   1.000  H
  H2       1.0000 0.83080  0.99920  0.63860  Biso   1.000  H
  H3       1.0000 0.66920  0.49920  0.86140  Biso   1.000  H
  H4       1.0000 0.33080  0.49920  0.63860  Biso   1.000  H
  H5       1.0000 0.83080  0.00080  0.13860  Biso   1.000  H
  H6       1.0000 0.16920  0.00080  0.36140  Biso   1.000  H
  H7       1.0000 0.33080  0.50080  0.13860  Biso   1.000  H
  H8       1.0000 0.66920  0.50080  0.36140  Biso   1.000  H
  O1       1.0000 0.35715  0.89351  0.81008  Biso   1.000  O
  O2       1.0000 0.64285  0.89351  0.68992  Biso   1.000  O
  O3       1.0000 0.85715  0.39351  0.81008  Biso   1.000  O
  O4       1.0000 0.14285  0.39351  0.68992  Biso   1.000  O
  O5       1.0000 0.64285  0.10649  0.18992  Biso   1.000  O
  O6       1.0000 0.35715  0.10649  0.31008  Biso   1.000  O
  O7       1.0000 0.14285  0.60649  0.18992  Biso   1.000  O
  O8       1.0000 0.85715  0.60649  0.31008  Biso   1.000  O
  O9       1.0000 0.18039  0.92363  0.69078  Biso   1.000  O
  O10      1.0000 0.81961  0.92363  0.80922  Biso   1.000  O
  O11      1.0000 0.68039  0.42363  0.69078  Biso   1.000  O
  O12      1.0000 0.31961  0.42363  0.80922  Biso   1.000  O
  O13      1.0000 0.81961  0.07637  0.30922  Biso   1.000  O
  O14      1.0000 0.18039  0.07637  0.19078  Biso   1.000  O
  O15      1.0000 0.31961  0.57637  0.30922  Biso   1.000  O
  O16      1.0000 0.68039  0.57637  0.19078  Biso   1.000  O
  N9       1.0000 0.73100  0.13073  0.99720  Biso   1.000  N
  N10      1.0000 0.26900  0.13073  0.50280  Biso   1.000  N
  N11      1.0000 0.23100  0.63073  0.99720  Biso   1.000  N
  N12      1.0000 0.76900  0.63073  0.50280  Biso   1.000  N
  N13      1.0000 0.26900  0.86927  0.00280  Biso   1.000  N
  N14      1.0000 0.73100  0.86927  0.49720  Biso   1.000  N
  N15      1.0000 0.76900  0.36927  0.00280  Biso   1.000  N
  N16      1.0000 0.23100  0.36927  0.49720  Biso   1.000  N
  H9       1.0000 0.72490  0.13790  0.05280  Biso   1.000  H
  H10      1.0000 0.27510  0.13790  0.44720  Biso   1.000  H
  H11      1.0000 0.22490  0.63790  0.05280  Biso   1.000  H
  H12      1.0000 0.77510  0.63790  0.44720  Biso   1.000  H
  H13      1.0000 0.27510  0.86210  0.94720  Biso   1.000  H
  H14      1.0000 0.72490  0.86210  0.55280  Biso   1.000  H
  H15      1.0000 0.77510  0.36210  0.94720  Biso   1.000  H
  H16      1.0000 0.22490  0.36210  0.55280  Biso   1.000  H
  C17      1.0000 0.25480  0.05155  0.96687  Biso   1.000  C
  C18      1.0000 0.74520  0.05155  0.53313  Biso   1.000  C
  C19      1.0000 0.75480  0.55155  0.96687  Biso   1.000  C
  C20      1.0000 0.24520  0.55155  0.53313  Biso   1.000  C
  C21      1.0000 0.74520  0.94845  0.03313  Biso   1.000  C
  C22      1.0000 0.25480  0.94845  0.46687  Biso   1.000  C
  C23      1.0000 0.24520  0.44845  0.03313  Biso   1.000  C
  C24      1.0000 0.75480  0.44845  0.46687  Biso   1.000  C
  H17      1.0000 0.13940  0.04740  0.99620  Biso   1.000  H
  H18      1.0000 0.86060  0.04740  0.50380  Biso   1.000  H
  H19      1.0000 0.63940  0.54740  0.99620  Biso   1.000  H
  H20      1.0000 0.36060  0.54740  0.50380  Biso   1.000  H
  H21      1.0000 0.86060  0.95260  0.00380  Biso   1.000  H
  H22      1.0000 0.13940  0.95260  0.49620  Biso   1.000  H
  H23      1.0000 0.36060  0.45260  0.00380  Biso   1.000  H
  H24      1.0000 0.63940  0.45260  0.49620  Biso   1.000  H
  O17      1.0000 0.92020  0.14669  0.88051  Biso   1.000  O
  O18      1.0000 0.07980  0.14669  0.61949  Biso   1.000  O
  O19      1.0000 0.42020  0.64669  0.88051  Biso   1.000  O
  O20      1.0000 0.57980  0.64669  0.61949  Biso   1.000  O
  O21      1.0000 0.07980  0.85331  0.11949  Biso   1.000  O
  O22      1.0000 0.92020  0.85331  0.38051  Biso   1.000  O
  O23      1.0000 0.57980  0.35331  0.11949  Biso   1.000  O
  O24      1.0000 0.42020  0.35331  0.38051  Biso   1.000  O
  C25      1.0000 0.40790  0.08691  0.00328  Biso   1.000  C
  C26      1.0000 0.59210  0.08691  0.49672  Biso   1.000  C
  C27      1.0000 0.90790  0.58691  0.00328  Biso   1.000  C
  C28      1.0000 0.09210  0.58691  0.49672  Biso   1.000  C
  C29      1.0000 0.59210  0.91309  0.99672  Biso   1.000  C
  C30      1.0000 0.40790  0.91309  0.50328  Biso   1.000  C
  C31      1.0000 0.09210  0.41309  0.99672  Biso   1.000  C
  C32      1.0000 0.90790  0.41309  0.50328  Biso   1.000  C
  H25      1.0000 0.39740  0.10620  0.05800  Biso   1.000  H
  H26      1.0000 0.60260  0.10620  0.44200  Biso   1.000  H
  H27      1.0000 0.89740  0.60620  0.05800  Biso   1.000  H
  H28      1.0000 0.10260  0.60620  0.44200  Biso   1.000  H
  H29      1.0000 0.60260  0.89380  0.94200  Biso   1.000  H
  H30      1.0000 0.39740  0.89380  0.55800  Biso   1.000  H
  H31      1.0000 0.10260  0.39380  0.94200  Biso   1.000  H
  H32      1.0000 0.89740  0.39380  0.55800  Biso   1.000  H
  C33      1.0000 0.57880  0.09368  0.95789  Biso   1.000  C
  C34      1.0000 0.42120  0.09368  0.54211  Biso   1.000  C
  C35      1.0000 0.07880  0.59368  0.95789  Biso   1.000  C
  C36      1.0000 0.92120  0.59368  0.54211  Biso   1.000  C
  C37      1.0000 0.42120  0.90632  0.04211  Biso   1.000  C
  C38      1.0000 0.57880  0.90632  0.45789  Biso   1.000  C
  C39      1.0000 0.92120  0.40632  0.04211  Biso   1.000  C
  C40      1.0000 0.07880  0.40632  0.45789  Biso   1.000  C
  C41      1.0000 0.59060  0.06175  0.87773  Biso   1.000  C
  C42      1.0000 0.40940  0.06175  0.62227  Biso   1.000  C
  C43      1.0000 0.09060  0.56175  0.87773  Biso   1.000  C
  C44      1.0000 0.90940  0.56175  0.62227  Biso   1.000  C
  C45      1.0000 0.40940  0.93825  0.12227  Biso   1.000  C
  C46      1.0000 0.59060  0.93825  0.37773  Biso   1.000  C
  C47      1.0000 0.90940  0.43825  0.12227  Biso   1.000  C
  C48      1.0000 0.09060  0.43825  0.37773  Biso   1.000  C
  H33      1.0000 0.70450  0.06500  0.84700  Biso   1.000  H
  H34      1.0000 0.29550  0.06500  0.65300  Biso   1.000  H
  H35      1.0000 0.20450  0.56500  0.84700  Biso   1.000  H
  H36      1.0000 0.79550  0.56500  0.65300  Biso   1.000  H
  H37      1.0000 0.29550  0.93500  0.15300  Biso   1.000  H
  H38      1.0000 0.70450  0.93500  0.34700  Biso   1.000  H
  H39      1.0000 0.79550  0.43500  0.15300  Biso   1.000  H
  H40      1.0000 0.20450  0.43500  0.34700  Biso   1.000  H
  C49      1.0000 0.88820  0.15681  0.95731  Biso   1.000  C
  C50      1.0000 0.11180  0.15681  0.54269  Biso   1.000  C
  C51      1.0000 0.38820  0.65681  0.95731  Biso   1.000  C
  C52      1.0000 0.61180  0.65681  0.54269  Biso   1.000  C
  C53      1.0000 0.11180  0.84319  0.04269  Biso   1.000  C
  C54      1.0000 0.88820  0.84319  0.45731  Biso   1.000  C
  C55      1.0000 0.61180  0.34319  0.04269  Biso   1.000  C
  C56      1.0000 0.38820  0.34319  0.45731  Biso   1.000  C
  C57      1.0000 0.01840  0.19811  0.01706  Biso   1.000  C
  C58      1.0000 0.98160  0.19811  0.48294  Biso   1.000  C
  C59      1.0000 0.51840  0.69811  0.01706  Biso   1.000  C
  C60      1.0000 0.48160  0.69811  0.48294  Biso   1.000  C
  C61      1.0000 0.98160  0.80189  0.98294  Biso   1.000  C
  C62      1.0000 0.01840  0.80189  0.51706  Biso   1.000  C
  C63      1.0000 0.48160  0.30189  0.98294  Biso   1.000  C
  C64      1.0000 0.51840  0.30189  0.51706  Biso   1.000  C
  H41      1.0000 0.08090  0.17180  0.06280  Biso   1.000  H
  H42      1.0000 0.91910  0.17180  0.43720  Biso   1.000  H
  H43      1.0000 0.58090  0.67180  0.06280  Biso   1.000  H
  H44      1.0000 0.41910  0.67180  0.43720  Biso   1.000  H
  H45      1.0000 0.91910  0.82820  0.93720  Biso   1.000  H
  H46      1.0000 0.08090  0.82820  0.56280  Biso   1.000  H
  H47      1.0000 0.41910  0.32820  0.93720  Biso   1.000  H
  H48      1.0000 0.58090  0.32820  0.56280  Biso   1.000  H
  H49      1.0000 0.93760  0.22900  0.04560  Biso   1.000  H
  H50      1.0000 0.06240  0.22900  0.45440  Biso   1.000  H
  H51      1.0000 0.43760  0.72900  0.04560  Biso   1.000  H
  H52      1.0000 0.56240  0.72900  0.45440  Biso   1.000  H
  H53      1.0000 0.06240  0.77100  0.95440  Biso   1.000  H
  H54      1.0000 0.93760  0.77100  0.54560  Biso   1.000  H
  H55      1.0000 0.56240  0.27100  0.95440  Biso   1.000  H
  H56      1.0000 0.43760  0.27100  0.54560  Biso   1.000  H
  C65      1.0000 0.17630  0.23305  0.96871  Biso   1.000  C
  C66      1.0000 0.82370  0.23305  0.53129  Biso   1.000  C
  C67      1.0000 0.67630  0.73305  0.96871  Biso   1.000  C
  C68      1.0000 0.32370  0.73305  0.53129  Biso   1.000  C
  C69      1.0000 0.82370  0.76695  0.03129  Biso   1.000  C
  C70      1.0000 0.17630  0.76695  0.46871  Biso   1.000  C
  C71      1.0000 0.32370  0.26695  0.03129  Biso   1.000  C
  C72      1.0000 0.67630  0.26695  0.46871  Biso   1.000  C
  H57      1.0000 0.24550  0.20290  0.93340  Biso   1.000  H
  H58      1.0000 0.75450  0.20290  0.56660  Biso   1.000  H
  H59      1.0000 0.74550  0.70290  0.93340  Biso   1.000  H
  H60      1.0000 0.25450  0.70290  0.56660  Biso   1.000  H
  H61      1.0000 0.75450  0.79710  0.06660  Biso   1.000  H
  H62      1.0000 0.24550  0.79710  0.43340  Biso   1.000  H
  H63      1.0000 0.25450  0.29710  0.06660  Biso   1.000  H
  H64      1.0000 0.74550  0.29710  0.43340  Biso   1.000  H
  H65      1.0000 0.11430  0.26390  0.92890  Biso   1.000  H
  H66      1.0000 0.88570  0.26390  0.57110  Biso   1.000  H
  H67      1.0000 0.61430  0.76390  0.92890  Biso   1.000  H
  H68      1.0000 0.38570  0.76390  0.57110  Biso   1.000  H
  H69      1.0000 0.88570  0.73610  0.07110  Biso   1.000  H
  H70      1.0000 0.11430  0.73610  0.42890  Biso   1.000  H
  H71      1.0000 0.38570  0.23610  0.07110  Biso   1.000  H
  H72      1.0000 0.61430  0.23610  0.42890  Biso   1.000  H
  C73      1.0000 0.21660  0.88535  0.75175  Biso   1.000  C
  C74      1.0000 0.78340  0.88535  0.74825  Biso   1.000  C
  C75      1.0000 0.71660  0.38535  0.75175  Biso   1.000  C
  C76      1.0000 0.28340  0.38535  0.74825  Biso   1.000  C
  C77      1.0000 0.78340  0.11465  0.24825  Biso   1.000  C
  C78      1.0000 0.21660  0.11465  0.25175  Biso   1.000  C
  C79      1.0000 0.28340  0.61465  0.24825  Biso   1.000  C
  C80      1.0000 0.71660  0.61465  0.25175  Biso   1.000  C
  C81      1.0000 0.20190  0.76757  0.76186  Biso   1.000  C
  C82      1.0000 0.79810  0.76757  0.73814  Biso   1.000  C
  C83      1.0000 0.70190  0.26757  0.76186  Biso   1.000  C
  C84      1.0000 0.29810  0.26757  0.73814  Biso   1.000  C
  C85      1.0000 0.79810  0.23243  0.23814  Biso   1.000  C
  C86      1.0000 0.20190  0.23243  0.26186  Biso   1.000  C
  C87      1.0000 0.29810  0.73243  0.23814  Biso   1.000  C
  C88      1.0000 0.70190  0.73243  0.26186  Biso   1.000  C
  H73      1.0000 0.33770  0.76740  0.77050  Biso   1.000  H
  H74      1.0000 0.66230  0.76740  0.72950  Biso   1.000  H
  H75      1.0000 0.83770  0.26740  0.77050  Biso   1.000  H
  H76      1.0000 0.16230  0.26740  0.72950  Biso   1.000  H
  H77      1.0000 0.66230  0.23260  0.22950  Biso   1.000  H
  H78      1.0000 0.33770  0.23260  0.27050  Biso   1.000  H
  H79      1.0000 0.16230  0.73260  0.22950  Biso   1.000  H
  H80      1.0000 0.83770  0.73260  0.27050  Biso   1.000  H
  C89      1.0000 0.10070  0.71050  0.75538  Biso   1.000  C
  C90      1.0000 0.89930  0.71050  0.74462  Biso   1.000  C
  C91      1.0000 0.60070  0.21050  0.75538  Biso   1.000  C
  C92      1.0000 0.39930  0.21050  0.74462  Biso   1.000  C
  C93      1.0000 0.89930  0.28950  0.24462  Biso   1.000  C
  C94      1.0000 0.10070  0.28950  0.25538  Biso   1.000  C
  C95      1.0000 0.39930  0.78950  0.24462  Biso   1.000  C
  C96      1.0000 0.60070  0.78950  0.25538  Biso   1.000  C
  H81      1.0000 0.16890  0.67230  0.75830  Biso   1.000  H
  H82      1.0000 0.83110  0.67230  0.74170  Biso   1.000  H
  H83      1.0000 0.66890  0.17230  0.75830  Biso   1.000  H
  H84      1.0000 0.33110  0.17230  0.74170  Biso   1.000  H
  H85      1.0000 0.83110  0.32770  0.24170  Biso   1.000  H
  H86      1.0000 0.16890  0.32770  0.25830  Biso   1.000  H
  H87      1.0000 0.33110  0.82770  0.24170  Biso   1.000  H
  H88      1.0000 0.66890  0.82770  0.25830  Biso   1.000  H
