data_image0
_cell_length_a       15.455
_cell_length_b       15.314
_cell_length_c       18.078
_cell_angle_alpha    90
_cell_angle_beta     91.39
_cell_angle_gamma    90

_symmetry_space_group_name_H-M    "P 1"
_symmetry_int_tables_number       1

loop_
  _symmetry_equiv_pos_as_xyz
  'x, y, z'

loop_
  _atom_site_label
  _atom_site_occupancy
  _atom_site_fract_x
  _atom_site_fract_y
  _atom_site_fract_z
  _atom_site_thermal_displace_type
  _atom_site_B_iso_or_equiv
  _atom_site_type_symbol
  Cu1      1.0000 0.00006  0.25368  0.09501  Biso   1.000  Cu
  Cu2      1.0000 0.99994  0.25368  0.40499  Biso   1.000  Cu
  Cu3      1.0000 0.50006  0.75368  0.09501  Biso   1.000  Cu
  Cu4      1.0000 0.49994  0.75368  0.40499  Biso   1.000  Cu
  Cu5      1.0000 0.99994  0.74632  0.90499  Biso   1.000  Cu
  Cu6      1.0000 0.00006  0.74632  0.59501  Biso   1.000  Cu
  Cu7      1.0000 0.49994  0.24632  0.90499  Biso   1.000  Cu
  Cu8      1.0000 0.50006  0.24632  0.59501  Biso   1.000  Cu
  O1       1.0000 0.91220  0.29060  0.16570  Biso   1.000  O
  O2       1.0000 0.08780  0.29060  0.33430  Biso   1.000  O
  O3       1.0000 0.41220  0.79060  0.16570  Biso   1.000  O
  O4       1.0000 0.58780  0.79060  0.33430  Biso   1.000  O
  O5       1.0000 0.08780  0.70940  0.83430  Biso   1.000  O
  O6       1.0000 0.91220  0.70940  0.66570  Biso   1.000  O
  O7       1.0000 0.58780  0.20940  0.83430  Biso   1.000  O
  O8       1.0000 0.41220  0.20940  0.66570  Biso   1.000  O
  N1       1.0000 0.96320  0.33840  0.01690  Biso   1.000  N
  N2       1.0000 0.03680  0.33840  0.48310  Biso   1.000  N
  N3       1.0000 0.46320  0.83840  0.01690  Biso   1.000  N
  N4       1.0000 0.53680  0.83840  0.48310  Biso   1.000  N
  N5       1.0000 0.03680  0.66160  0.98310  Biso   1.000  N
  N6       1.0000 0.96320  0.66160  0.51690  Biso   1.000  N
  N7       1.0000 0.53680  0.16160  0.98310  Biso   1.000  N
  N8       1.0000 0.46320  0.16160  0.51690  Biso   1.000  N
  C1       1.0000 0.88240  0.37100  0.01180  Biso   1.000  C
  C2       1.0000 0.11760  0.37100  0.48820  Biso   1.000  C
  C3       1.0000 0.38240  0.87100  0.01180  Biso   1.000  C
  C4       1.0000 0.61760  0.87100  0.48820  Biso   1.000  C
  C5       1.0000 0.11760  0.62900  0.98820  Biso   1.000  C
  C6       1.0000 0.88240  0.62900  0.51180  Biso   1.000  C
  C7       1.0000 0.61760  0.12900  0.98820  Biso   1.000  C
  C8       1.0000 0.38240  0.12900  0.51180  Biso   1.000  C
  H1       1.0000 0.84060  0.35150  0.04410  Biso   1.000  H
  H2       1.0000 0.15940  0.35150  0.45590  Biso   1.000  H
  H3       1.0000 0.34060  0.85150  0.04410  Biso   1.000  H
  H4       1.0000 0.65940  0.85150  0.45590  Biso   1.000  H
  H5       1.0000 0.15940  0.64850  0.95590  Biso   1.000  H
  H6       1.0000 0.84060  0.64850  0.54410  Biso   1.000  H
  H7       1.0000 0.65940  0.14850  0.95590  Biso   1.000  H
  H8       1.0000 0.34060  0.14850  0.54410  Biso   1.000  H
  O9       1.0000 0.87320  0.15920  0.13760  Biso   1.000  O
  O10      1.0000 0.12680  0.15920  0.36240  Biso   1.000  O
  O11      1.0000 0.37320  0.65920  0.13760  Biso   1.000  O
  O12      1.0000 0.62680  0.65920  0.36240  Biso   1.000  O
  O13      1.0000 0.12680  0.84080  0.86240  Biso   1.000  O
  O14      1.0000 0.87320  0.84080  0.63760  Biso   1.000  O
  O15      1.0000 0.62680  0.34080  0.86240  Biso   1.000  O
  O16      1.0000 0.37320  0.34080  0.63760  Biso   1.000  O
  N9       1.0000 0.53680  0.66620  0.01980  Biso   1.000  N
  N10      1.0000 0.46320  0.66620  0.48020  Biso   1.000  N
  N11      1.0000 0.03680  0.16620  0.01980  Biso   1.000  N
  N12      1.0000 0.96320  0.16620  0.48020  Biso   1.000  N
  N13      1.0000 0.46320  0.33380  0.98020  Biso   1.000  N
  N14      1.0000 0.53680  0.33380  0.51980  Biso   1.000  N
  N15      1.0000 0.96320  0.83380  0.98020  Biso   1.000  N
  N16      1.0000 0.03680  0.83380  0.51980  Biso   1.000  N
  C9       1.0000 0.86120  0.43240  0.95940  Biso   1.000  C
  C10      1.0000 0.13880  0.43240  0.54060  Biso   1.000  C
  C11      1.0000 0.36120  0.93240  0.95940  Biso   1.000  C
  C12      1.0000 0.63880  0.93240  0.54060  Biso   1.000  C
  C13      1.0000 0.13880  0.56760  0.04060  Biso   1.000  C
  C14      1.0000 0.86120  0.56760  0.45940  Biso   1.000  C
  C15      1.0000 0.63880  0.06760  0.04060  Biso   1.000  C
  C16      1.0000 0.36120  0.06760  0.45940  Biso   1.000  C
  H9       1.0000 0.80500  0.45410  0.95610  Biso   1.000  H
  H10      1.0000 0.19500  0.45410  0.54390  Biso   1.000  H
  H11      1.0000 0.30500  0.95410  0.95610  Biso   1.000  H
  H12      1.0000 0.69500  0.95410  0.54390  Biso   1.000  H
  H13      1.0000 0.19500  0.54590  0.04390  Biso   1.000  H
  H14      1.0000 0.80500  0.54590  0.45610  Biso   1.000  H
  H15      1.0000 0.69500  0.04590  0.04390  Biso   1.000  H
  H16      1.0000 0.30500  0.04590  0.45610  Biso   1.000  H
  O17      1.0000 0.91530  0.21570  0.32650  Biso   1.000  O
  O18      1.0000 0.08470  0.21570  0.17350  Biso   1.000  O
  O19      1.0000 0.41530  0.71570  0.32650  Biso   1.000  O
  O20      1.0000 0.58470  0.71570  0.17350  Biso   1.000  O
  O21      1.0000 0.08470  0.78430  0.67350  Biso   1.000  O
  O22      1.0000 0.91530  0.78430  0.82650  Biso   1.000  O
  O23      1.0000 0.58470  0.28430  0.67350  Biso   1.000  O
  O24      1.0000 0.41530  0.28430  0.82650  Biso   1.000  O
  C17      1.0000 0.92300  0.46260  0.91130  Biso   1.000  C
  C18      1.0000 0.07700  0.46260  0.58870  Biso   1.000  C
  C19      1.0000 0.42300  0.96260  0.91130  Biso   1.000  C
  C20      1.0000 0.57700  0.96260  0.58870  Biso   1.000  C
  C21      1.0000 0.07700  0.53740  0.08870  Biso   1.000  C
  C22      1.0000 0.92300  0.53740  0.41130  Biso   1.000  C
  C23      1.0000 0.57700  0.03740  0.08870  Biso   1.000  C
  C24      1.0000 0.42300  0.03740  0.41130  Biso   1.000  C
  H17      1.0000 0.90920  0.50480  0.87600  Biso   1.000  H
  H18      1.0000 0.09080  0.50480  0.62400  Biso   1.000  H
  H19      1.0000 0.40920  0.00480  0.87600  Biso   1.000  H
  H20      1.0000 0.59080  0.00480  0.62400  Biso   1.000  H
  H21      1.0000 0.09080  0.49520  0.12400  Biso   1.000  H
  H22      1.0000 0.90920  0.49520  0.37600  Biso   1.000  H
  H23      1.0000 0.59080  0.99520  0.12400  Biso   1.000  H
  H24      1.0000 0.40920  0.99520  0.37600  Biso   1.000  H
  O25      1.0000 0.86350  0.33310  0.37820  Biso   1.000  O
  O26      1.0000 0.13650  0.33310  0.12180  Biso   1.000  O
  O27      1.0000 0.36350  0.83310  0.37820  Biso   1.000  O
  O28      1.0000 0.63650  0.83310  0.12180  Biso   1.000  O
  O29      1.0000 0.13650  0.66690  0.62180  Biso   1.000  O
  O30      1.0000 0.86350  0.66690  0.87820  Biso   1.000  O
  O31      1.0000 0.63650  0.16690  0.62180  Biso   1.000  O
  O32      1.0000 0.36350  0.16690  0.87820  Biso   1.000  O
  C25      1.0000 0.00750  0.42750  0.91730  Biso   1.000  C
  C26      1.0000 0.99250  0.42750  0.58270  Biso   1.000  C
  C27      1.0000 0.50750  0.92750  0.91730  Biso   1.000  C
  C28      1.0000 0.49250  0.92750  0.58270  Biso   1.000  C
  C29      1.0000 0.99250  0.57250  0.08270  Biso   1.000  C
  C30      1.0000 0.00750  0.57250  0.41730  Biso   1.000  C
  C31      1.0000 0.49250  0.07250  0.08270  Biso   1.000  C
  C32      1.0000 0.50750  0.07250  0.41730  Biso   1.000  C
  N17      1.0000 0.06850  0.46200  0.86790  Biso   1.000  N
  N18      1.0000 0.93150  0.46200  0.63210  Biso   1.000  N
  N19      1.0000 0.56850  0.96200  0.86790  Biso   1.000  N
  N20      1.0000 0.43150  0.96200  0.63210  Biso   1.000  N
  N21      1.0000 0.93150  0.53800  0.13210  Biso   1.000  N
  N22      1.0000 0.06850  0.53800  0.36790  Biso   1.000  N
  N23      1.0000 0.43150  0.03800  0.13210  Biso   1.000  N
  N24      1.0000 0.56850  0.03800  0.36790  Biso   1.000  N
  H25      1.0000 0.04780  0.49370  0.83240  Biso   1.000  H
  H26      1.0000 0.95220  0.49370  0.66760  Biso   1.000  H
  H27      1.0000 0.54780  0.99370  0.83240  Biso   1.000  H
  H28      1.0000 0.45220  0.99370  0.66760  Biso   1.000  H
  H29      1.0000 0.95220  0.50630  0.16760  Biso   1.000  H
  H30      1.0000 0.04780  0.50630  0.33240  Biso   1.000  H
  H31      1.0000 0.45220  0.00630  0.16760  Biso   1.000  H
  H32      1.0000 0.54780  0.00630  0.33240  Biso   1.000  H
  C33      1.0000 0.02330  0.36810  0.97020  Biso   1.000  C
  C34      1.0000 0.97670  0.36810  0.52980  Biso   1.000  C
  C35      1.0000 0.52330  0.86810  0.97020  Biso   1.000  C
  C36      1.0000 0.47670  0.86810  0.52980  Biso   1.000  C
  C37      1.0000 0.97670  0.63190  0.02980  Biso   1.000  C
  C38      1.0000 0.02330  0.63190  0.47020  Biso   1.000  C
  C39      1.0000 0.47670  0.13190  0.02980  Biso   1.000  C
  C40      1.0000 0.52330  0.13190  0.47020  Biso   1.000  C
  H33      1.0000 0.07920  0.34600  0.97510  Biso   1.000  H
  H34      1.0000 0.92080  0.34600  0.52490  Biso   1.000  H
  H35      1.0000 0.57920  0.84600  0.97510  Biso   1.000  H
  H36      1.0000 0.42080  0.84600  0.52490  Biso   1.000  H
  H37      1.0000 0.92080  0.65400  0.02490  Biso   1.000  H
  H38      1.0000 0.07920  0.65400  0.47510  Biso   1.000  H
  H39      1.0000 0.42080  0.15400  0.02490  Biso   1.000  H
  H40      1.0000 0.57920  0.15400  0.47510  Biso   1.000  H
  N25      1.0000 0.42950  0.53570  0.87230  Biso   1.000  N
  N26      1.0000 0.57050  0.53570  0.62770  Biso   1.000  N
  N27      1.0000 0.92950  0.03570  0.87230  Biso   1.000  N
  N28      1.0000 0.07050  0.03570  0.62770  Biso   1.000  N
  N29      1.0000 0.57050  0.46430  0.12770  Biso   1.000  N
  N30      1.0000 0.42950  0.46430  0.37230  Biso   1.000  N
  N31      1.0000 0.07050  0.96430  0.12770  Biso   1.000  N
  N32      1.0000 0.92950  0.96430  0.37230  Biso   1.000  N
  H41      1.0000 0.44970  0.50550  0.83650  Biso   1.000  H
  H42      1.0000 0.55030  0.50550  0.66350  Biso   1.000  H
  H43      1.0000 0.94970  0.00550  0.83650  Biso   1.000  H
  H44      1.0000 0.05030  0.00550  0.66350  Biso   1.000  H
  H45      1.0000 0.55030  0.49450  0.16350  Biso   1.000  H
  H46      1.0000 0.44970  0.49450  0.33650  Biso   1.000  H
  H47      1.0000 0.05030  0.99450  0.16350  Biso   1.000  H
  H48      1.0000 0.94970  0.99450  0.33650  Biso   1.000  H
  C41      1.0000 0.15630  0.45110  0.87010  Biso   1.000  C
  C42      1.0000 0.84370  0.45110  0.62990  Biso   1.000  C
  C43      1.0000 0.65630  0.95110  0.87010  Biso   1.000  C
  C44      1.0000 0.34370  0.95110  0.62990  Biso   1.000  C
  C45      1.0000 0.84370  0.54890  0.12990  Biso   1.000  C
  C46      1.0000 0.15630  0.54890  0.37010  Biso   1.000  C
  C47      1.0000 0.34370  0.04890  0.12990  Biso   1.000  C
  C48      1.0000 0.65630  0.04890  0.37010  Biso   1.000  C
  C49      1.0000 0.19990  0.50060  0.80940  Biso   1.000  C
  C50      1.0000 0.80010  0.50060  0.69060  Biso   1.000  C
  C51      1.0000 0.69990  0.00060  0.80940  Biso   1.000  C
  C52      1.0000 0.30010  0.00060  0.69060  Biso   1.000  C
  C53      1.0000 0.80010  0.49940  0.19060  Biso   1.000  C
  C54      1.0000 0.19990  0.49940  0.30940  Biso   1.000  C
  C55      1.0000 0.30010  0.99940  0.19060  Biso   1.000  C
  C56      1.0000 0.69990  0.99940  0.30940  Biso   1.000  C
  H49      1.0000 0.18510  0.56190  0.81340  Biso   1.000  H
  H50      1.0000 0.81490  0.56190  0.68660  Biso   1.000  H
  H51      1.0000 0.68510  0.06190  0.81340  Biso   1.000  H
  H52      1.0000 0.31490  0.06190  0.68660  Biso   1.000  H
  H53      1.0000 0.81490  0.43810  0.18660  Biso   1.000  H
  H54      1.0000 0.18510  0.43810  0.31340  Biso   1.000  H
  H55      1.0000 0.31490  0.93810  0.18660  Biso   1.000  H
  H56      1.0000 0.68510  0.93810  0.31340  Biso   1.000  H
  H57      1.0000 0.17760  0.47970  0.76200  Biso   1.000  H
  H58      1.0000 0.82240  0.47970  0.73800  Biso   1.000  H
  H59      1.0000 0.67760  0.97970  0.76200  Biso   1.000  H
  H60      1.0000 0.32240  0.97970  0.73800  Biso   1.000  H
  H61      1.0000 0.82240  0.52030  0.23800  Biso   1.000  H
  H62      1.0000 0.17760  0.52030  0.26200  Biso   1.000  H
  H63      1.0000 0.32240  0.02030  0.23800  Biso   1.000  H
  H64      1.0000 0.67760  0.02030  0.26200  Biso   1.000  H
  C57      1.0000 0.29740  0.49160  0.81120  Biso   1.000  C
  C58      1.0000 0.70260  0.49160  0.68880  Biso   1.000  C
  C59      1.0000 0.79740  0.99160  0.81120  Biso   1.000  C
  C60      1.0000 0.20260  0.99160  0.68880  Biso   1.000  C
  C61      1.0000 0.70260  0.50840  0.18880  Biso   1.000  C
  C62      1.0000 0.29740  0.50840  0.31120  Biso   1.000  C
  C63      1.0000 0.20260  0.00840  0.18880  Biso   1.000  C
  C64      1.0000 0.79740  0.00840  0.31120  Biso   1.000  C
  H65      1.0000 0.31220  0.43030  0.81680  Biso   1.000  H
  H66      1.0000 0.68780  0.43030  0.68320  Biso   1.000  H
  H67      1.0000 0.81220  0.93030  0.81680  Biso   1.000  H
  H68      1.0000 0.18780  0.93030  0.68320  Biso   1.000  H
  H69      1.0000 0.68780  0.56970  0.18320  Biso   1.000  H
  H70      1.0000 0.31220  0.56970  0.31680  Biso   1.000  H
  H71      1.0000 0.18780  0.06970  0.18320  Biso   1.000  H
  H72      1.0000 0.81220  0.06970  0.31680  Biso   1.000  H
  H73      1.0000 0.31940  0.51110  0.76420  Biso   1.000  H
  H74      1.0000 0.68060  0.51110  0.73580  Biso   1.000  H
  H75      1.0000 0.81940  0.01110  0.76420  Biso   1.000  H
  H76      1.0000 0.18060  0.01110  0.73580  Biso   1.000  H
  H77      1.0000 0.68060  0.48890  0.23580  Biso   1.000  H
  H78      1.0000 0.31940  0.48890  0.26420  Biso   1.000  H
  H79      1.0000 0.18060  0.98890  0.23580  Biso   1.000  H
  H80      1.0000 0.81940  0.98890  0.26420  Biso   1.000  H
  O33      1.0000 0.19280  0.40450  0.91530  Biso   1.000  O
  O34      1.0000 0.80720  0.40450  0.58470  Biso   1.000  O
  O35      1.0000 0.69280  0.90450  0.91530  Biso   1.000  O
  O36      1.0000 0.30720  0.90450  0.58470  Biso   1.000  O
  O37      1.0000 0.80720  0.59550  0.08470  Biso   1.000  O
  O38      1.0000 0.19280  0.59550  0.41530  Biso   1.000  O
  O39      1.0000 0.30720  0.09550  0.08470  Biso   1.000  O
  O40      1.0000 0.69280  0.09550  0.41530  Biso   1.000  O
  C65      1.0000 0.34190  0.54260  0.87270  Biso   1.000  C
  C66      1.0000 0.65810  0.54260  0.62730  Biso   1.000  C
  C67      1.0000 0.84190  0.04260  0.87270  Biso   1.000  C
  C68      1.0000 0.15810  0.04260  0.62730  Biso   1.000  C
  C69      1.0000 0.65810  0.45740  0.12730  Biso   1.000  C
  C70      1.0000 0.34190  0.45740  0.37270  Biso   1.000  C
  C71      1.0000 0.15810  0.95740  0.12730  Biso   1.000  C
  C72      1.0000 0.84190  0.95740  0.37270  Biso   1.000  C
  O41      1.0000 0.30430  0.58630  0.91810  Biso   1.000  O
  O42      1.0000 0.69570  0.58630  0.58190  Biso   1.000  O
  O43      1.0000 0.80430  0.08630  0.91810  Biso   1.000  O
  O44      1.0000 0.19570  0.08630  0.58190  Biso   1.000  O
  O45      1.0000 0.69570  0.41370  0.08190  Biso   1.000  O
  O46      1.0000 0.30430  0.41370  0.41810  Biso   1.000  O
  O47      1.0000 0.19570  0.91370  0.08190  Biso   1.000  O
  O48      1.0000 0.80430  0.91370  0.41810  Biso   1.000  O
  C73      1.0000 0.49170  0.56980  0.92150  Biso   1.000  C
  C74      1.0000 0.50830  0.56980  0.57850  Biso   1.000  C
  C75      1.0000 0.99170  0.06980  0.92150  Biso   1.000  C
  C76      1.0000 0.00830  0.06980  0.57850  Biso   1.000  C
  C77      1.0000 0.50830  0.43020  0.07850  Biso   1.000  C
  C78      1.0000 0.49170  0.43020  0.42150  Biso   1.000  C
  C79      1.0000 0.00830  0.93020  0.07850  Biso   1.000  C
  C80      1.0000 0.99170  0.93020  0.42150  Biso   1.000  C
  C81      1.0000 0.57720  0.54180  0.91440  Biso   1.000  C
  C82      1.0000 0.42280  0.54180  0.58560  Biso   1.000  C
  C83      1.0000 0.07720  0.04180  0.91440  Biso   1.000  C
  C84      1.0000 0.92280  0.04180  0.58560  Biso   1.000  C
  C85      1.0000 0.42280  0.45820  0.08560  Biso   1.000  C
  C86      1.0000 0.57720  0.45820  0.41440  Biso   1.000  C
  C87      1.0000 0.92280  0.95820  0.08560  Biso   1.000  C
  C88      1.0000 0.07720  0.95820  0.41440  Biso   1.000  C
  H81      1.0000 0.59180  0.50050  0.87910  Biso   1.000  H
  H82      1.0000 0.40820  0.50050  0.62090  Biso   1.000  H
  H83      1.0000 0.09180  0.00050  0.87910  Biso   1.000  H
  H84      1.0000 0.90820  0.00050  0.62090  Biso   1.000  H
  H85      1.0000 0.40820  0.49950  0.12090  Biso   1.000  H
  H86      1.0000 0.59180  0.49950  0.37910  Biso   1.000  H
  H87      1.0000 0.90820  0.99950  0.12090  Biso   1.000  H
  H88      1.0000 0.09180  0.99950  0.37910  Biso   1.000  H
  C89      1.0000 0.63860  0.57730  0.96110  Biso   1.000  C
  C90      1.0000 0.36140  0.57730  0.53890  Biso   1.000  C
  C91      1.0000 0.13860  0.07730  0.96110  Biso   1.000  C
  C92      1.0000 0.86140  0.07730  0.53890  Biso   1.000  C
  C93      1.0000 0.36140  0.42270  0.03890  Biso   1.000  C
  C94      1.0000 0.63860  0.42270  0.46110  Biso   1.000  C
  C95      1.0000 0.86140  0.92270  0.03890  Biso   1.000  C
  C96      1.0000 0.13860  0.92270  0.46110  Biso   1.000  C
  H89      1.0000 0.69600  0.55960  0.95750  Biso   1.000  H
  H90      1.0000 0.30400  0.55960  0.54250  Biso   1.000  H
  H91      1.0000 0.19600  0.05960  0.95750  Biso   1.000  H
  H92      1.0000 0.80400  0.05960  0.54250  Biso   1.000  H
  H93      1.0000 0.30400  0.44040  0.04250  Biso   1.000  H
  H94      1.0000 0.69600  0.44040  0.45750  Biso   1.000  H
  H95      1.0000 0.80400  0.94040  0.04250  Biso   1.000  H
  H96      1.0000 0.19600  0.94040  0.45750  Biso   1.000  H
  C97      1.0000 0.61760  0.63850  0.01340  Biso   1.000  C
  C98      1.0000 0.38240  0.63850  0.48660  Biso   1.000  C
  C99      1.0000 0.11760  0.13850  0.01340  Biso   1.000  C
  C100     1.0000 0.88240  0.13850  0.48660  Biso   1.000  C
  C101     1.0000 0.38240  0.36150  0.98660  Biso   1.000  C
  C102     1.0000 0.61760  0.36150  0.51340  Biso   1.000  C
  C103     1.0000 0.88240  0.86150  0.98660  Biso   1.000  C
  C104     1.0000 0.11760  0.86150  0.51340  Biso   1.000  C
  H97      1.0000 0.66070  0.66080  0.04470  Biso   1.000  H
  H98      1.0000 0.33930  0.66080  0.45530  Biso   1.000  H
  H99      1.0000 0.16070  0.16080  0.04470  Biso   1.000  H
  H100     1.0000 0.83930  0.16080  0.45530  Biso   1.000  H
  H101     1.0000 0.33930  0.33920  0.95530  Biso   1.000  H
  H102     1.0000 0.66070  0.33920  0.54470  Biso   1.000  H
  H103     1.0000 0.83930  0.83920  0.95530  Biso   1.000  H
  H104     1.0000 0.16070  0.83920  0.54470  Biso   1.000  H
  C105     1.0000 0.47470  0.63260  0.97330  Biso   1.000  C
  C106     1.0000 0.52530  0.63260  0.52670  Biso   1.000  C
  C107     1.0000 0.97470  0.13260  0.97330  Biso   1.000  C
  C108     1.0000 0.02530  0.13260  0.52670  Biso   1.000  C
  C109     1.0000 0.52530  0.36740  0.02670  Biso   1.000  C
  C110     1.0000 0.47470  0.36740  0.47330  Biso   1.000  C
  C111     1.0000 0.02530  0.86740  0.02670  Biso   1.000  C
  C112     1.0000 0.97470  0.86740  0.47330  Biso   1.000  C
  H105     1.0000 0.41830  0.65310  0.97680  Biso   1.000  H
  H106     1.0000 0.58170  0.65310  0.52320  Biso   1.000  H
  H107     1.0000 0.91830  0.15310  0.97680  Biso   1.000  H
  H108     1.0000 0.08170  0.15310  0.52320  Biso   1.000  H
  H109     1.0000 0.58170  0.34690  0.02320  Biso   1.000  H
  H110     1.0000 0.41830  0.34690  0.47680  Biso   1.000  H
  H111     1.0000 0.08170  0.84690  0.02320  Biso   1.000  H
  H112     1.0000 0.91830  0.84690  0.47680  Biso   1.000  H
  C113     1.0000 0.85950  0.22670  0.16920  Biso   1.000  C
  C114     1.0000 0.14050  0.22670  0.33080  Biso   1.000  C
  C115     1.0000 0.35950  0.72670  0.16920  Biso   1.000  C
  C116     1.0000 0.64050  0.72670  0.33080  Biso   1.000  C
  C117     1.0000 0.14050  0.77330  0.83080  Biso   1.000  C
  C118     1.0000 0.85950  0.77330  0.66920  Biso   1.000  C
  C119     1.0000 0.64050  0.27330  0.83080  Biso   1.000  C
  C120     1.0000 0.35950  0.27330  0.66920  Biso   1.000  C
  C121     1.0000 0.77880  0.23870  0.21070  Biso   1.000  C
  C122     1.0000 0.22120  0.23870  0.28930  Biso   1.000  C
  C123     1.0000 0.27880  0.73870  0.21070  Biso   1.000  C
  C124     1.0000 0.72120  0.73870  0.28930  Biso   1.000  C
  C125     1.0000 0.22120  0.76130  0.78930  Biso   1.000  C
  C126     1.0000 0.77880  0.76130  0.71070  Biso   1.000  C
  C127     1.0000 0.72120  0.26130  0.78930  Biso   1.000  C
  C128     1.0000 0.27880  0.26130  0.71070  Biso   1.000  C
  C129     1.0000 0.70090  0.22660  0.17220  Biso   1.000  C
  C130     1.0000 0.29910  0.22660  0.32780  Biso   1.000  C
  C131     1.0000 0.20090  0.72660  0.17220  Biso   1.000  C
  C132     1.0000 0.79910  0.72660  0.32780  Biso   1.000  C
  C133     1.0000 0.29910  0.77340  0.82780  Biso   1.000  C
  C134     1.0000 0.70090  0.77340  0.67220  Biso   1.000  C
  C135     1.0000 0.79910  0.27340  0.82780  Biso   1.000  C
  C136     1.0000 0.20090  0.27340  0.67220  Biso   1.000  C
  H113     1.0000 0.70090  0.20760  0.12330  Biso   1.000  H
  H114     1.0000 0.29910  0.20760  0.37670  Biso   1.000  H
  H115     1.0000 0.20090  0.70760  0.12330  Biso   1.000  H
  H116     1.0000 0.79910  0.70760  0.37670  Biso   1.000  H
  H117     1.0000 0.29910  0.79240  0.87670  Biso   1.000  H
  H118     1.0000 0.70090  0.79240  0.62330  Biso   1.000  H
  H119     1.0000 0.79910  0.29240  0.87670  Biso   1.000  H
  H120     1.0000 0.20090  0.29240  0.62330  Biso   1.000  H
  C137     1.0000 0.62460  0.24250  0.20540  Biso   1.000  C
  C138     1.0000 0.37540  0.24250  0.29460  Biso   1.000  C
  C139     1.0000 0.12460  0.74250  0.20540  Biso   1.000  C
  C140     1.0000 0.87540  0.74250  0.29460  Biso   1.000  C
  C141     1.0000 0.37540  0.75750  0.79460  Biso   1.000  C
  C142     1.0000 0.62460  0.75750  0.70540  Biso   1.000  C
  C143     1.0000 0.87540  0.25750  0.79460  Biso   1.000  C
  C144     1.0000 0.12460  0.25750  0.70540  Biso   1.000  C
  H121     1.0000 0.57300  0.23630  0.17840  Biso   1.000  H
  H122     1.0000 0.42700  0.23630  0.32160  Biso   1.000  H
  H123     1.0000 0.07300  0.73630  0.17840  Biso   1.000  H
  H124     1.0000 0.92700  0.73630  0.32160  Biso   1.000  H
  H125     1.0000 0.42700  0.76370  0.82160  Biso   1.000  H
  H126     1.0000 0.57300  0.76370  0.67840  Biso   1.000  H
  H127     1.0000 0.92700  0.26370  0.82160  Biso   1.000  H
  H128     1.0000 0.07300  0.26370  0.67840  Biso   1.000  H
  C145     1.0000 0.62270  0.26730  0.27740  Biso   1.000  C
  C146     1.0000 0.37730  0.26730  0.22260  Biso   1.000  C
  C147     1.0000 0.12270  0.76730  0.27740  Biso   1.000  C
  C148     1.0000 0.87730  0.76730  0.22260  Biso   1.000  C
  C149     1.0000 0.37730  0.73270  0.72260  Biso   1.000  C
  C150     1.0000 0.62270  0.73270  0.77740  Biso   1.000  C
  C151     1.0000 0.87730  0.23270  0.72260  Biso   1.000  C
  C152     1.0000 0.12270  0.23270  0.77740  Biso   1.000  C
  H129     1.0000 0.57000  0.27610  0.29990  Biso   1.000  H
  H130     1.0000 0.43000  0.27610  0.20010  Biso   1.000  H
  H131     1.0000 0.07000  0.77610  0.29990  Biso   1.000  H
  H132     1.0000 0.93000  0.77610  0.20010  Biso   1.000  H
  H133     1.0000 0.43000  0.72390  0.70010  Biso   1.000  H
  H134     1.0000 0.57000  0.72390  0.79990  Biso   1.000  H
  H135     1.0000 0.93000  0.22390  0.70010  Biso   1.000  H
  H136     1.0000 0.07000  0.22390  0.79990  Biso   1.000  H
  C153     1.0000 0.69940  0.27930  0.31700  Biso   1.000  C
  C154     1.0000 0.30060  0.27930  0.18300  Biso   1.000  C
  C155     1.0000 0.19940  0.77930  0.31700  Biso   1.000  C
  C156     1.0000 0.80060  0.77930  0.18300  Biso   1.000  C
  C157     1.0000 0.30060  0.72070  0.68300  Biso   1.000  C
  C158     1.0000 0.69940  0.72070  0.81700  Biso   1.000  C
  C159     1.0000 0.80060  0.22070  0.68300  Biso   1.000  C
  C160     1.0000 0.19940  0.22070  0.81700  Biso   1.000  C
  H137     1.0000 0.69800  0.29730  0.36610  Biso   1.000  H
  H138     1.0000 0.30200  0.29730  0.13390  Biso   1.000  H
  H139     1.0000 0.19800  0.79730  0.36610  Biso   1.000  H
  H140     1.0000 0.80200  0.79730  0.13390  Biso   1.000  H
  H141     1.0000 0.30200  0.70270  0.63390  Biso   1.000  H
  H142     1.0000 0.69800  0.70270  0.86610  Biso   1.000  H
  H143     1.0000 0.80200  0.20270  0.63390  Biso   1.000  H
  H144     1.0000 0.19800  0.20270  0.86610  Biso   1.000  H
  C161     1.0000 0.77790  0.26490  0.28450  Biso   1.000  C
  C162     1.0000 0.22210  0.26490  0.21550  Biso   1.000  C
  C163     1.0000 0.27790  0.76490  0.28450  Biso   1.000  C
  C164     1.0000 0.72210  0.76490  0.21550  Biso   1.000  C
  C165     1.0000 0.22210  0.73510  0.71550  Biso   1.000  C
  C166     1.0000 0.77790  0.73510  0.78450  Biso   1.000  C
  C167     1.0000 0.72210  0.23510  0.71550  Biso   1.000  C
  C168     1.0000 0.27790  0.23510  0.78450  Biso   1.000  C
  C169     1.0000 0.85830  0.27500  0.33160  Biso   1.000  C
  C170     1.0000 0.14170  0.27500  0.16840  Biso   1.000  C
  C171     1.0000 0.35830  0.77500  0.33160  Biso   1.000  C
  C172     1.0000 0.64170  0.77500  0.16840  Biso   1.000  C
  C173     1.0000 0.14170  0.72500  0.66840  Biso   1.000  C
  C174     1.0000 0.85830  0.72500  0.83160  Biso   1.000  C
  C175     1.0000 0.64170  0.22500  0.66840  Biso   1.000  C
  C176     1.0000 0.35830  0.22500  0.83160  Biso   1.000  C
  O49      1.0000 0.00000  0.57950  0.75000  Biso   1.000  O
  O50      1.0000 0.50000  0.07950  0.75000  Biso   1.000  O
  O51      1.0000 0.00000  0.42050  0.25000  Biso   1.000  O
  O52      1.0000 0.50000  0.92050  0.25000  Biso   1.000  O
  H145     1.0000 0.01560  0.62690  0.77080  Biso   1.000  H
  H146     1.0000 0.98440  0.62690  0.72920  Biso   1.000  H
  H147     1.0000 0.51560  0.12690  0.77080  Biso   1.000  H
  H148     1.0000 0.48440  0.12690  0.72920  Biso   1.000  H
  H149     1.0000 0.98440  0.37310  0.22920  Biso   1.000  H
  H150     1.0000 0.01560  0.37310  0.27080  Biso   1.000  H
  H151     1.0000 0.48440  0.87310  0.22920  Biso   1.000  H
  H152     1.0000 0.51560  0.87310  0.27080  Biso   1.000  H
  O53      1.0000 0.50000  0.43110  0.75000  Biso   1.000  O
  O54      1.0000 0.00000  0.93110  0.75000  Biso   1.000  O
  O55      1.0000 0.50000  0.56890  0.25000  Biso   1.000  O
  O56      1.0000 0.00000  0.06890  0.25000  Biso   1.000  O
  H153     1.0000 0.47370  0.39570  0.72110  Biso   1.000  H
  H154     1.0000 0.52630  0.39570  0.77890  Biso   1.000  H
  H155     1.0000 0.97370  0.89570  0.72110  Biso   1.000  H
  H156     1.0000 0.02630  0.89570  0.77890  Biso   1.000  H
  H157     1.0000 0.52630  0.60430  0.27890  Biso   1.000  H
  H158     1.0000 0.47370  0.60430  0.22110  Biso   1.000  H
  H159     1.0000 0.02630  0.10430  0.27890  Biso   1.000  H
  H160     1.0000 0.97370  0.10430  0.22110  Biso   1.000  H
