data_image0
_cell_length_a       10.9568
_cell_length_b       17.7717
_cell_length_c       22.2155
_cell_angle_alpha    90
_cell_angle_beta     90
_cell_angle_gamma    90

_symmetry_space_group_name_H-M    "P 1"
_symmetry_int_tables_number       1

loop_
  _symmetry_equiv_pos_as_xyz
  'x, y, z'

loop_
  _atom_site_label
  _atom_site_occupancy
  _atom_site_fract_x
  _atom_site_fract_y
  _atom_site_fract_z
  _atom_site_thermal_displace_type
  _atom_site_B_iso_or_equiv
  _atom_site_type_symbol
  C1       1.0000 0.93250  0.00340  0.00780  Biso   1.000  C
  C2       1.0000 0.56750  0.49660  0.50780  Biso   1.000  C
  C3       1.0000 0.43250  0.49660  0.99220  Biso   1.000  C
  C4       1.0000 0.06750  0.00340  0.49220  Biso   1.000  C
  C5       1.0000 0.06750  0.99660  0.99220  Biso   1.000  C
  C6       1.0000 0.43250  0.50340  0.49220  Biso   1.000  C
  C7       1.0000 0.56750  0.50340  0.00780  Biso   1.000  C
  C8       1.0000 0.93250  0.99660  0.50780  Biso   1.000  C
  H1       1.0000 0.88490  0.98270  0.97490  Biso   1.000  H
  H2       1.0000 0.61510  0.51730  0.47490  Biso   1.000  H
  H3       1.0000 0.38490  0.51730  0.02510  Biso   1.000  H
  H4       1.0000 0.11510  0.98270  0.52510  Biso   1.000  H
  H5       1.0000 0.11510  0.01730  0.02510  Biso   1.000  H
  H6       1.0000 0.38490  0.48270  0.52510  Biso   1.000  H
  H7       1.0000 0.61510  0.48270  0.97490  Biso   1.000  H
  H8       1.0000 0.88490  0.01730  0.47490  Biso   1.000  H
  H9       1.0000 0.91600  0.97340  0.04330  Biso   1.000  H
  H10      1.0000 0.58400  0.52660  0.54330  Biso   1.000  H
  H11      1.0000 0.41600  0.52660  0.95670  Biso   1.000  H
  H12      1.0000 0.08400  0.97340  0.45670  Biso   1.000  H
  H13      1.0000 0.08400  0.02660  0.95670  Biso   1.000  H
  H14      1.0000 0.41600  0.47340  0.45670  Biso   1.000  H
  H15      1.0000 0.58400  0.47340  0.04330  Biso   1.000  H
  H16      1.0000 0.91600  0.02660  0.54330  Biso   1.000  H
  O1       1.0000 0.45660  0.24929  0.16450  Biso   1.000  O
  O2       1.0000 0.04340  0.25071  0.66450  Biso   1.000  O
  O3       1.0000 0.95660  0.25071  0.83550  Biso   1.000  O
  O4       1.0000 0.54340  0.24929  0.33550  Biso   1.000  O
  O5       1.0000 0.54340  0.75071  0.83550  Biso   1.000  O
  O6       1.0000 0.95660  0.74929  0.33550  Biso   1.000  O
  O7       1.0000 0.04340  0.74929  0.16450  Biso   1.000  O
  O8       1.0000 0.45660  0.75071  0.66450  Biso   1.000  O
  O9       1.0000 0.00000  0.63760  0.25000  Biso   1.000  O
  O10      1.0000 0.50000  0.86240  0.75000  Biso   1.000  O
  O11      1.0000 0.00000  0.36240  0.75000  Biso   1.000  O
  O12      1.0000 0.50000  0.13760  0.25000  Biso   1.000  O
  H17      1.0000 0.04190  0.66610  0.22150  Biso   1.000  H
  H18      1.0000 0.45810  0.83390  0.72150  Biso   1.000  H
  H19      1.0000 0.54190  0.83390  0.77850  Biso   1.000  H
  H20      1.0000 0.95810  0.66610  0.27850  Biso   1.000  H
  H21      1.0000 0.95810  0.33390  0.77850  Biso   1.000  H
  H22      1.0000 0.54190  0.16610  0.27850  Biso   1.000  H
  H23      1.0000 0.45810  0.16610  0.22150  Biso   1.000  H
  H24      1.0000 0.04190  0.33390  0.72150  Biso   1.000  H
  Cu1      1.0000 0.00000  0.51424  0.25000  Biso   1.000  Cu
  Cu2      1.0000 0.50000  0.98576  0.75000  Biso   1.000  Cu
  Cu3      1.0000 0.00000  0.48576  0.75000  Biso   1.000  Cu
  Cu4      1.0000 0.50000  0.01424  0.25000  Biso   1.000  Cu
  O13      1.0000 0.08650  0.50493  0.17200  Biso   1.000  O
  O14      1.0000 0.41350  0.99507  0.67200  Biso   1.000  O
  O15      1.0000 0.58650  0.99507  0.82800  Biso   1.000  O
  O16      1.0000 0.91350  0.50493  0.32800  Biso   1.000  O
  O17      1.0000 0.91350  0.49507  0.82800  Biso   1.000  O
  O18      1.0000 0.58650  0.00493  0.32800  Biso   1.000  O
  O19      1.0000 0.41350  0.00493  0.17200  Biso   1.000  O
  O20      1.0000 0.08650  0.49507  0.67200  Biso   1.000  O
  H25      1.0000 0.04230  0.51390  0.14980  Biso   1.000  H
  H26      1.0000 0.45770  0.98610  0.64980  Biso   1.000  H
  H27      1.0000 0.54230  0.98610  0.85020  Biso   1.000  H
  H28      1.0000 0.95770  0.51390  0.35020  Biso   1.000  H
  H29      1.0000 0.95770  0.48610  0.85020  Biso   1.000  H
  H30      1.0000 0.54230  0.01390  0.35020  Biso   1.000  H
  H31      1.0000 0.45770  0.01390  0.14980  Biso   1.000  H
  H32      1.0000 0.04230  0.48610  0.64980  Biso   1.000  H
  H33      1.0000 0.13570  0.52040  0.17570  Biso   1.000  H
  H34      1.0000 0.36430  0.97960  0.67570  Biso   1.000  H
  H35      1.0000 0.63570  0.97960  0.82430  Biso   1.000  H
  H36      1.0000 0.86430  0.52040  0.32430  Biso   1.000  H
  H37      1.0000 0.86430  0.47960  0.82430  Biso   1.000  H
  H38      1.0000 0.63570  0.02040  0.32430  Biso   1.000  H
  H39      1.0000 0.36430  0.02040  0.17570  Biso   1.000  H
  H40      1.0000 0.13570  0.47960  0.67570  Biso   1.000  H
  C9       1.0000 0.89120  0.08280  0.01920  Biso   1.000  C
  C10      1.0000 0.60880  0.41720  0.51920  Biso   1.000  C
  C11      1.0000 0.39120  0.41720  0.98080  Biso   1.000  C
  C12      1.0000 0.10880  0.08280  0.48080  Biso   1.000  C
  C13      1.0000 0.10880  0.91720  0.98080  Biso   1.000  C
  C14      1.0000 0.39120  0.58280  0.48080  Biso   1.000  C
  C15      1.0000 0.60880  0.58280  0.01920  Biso   1.000  C
  C16      1.0000 0.89120  0.91720  0.51920  Biso   1.000  C
  H41      1.0000 0.89980  0.11120  0.98220  Biso   1.000  H
  H42      1.0000 0.60020  0.38880  0.48220  Biso   1.000  H
  H43      1.0000 0.39980  0.38880  0.01780  Biso   1.000  H
  H44      1.0000 0.10020  0.11120  0.51780  Biso   1.000  H
  H45      1.0000 0.10020  0.88880  0.01780  Biso   1.000  H
  H46      1.0000 0.39980  0.61120  0.51780  Biso   1.000  H
  H47      1.0000 0.60020  0.61120  0.98220  Biso   1.000  H
  H48      1.0000 0.89980  0.88880  0.48220  Biso   1.000  H
  H49      1.0000 0.94540  0.10520  0.04870  Biso   1.000  H
  H50      1.0000 0.55460  0.39480  0.54870  Biso   1.000  H
  H51      1.0000 0.44540  0.39480  0.95130  Biso   1.000  H
  H52      1.0000 0.05460  0.10520  0.45130  Biso   1.000  H
  H53      1.0000 0.05460  0.89480  0.95130  Biso   1.000  H
  H54      1.0000 0.44540  0.60520  0.45130  Biso   1.000  H
  H55      1.0000 0.55460  0.60520  0.04870  Biso   1.000  H
  H56      1.0000 0.94540  0.89480  0.54870  Biso   1.000  H
  N1       1.0000 0.20900  0.20488  0.07037  Biso   1.000  N
  N2       1.0000 0.29100  0.29512  0.57037  Biso   1.000  N
  N3       1.0000 0.70900  0.29512  0.92963  Biso   1.000  N
  N4       1.0000 0.79100  0.20488  0.42963  Biso   1.000  N
  N5       1.0000 0.79100  0.79512  0.92963  Biso   1.000  N
  N6       1.0000 0.70900  0.70488  0.42963  Biso   1.000  N
  N7       1.0000 0.29100  0.70488  0.07037  Biso   1.000  N
  N8       1.0000 0.20900  0.79512  0.57037  Biso   1.000  N
  O21      1.0000 0.28470  0.31504  0.15597  Biso   1.000  O
  O22      1.0000 0.21530  0.18496  0.65597  Biso   1.000  O
  O23      1.0000 0.78470  0.18496  0.84403  Biso   1.000  O
  O24      1.0000 0.71530  0.31504  0.34403  Biso   1.000  O
  O25      1.0000 0.71530  0.68496  0.84403  Biso   1.000  O
  O26      1.0000 0.78470  0.81504  0.34403  Biso   1.000  O
  O27      1.0000 0.21530  0.81504  0.15597  Biso   1.000  O
  O28      1.0000 0.28470  0.68496  0.65597  Biso   1.000  O
  Cu5      1.0000 0.17311  0.23017  0.15702  Biso   1.000  Cu
  Cu6      1.0000 0.32689  0.26983  0.65702  Biso   1.000  Cu
  Cu7      1.0000 0.67311  0.26983  0.84298  Biso   1.000  Cu
  Cu8      1.0000 0.82689  0.23017  0.34298  Biso   1.000  Cu
  Cu9      1.0000 0.82689  0.76983  0.84298  Biso   1.000  Cu
  Cu10     1.0000 0.67311  0.73017  0.34298  Biso   1.000  Cu
  Cu11     1.0000 0.32689  0.73017  0.15702  Biso   1.000  Cu
  Cu12     1.0000 0.17311  0.76983  0.65702  Biso   1.000  Cu
  C17      1.0000 0.76050  0.09130  0.04150  Biso   1.000  C
  C18      1.0000 0.73950  0.40870  0.54150  Biso   1.000  C
  C19      1.0000 0.26050  0.40870  0.95850  Biso   1.000  C
  C20      1.0000 0.23950  0.09130  0.45850  Biso   1.000  C
  C21      1.0000 0.23950  0.90870  0.95850  Biso   1.000  C
  C22      1.0000 0.26050  0.59130  0.45850  Biso   1.000  C
  C23      1.0000 0.73950  0.59130  0.04150  Biso   1.000  C
  C24      1.0000 0.76050  0.90870  0.54150  Biso   1.000  C
  H57      1.0000 0.74940  0.05970  0.07670  Biso   1.000  H
  H58      1.0000 0.75060  0.44030  0.57670  Biso   1.000  H
  H59      1.0000 0.24940  0.44030  0.92330  Biso   1.000  H
  H60      1.0000 0.25060  0.05970  0.42330  Biso   1.000  H
  H61      1.0000 0.25060  0.94030  0.92330  Biso   1.000  H
  H62      1.0000 0.24940  0.55970  0.42330  Biso   1.000  H
  H63      1.0000 0.75060  0.55970  0.07670  Biso   1.000  H
  H64      1.0000 0.74940  0.94030  0.57670  Biso   1.000  H
  H65      1.0000 0.74780  0.14310  0.05390  Biso   1.000  H
  H66      1.0000 0.75220  0.35690  0.55390  Biso   1.000  H
  H67      1.0000 0.24780  0.35690  0.94610  Biso   1.000  H
  H68      1.0000 0.25220  0.14310  0.44610  Biso   1.000  H
  H69      1.0000 0.25220  0.85690  0.94610  Biso   1.000  H
  H70      1.0000 0.24780  0.64310  0.44610  Biso   1.000  H
  H71      1.0000 0.75220  0.64310  0.05390  Biso   1.000  H
  H72      1.0000 0.74780  0.85690  0.55390  Biso   1.000  H
  O29      1.0000 0.45560  0.65255  0.16064  Biso   1.000  O
  O30      1.0000 0.04440  0.84745  0.66064  Biso   1.000  O
  O31      1.0000 0.95560  0.84745  0.83936  Biso   1.000  O
  O32      1.0000 0.54440  0.65255  0.33936  Biso   1.000  O
  O33      1.0000 0.54440  0.34745  0.83936  Biso   1.000  O
  O34      1.0000 0.95560  0.15255  0.33936  Biso   1.000  O
  O35      1.0000 0.04440  0.15255  0.16064  Biso   1.000  O
  O36      1.0000 0.45560  0.34745  0.66064  Biso   1.000  O
  O37      1.0000 0.14830  0.24498  0.24452  Biso   1.000  O
  O38      1.0000 0.35170  0.25502  0.74452  Biso   1.000  O
  O39      1.0000 0.64830  0.25502  0.75548  Biso   1.000  O
  O40      1.0000 0.85170  0.24498  0.25548  Biso   1.000  O
  O41      1.0000 0.85170  0.75502  0.75548  Biso   1.000  O
  O42      1.0000 0.64830  0.74498  0.25548  Biso   1.000  O
  O43      1.0000 0.35170  0.74498  0.24452  Biso   1.000  O
  O44      1.0000 0.14830  0.75502  0.74452  Biso   1.000  O
  H73      1.0000 0.14600  0.29000  0.25220  Biso   1.000  H
  H74      1.0000 0.35400  0.21000  0.75220  Biso   1.000  H
  H75      1.0000 0.64600  0.21000  0.74780  Biso   1.000  H
  H76      1.0000 0.85400  0.29000  0.24780  Biso   1.000  H
  H77      1.0000 0.85400  0.71000  0.74780  Biso   1.000  H
  H78      1.0000 0.64600  0.79000  0.24780  Biso   1.000  H
  H79      1.0000 0.35400  0.79000  0.25220  Biso   1.000  H
  H80      1.0000 0.14600  0.71000  0.75220  Biso   1.000  H
  H81      1.0000 0.17820  0.23330  0.26970  Biso   1.000  H
  H82      1.0000 0.32180  0.26670  0.76970  Biso   1.000  H
  H83      1.0000 0.67820  0.26670  0.73030  Biso   1.000  H
  H84      1.0000 0.82180  0.23330  0.23030  Biso   1.000  H
  H85      1.0000 0.82180  0.76670  0.73030  Biso   1.000  H
  H86      1.0000 0.67820  0.73330  0.23030  Biso   1.000  H
  H87      1.0000 0.32180  0.73330  0.26970  Biso   1.000  H
  H88      1.0000 0.17820  0.76670  0.76970  Biso   1.000  H
  N9       1.0000 0.46410  0.12580  0.98296  Biso   1.000  N
  N10      1.0000 0.03590  0.37420  0.48296  Biso   1.000  N
  N11      1.0000 0.96410  0.37420  0.01704  Biso   1.000  N
  N12      1.0000 0.53590  0.12580  0.51704  Biso   1.000  N
  N13      1.0000 0.53590  0.87420  0.01704  Biso   1.000  N
  N14      1.0000 0.96410  0.62580  0.51704  Biso   1.000  N
  N15      1.0000 0.03590  0.62580  0.98296  Biso   1.000  N
  N16      1.0000 0.46410  0.87420  0.48296  Biso   1.000  N
  H89      1.0000 0.48930  0.13360  0.94680  Biso   1.000  H
  H90      1.0000 0.01070  0.36640  0.44680  Biso   1.000  H
  H91      1.0000 0.98930  0.36640  0.05320  Biso   1.000  H
  H92      1.0000 0.51070  0.13360  0.55320  Biso   1.000  H
  H93      1.0000 0.51070  0.86640  0.05320  Biso   1.000  H
  H94      1.0000 0.98930  0.63360  0.55320  Biso   1.000  H
  H95      1.0000 0.01070  0.63360  0.94680  Biso   1.000  H
  H96      1.0000 0.48930  0.86640  0.44680  Biso   1.000  H
  C25      1.0000 0.66540  0.07100  0.99550  Biso   1.000  C
  C26      1.0000 0.83460  0.42900  0.49550  Biso   1.000  C
  C27      1.0000 0.16540  0.42900  0.00450  Biso   1.000  C
  C28      1.0000 0.33460  0.07100  0.50450  Biso   1.000  C
  C29      1.0000 0.33460  0.92900  0.00450  Biso   1.000  C
  C30      1.0000 0.16540  0.57100  0.50450  Biso   1.000  C
  C31      1.0000 0.83460  0.57100  0.99550  Biso   1.000  C
  C32      1.0000 0.66540  0.92900  0.49550  Biso   1.000  C
  H97      1.0000 0.67290  0.01810  0.98520  Biso   1.000  H
  H98      1.0000 0.82710  0.48190  0.48520  Biso   1.000  H
  H99      1.0000 0.17290  0.48190  0.01480  Biso   1.000  H
  H100     1.0000 0.32710  0.01810  0.51480  Biso   1.000  H
  H101     1.0000 0.32710  0.98190  0.01480  Biso   1.000  H
  H102     1.0000 0.17290  0.51810  0.51480  Biso   1.000  H
  H103     1.0000 0.82710  0.51810  0.98520  Biso   1.000  H
  H104     1.0000 0.67290  0.98190  0.48520  Biso   1.000  H
  H105     1.0000 0.67860  0.10020  0.95920  Biso   1.000  H
  H106     1.0000 0.82140  0.39980  0.45920  Biso   1.000  H
  H107     1.0000 0.17860  0.39980  0.04080  Biso   1.000  H
  H108     1.0000 0.32140  0.10020  0.54080  Biso   1.000  H
  H109     1.0000 0.32140  0.89980  0.04080  Biso   1.000  H
  H110     1.0000 0.17860  0.60020  0.54080  Biso   1.000  H
  H111     1.0000 0.82140  0.60020  0.95920  Biso   1.000  H
  H112     1.0000 0.67860  0.89980  0.45920  Biso   1.000  H
  O45      1.0000 0.28420  0.58919  0.16936  Biso   1.000  O
  O46      1.0000 0.21580  0.91081  0.66936  Biso   1.000  O
  O47      1.0000 0.78420  0.91081  0.83064  Biso   1.000  O
  O48      1.0000 0.71580  0.58919  0.33064  Biso   1.000  O
  O49      1.0000 0.71580  0.41081  0.83064  Biso   1.000  O
  O50      1.0000 0.78420  0.08919  0.33064  Biso   1.000  O
  O51      1.0000 0.21580  0.08919  0.16936  Biso   1.000  O
  O52      1.0000 0.28420  0.41081  0.66936  Biso   1.000  O
  O53      1.0000 0.03820  0.34015  0.13959  Biso   1.000  O
  O54      1.0000 0.46180  0.15985  0.63959  Biso   1.000  O
  O55      1.0000 0.53820  0.15985  0.86041  Biso   1.000  O
  O56      1.0000 0.96180  0.34015  0.36041  Biso   1.000  O
  O57      1.0000 0.96180  0.65985  0.86041  Biso   1.000  O
  O58      1.0000 0.53820  0.84015  0.36041  Biso   1.000  O
  O59      1.0000 0.46180  0.84015  0.13959  Biso   1.000  O
  O60      1.0000 0.03820  0.65985  0.63959  Biso   1.000  O
  H113     1.0000 0.06930  0.37210  0.14770  Biso   1.000  H
  H114     1.0000 0.43070  0.12790  0.64770  Biso   1.000  H
  H115     1.0000 0.56930  0.12790  0.85230  Biso   1.000  H
  H116     1.0000 0.93070  0.37210  0.35230  Biso   1.000  H
  H117     1.0000 0.93070  0.62790  0.85230  Biso   1.000  H
  H118     1.0000 0.56930  0.87210  0.35230  Biso   1.000  H
  H119     1.0000 0.43070  0.87210  0.14770  Biso   1.000  H
  H120     1.0000 0.06930  0.62790  0.64770  Biso   1.000  H
  H121     1.0000 0.97470  0.35510  0.16350  Biso   1.000  H
  H122     1.0000 0.52530  0.14490  0.66350  Biso   1.000  H
  H123     1.0000 0.47470  0.14490  0.83650  Biso   1.000  H
  H124     1.0000 0.02530  0.35510  0.33650  Biso   1.000  H
  H125     1.0000 0.02530  0.64490  0.83650  Biso   1.000  H
  H126     1.0000 0.47470  0.85510  0.33650  Biso   1.000  H
  H127     1.0000 0.52530  0.85510  0.16350  Biso   1.000  H
  H128     1.0000 0.97470  0.64490  0.66350  Biso   1.000  H
  C33      1.0000 0.53910  0.08630  0.01950  Biso   1.000  C
  C34      1.0000 0.96090  0.41370  0.51950  Biso   1.000  C
  C35      1.0000 0.03910  0.41370  0.98050  Biso   1.000  C
  C36      1.0000 0.46090  0.08630  0.48050  Biso   1.000  C
  C37      1.0000 0.46090  0.91370  0.98050  Biso   1.000  C
  C38      1.0000 0.03910  0.58630  0.48050  Biso   1.000  C
  C39      1.0000 0.96090  0.58630  0.01950  Biso   1.000  C
  C40      1.0000 0.53910  0.91370  0.51950  Biso   1.000  C
  O61      1.0000 0.84170  0.51152  0.20997  Biso   1.000  O
  O62      1.0000 0.65830  0.98848  0.70997  Biso   1.000  O
  O63      1.0000 0.34170  0.98848  0.79003  Biso   1.000  O
  O64      1.0000 0.15830  0.51152  0.29003  Biso   1.000  O
  O65      1.0000 0.15830  0.48848  0.79003  Biso   1.000  O
  O66      1.0000 0.34170  0.01152  0.29003  Biso   1.000  O
  O67      1.0000 0.65830  0.01152  0.20997  Biso   1.000  O
  O68      1.0000 0.84170  0.48848  0.70997  Biso   1.000  O
  C41      1.0000 0.34850  0.15560  0.99800  Biso   1.000  C
  C42      1.0000 0.15150  0.34440  0.49800  Biso   1.000  C
  C43      1.0000 0.84850  0.34440  0.00200  Biso   1.000  C
  C44      1.0000 0.65150  0.15560  0.50200  Biso   1.000  C
  C45      1.0000 0.65150  0.84440  0.00200  Biso   1.000  C
  C46      1.0000 0.84850  0.65560  0.50200  Biso   1.000  C
  C47      1.0000 0.15150  0.65560  0.99800  Biso   1.000  C
  C48      1.0000 0.34850  0.84440  0.49800  Biso   1.000  C
  O69      1.0000 0.84240  0.38693  0.20718  Biso   1.000  O
  O70      1.0000 0.65760  0.11307  0.70718  Biso   1.000  O
  O71      1.0000 0.34240  0.11307  0.79282  Biso   1.000  O
  O72      1.0000 0.15760  0.38693  0.29282  Biso   1.000  O
  O73      1.0000 0.15760  0.61307  0.79282  Biso   1.000  O
  O74      1.0000 0.34240  0.88693  0.29282  Biso   1.000  O
  O75      1.0000 0.65760  0.88693  0.20718  Biso   1.000  O
  O76      1.0000 0.84240  0.61307  0.70718  Biso   1.000  O
  C49      1.0000 0.26620  0.17140  0.95220  Biso   1.000  C
  C50      1.0000 0.23380  0.32860  0.45220  Biso   1.000  C
  C51      1.0000 0.76620  0.32860  0.04780  Biso   1.000  C
  C52      1.0000 0.73380  0.17140  0.54780  Biso   1.000  C
  C53      1.0000 0.73380  0.82860  0.04780  Biso   1.000  C
  C54      1.0000 0.76620  0.67140  0.54780  Biso   1.000  C
  C55      1.0000 0.23380  0.67140  0.95220  Biso   1.000  C
  C56      1.0000 0.26620  0.82860  0.45220  Biso   1.000  C
  H129     1.0000 0.28580  0.16110  0.91230  Biso   1.000  H
  H130     1.0000 0.21420  0.33890  0.41230  Biso   1.000  H
  H131     1.0000 0.78580  0.33890  0.08770  Biso   1.000  H
  H132     1.0000 0.71420  0.16110  0.58770  Biso   1.000  H
  H133     1.0000 0.71420  0.83890  0.08770  Biso   1.000  H
  H134     1.0000 0.78580  0.66110  0.58770  Biso   1.000  H
  H135     1.0000 0.21420  0.66110  0.91230  Biso   1.000  H
  H136     1.0000 0.28580  0.83890  0.41230  Biso   1.000  H
  O77      1.0000 0.50850  0.06570  0.06974  Biso   1.000  O
  O78      1.0000 0.99150  0.43430  0.56974  Biso   1.000  O
  O79      1.0000 0.00850  0.43430  0.93026  Biso   1.000  O
  O80      1.0000 0.49150  0.06570  0.43026  Biso   1.000  O
  O81      1.0000 0.49150  0.93430  0.93026  Biso   1.000  O
  O82      1.0000 0.00850  0.56570  0.43026  Biso   1.000  O
  O83      1.0000 0.99150  0.56570  0.06974  Biso   1.000  O
  O84      1.0000 0.50850  0.93430  0.56974  Biso   1.000  O
  C57      1.0000 0.15450  0.20260  0.96690  Biso   1.000  C
  C58      1.0000 0.34550  0.29740  0.46690  Biso   1.000  C
  C59      1.0000 0.65450  0.29740  0.03310  Biso   1.000  C
  C60      1.0000 0.84550  0.20260  0.53310  Biso   1.000  C
  C61      1.0000 0.84550  0.79740  0.03310  Biso   1.000  C
  C62      1.0000 0.65450  0.70260  0.53310  Biso   1.000  C
  C63      1.0000 0.34550  0.70260  0.96690  Biso   1.000  C
  C64      1.0000 0.15450  0.79740  0.46690  Biso   1.000  C
  H137     1.0000 0.09770  0.21350  0.93700  Biso   1.000  H
  H138     1.0000 0.40230  0.28650  0.43700  Biso   1.000  H
  H139     1.0000 0.59770  0.28650  0.06300  Biso   1.000  H
  H140     1.0000 0.90230  0.21350  0.56300  Biso   1.000  H
  H141     1.0000 0.90230  0.78650  0.06300  Biso   1.000  H
  H142     1.0000 0.59770  0.71350  0.56300  Biso   1.000  H
  H143     1.0000 0.40230  0.71350  0.93700  Biso   1.000  H
  H144     1.0000 0.09770  0.78650  0.43700  Biso   1.000  H
  C65      1.0000 0.12880  0.21730  0.02630  Biso   1.000  C
  C66      1.0000 0.37120  0.28270  0.52630  Biso   1.000  C
  C67      1.0000 0.62880  0.28270  0.97370  Biso   1.000  C
  C68      1.0000 0.87120  0.21730  0.47370  Biso   1.000  C
  C69      1.0000 0.87120  0.78270  0.97370  Biso   1.000  C
  C70      1.0000 0.62880  0.71730  0.47370  Biso   1.000  C
  C71      1.0000 0.37120  0.71730  0.02630  Biso   1.000  C
  C72      1.0000 0.12880  0.78270  0.52630  Biso   1.000  C
  H145     1.0000 0.05250  0.23660  0.03620  Biso   1.000  H
  H146     1.0000 0.44750  0.26340  0.53620  Biso   1.000  H
  H147     1.0000 0.55250  0.26340  0.96380  Biso   1.000  H
  H148     1.0000 0.94750  0.23660  0.46380  Biso   1.000  H
  H149     1.0000 0.94750  0.76340  0.96380  Biso   1.000  H
  H150     1.0000 0.55250  0.73660  0.46380  Biso   1.000  H
  H151     1.0000 0.44750  0.73660  0.03620  Biso   1.000  H
  H152     1.0000 0.05250  0.76340  0.53620  Biso   1.000  H
  C73      1.0000 0.31690  0.17420  0.05630  Biso   1.000  C
  C74      1.0000 0.18310  0.32580  0.55630  Biso   1.000  C
  C75      1.0000 0.81690  0.32580  0.94370  Biso   1.000  C
  C76      1.0000 0.68310  0.17420  0.44370  Biso   1.000  C
  C77      1.0000 0.68310  0.82580  0.94370  Biso   1.000  C
  C78      1.0000 0.81690  0.67420  0.44370  Biso   1.000  C
  C79      1.0000 0.18310  0.67420  0.05630  Biso   1.000  C
  C80      1.0000 0.31690  0.82580  0.55630  Biso   1.000  C
  H153     1.0000 0.37280  0.16510  0.08690  Biso   1.000  H
  H154     1.0000 0.12720  0.33490  0.58690  Biso   1.000  H
  H155     1.0000 0.87280  0.33490  0.91310  Biso   1.000  H
  H156     1.0000 0.62720  0.16510  0.41310  Biso   1.000  H
  H157     1.0000 0.62720  0.83490  0.91310  Biso   1.000  H
  H158     1.0000 0.87280  0.66510  0.41310  Biso   1.000  H
  H159     1.0000 0.12720  0.66510  0.08690  Biso   1.000  H
  H160     1.0000 0.37280  0.83490  0.58690  Biso   1.000  H
  C81      1.0000 0.40090  0.30900  0.16208  Biso   1.000  C
  C82      1.0000 0.09910  0.19100  0.66208  Biso   1.000  C
  C83      1.0000 0.90090  0.19100  0.83792  Biso   1.000  C
  C84      1.0000 0.59910  0.30900  0.33792  Biso   1.000  C
  C85      1.0000 0.59910  0.69100  0.83792  Biso   1.000  C
  C86      1.0000 0.90090  0.80900  0.33792  Biso   1.000  C
  C87      1.0000 0.09910  0.80900  0.16208  Biso   1.000  C
  C88      1.0000 0.40090  0.69100  0.66208  Biso   1.000  C
  C89      1.0000 0.46880  0.38300  0.16625  Biso   1.000  C
  C90      1.0000 0.03120  0.11700  0.66625  Biso   1.000  C
  C91      1.0000 0.96880  0.11700  0.83375  Biso   1.000  C
  C92      1.0000 0.53120  0.38300  0.33375  Biso   1.000  C
  C93      1.0000 0.53120  0.61700  0.83375  Biso   1.000  C
  C94      1.0000 0.96880  0.88300  0.33375  Biso   1.000  C
  C95      1.0000 0.03120  0.88300  0.16625  Biso   1.000  C
  C96      1.0000 0.46880  0.61700  0.66625  Biso   1.000  C
  C97      1.0000 0.59340  0.38310  0.17863  Biso   1.000  C
  C98      1.0000 0.90660  0.11690  0.67863  Biso   1.000  C
  C99      1.0000 0.09340  0.11690  0.82137  Biso   1.000  C
  C100     1.0000 0.40660  0.38310  0.32137  Biso   1.000  C
  C101     1.0000 0.40660  0.61690  0.82137  Biso   1.000  C
  C102     1.0000 0.09340  0.88310  0.32137  Biso   1.000  C
  C103     1.0000 0.90660  0.88310  0.17863  Biso   1.000  C
  C104     1.0000 0.59340  0.61690  0.67863  Biso   1.000  C
  H161     1.0000 0.63480  0.33770  0.18250  Biso   1.000  H
  H162     1.0000 0.86520  0.16230  0.68250  Biso   1.000  H
  H163     1.0000 0.13480  0.16230  0.81750  Biso   1.000  H
  H164     1.0000 0.36520  0.33770  0.31750  Biso   1.000  H
  H165     1.0000 0.36520  0.66230  0.81750  Biso   1.000  H
  H166     1.0000 0.13480  0.83770  0.31750  Biso   1.000  H
  H167     1.0000 0.86520  0.83770  0.18250  Biso   1.000  H
  H168     1.0000 0.63480  0.66230  0.68250  Biso   1.000  H
  C105     1.0000 0.65630  0.45030  0.18526  Biso   1.000  C
  C106     1.0000 0.84370  0.04970  0.68526  Biso   1.000  C
  C107     1.0000 0.15630  0.04970  0.81474  Biso   1.000  C
  C108     1.0000 0.34370  0.45030  0.31474  Biso   1.000  C
  C109     1.0000 0.34370  0.54970  0.81474  Biso   1.000  C
  C110     1.0000 0.15630  0.95030  0.31474  Biso   1.000  C
  C111     1.0000 0.84370  0.95030  0.18526  Biso   1.000  C
  C112     1.0000 0.65630  0.54970  0.68526  Biso   1.000  C
  C113     1.0000 0.59350  0.51840  0.17970  Biso   1.000  C
  C114     1.0000 0.90650  0.98160  0.67970  Biso   1.000  C
  C115     1.0000 0.09350  0.98160  0.82030  Biso   1.000  C
  C116     1.0000 0.40650  0.51840  0.32030  Biso   1.000  C
  C117     1.0000 0.40650  0.48160  0.82030  Biso   1.000  C
  C118     1.0000 0.09350  0.01840  0.32030  Biso   1.000  C
  C119     1.0000 0.90650  0.01840  0.17970  Biso   1.000  C
  C120     1.0000 0.59350  0.48160  0.67970  Biso   1.000  C
  H169     1.0000 0.63540  0.56370  0.18370  Biso   1.000  H
  H170     1.0000 0.86460  0.93630  0.68370  Biso   1.000  H
  H171     1.0000 0.13540  0.93630  0.81630  Biso   1.000  H
  H172     1.0000 0.36460  0.56370  0.31630  Biso   1.000  H
  H173     1.0000 0.36460  0.43630  0.81630  Biso   1.000  H
  H174     1.0000 0.13540  0.06370  0.31630  Biso   1.000  H
  H175     1.0000 0.86460  0.06370  0.18370  Biso   1.000  H
  H176     1.0000 0.63540  0.43630  0.68370  Biso   1.000  H
  C121     1.0000 0.46860  0.51890  0.16822  Biso   1.000  C
  C122     1.0000 0.03140  0.98110  0.66822  Biso   1.000  C
  C123     1.0000 0.96860  0.98110  0.83178  Biso   1.000  C
  C124     1.0000 0.53140  0.51890  0.33178  Biso   1.000  C
  C125     1.0000 0.53140  0.48110  0.83178  Biso   1.000  C
  C126     1.0000 0.96860  0.01890  0.33178  Biso   1.000  C
  C127     1.0000 0.03140  0.01890  0.16822  Biso   1.000  C
  C128     1.0000 0.46860  0.48110  0.66822  Biso   1.000  C
  C129     1.0000 0.40720  0.45060  0.16158  Biso   1.000  C
  C130     1.0000 0.09280  0.04940  0.66158  Biso   1.000  C
  C131     1.0000 0.90720  0.04940  0.83842  Biso   1.000  C
  C132     1.0000 0.59280  0.45060  0.33842  Biso   1.000  C
  C133     1.0000 0.59280  0.54940  0.83842  Biso   1.000  C
  C134     1.0000 0.90720  0.95060  0.33842  Biso   1.000  C
  C135     1.0000 0.09280  0.95060  0.16158  Biso   1.000  C
  C136     1.0000 0.40720  0.54940  0.66158  Biso   1.000  C
  H177     1.0000 0.32380  0.45060  0.15390  Biso   1.000  H
  H178     1.0000 0.17620  0.04940  0.65390  Biso   1.000  H
  H179     1.0000 0.82380  0.04940  0.84610  Biso   1.000  H
  H180     1.0000 0.67620  0.45060  0.34610  Biso   1.000  H
  H181     1.0000 0.67620  0.54940  0.84610  Biso   1.000  H
  H182     1.0000 0.82380  0.95060  0.34610  Biso   1.000  H
  H183     1.0000 0.17620  0.95060  0.15390  Biso   1.000  H
  H184     1.0000 0.32380  0.54940  0.65390  Biso   1.000  H
  C137     1.0000 0.79030  0.44850  0.20201  Biso   1.000  C
  C138     1.0000 0.70970  0.05150  0.70201  Biso   1.000  C
  C139     1.0000 0.29030  0.05150  0.79799  Biso   1.000  C
  C140     1.0000 0.20970  0.44850  0.29799  Biso   1.000  C
  C141     1.0000 0.20970  0.55150  0.79799  Biso   1.000  C
  C142     1.0000 0.29030  0.94850  0.29799  Biso   1.000  C
  C143     1.0000 0.70970  0.94850  0.20201  Biso   1.000  C
  C144     1.0000 0.79030  0.55150  0.70201  Biso   1.000  C
  C145     1.0000 0.39760  0.59070  0.16604  Biso   1.000  C
  C146     1.0000 0.10240  0.90930  0.66604  Biso   1.000  C
  C147     1.0000 0.89760  0.90930  0.83396  Biso   1.000  C
  C148     1.0000 0.60240  0.59070  0.33396  Biso   1.000  C
  C149     1.0000 0.60240  0.40930  0.83396  Biso   1.000  C
  C150     1.0000 0.89760  0.09070  0.33396  Biso   1.000  C
  C151     1.0000 0.10240  0.09070  0.16604  Biso   1.000  C
  C152     1.0000 0.39760  0.40930  0.66604  Biso   1.000  C
  O85      1.0000 0.30000  0.18010  0.32210  Biso   1.000  O
  O86      1.0000 0.20000  0.31990  0.82210  Biso   1.000  O
  O87      1.0000 0.80000  0.31990  0.67790  Biso   1.000  O
  O88      1.0000 0.70000  0.18010  0.17790  Biso   1.000  O
  O89      1.0000 0.70000  0.81990  0.67790  Biso   1.000  O
  O90      1.0000 0.80000  0.68010  0.17790  Biso   1.000  O
  O91      1.0000 0.20000  0.68010  0.32210  Biso   1.000  O
  O92      1.0000 0.30000  0.81990  0.82210  Biso   1.000  O
