data_image0
_cell_length_a       6.8233
_cell_length_b       6.8233
_cell_length_c       16.1432
_cell_angle_alpha    90
_cell_angle_beta     90
_cell_angle_gamma    90

_symmetry_space_group_name_H-M    "P 1"
_symmetry_int_tables_number       1

loop_
  _symmetry_equiv_pos_as_xyz
  'x, y, z'

loop_
  _atom_site_label
  _atom_site_occupancy
  _atom_site_fract_x
  _atom_site_fract_y
  _atom_site_fract_z
  _atom_site_thermal_displace_type
  _atom_site_B_iso_or_equiv
  _atom_site_type_symbol
  Ni1      1.0000 0.50000  0.00000  0.00000  Biso   1.000  Ni
  Ni2      1.0000 0.00000  0.50000  0.50000  Biso   1.000  Ni
  Cu1      1.0000 0.50000  0.50000  0.25000  Biso   1.000  Cu
  Cu2      1.0000 0.50000  0.50000  0.75000  Biso   1.000  Cu
  S1       1.0000 0.50000  0.22660  0.09250  Biso   1.000  S
  S2       1.0000 0.50000  0.77340  0.09250  Biso   1.000  S
  S3       1.0000 0.50000  0.22660  0.90750  Biso   1.000  S
  S4       1.0000 0.77340  0.50000  0.40750  Biso   1.000  S
  S5       1.0000 0.77340  0.50000  0.59250  Biso   1.000  S
  S6       1.0000 0.22660  0.50000  0.59250  Biso   1.000  S
  S7       1.0000 0.22660  0.50000  0.40750  Biso   1.000  S
  S8       1.0000 0.50000  0.77340  0.90750  Biso   1.000  S
  C1       1.0000 0.50000  0.09800  0.19200  Biso   1.000  C
  C2       1.0000 0.50000  0.90200  0.19200  Biso   1.000  C
  C3       1.0000 0.50000  0.09800  0.80800  Biso   1.000  C
  C4       1.0000 0.90200  0.50000  0.30800  Biso   1.000  C
  C5       1.0000 0.90200  0.50000  0.69200  Biso   1.000  C
  C6       1.0000 0.09800  0.50000  0.69200  Biso   1.000  C
  C7       1.0000 0.09800  0.50000  0.30800  Biso   1.000  C
  C8       1.0000 0.50000  0.90200  0.80800  Biso   1.000  C
  N1       1.0000 0.50000  0.20960  0.25850  Biso   1.000  N
  N2       1.0000 0.50000  0.79040  0.25850  Biso   1.000  N
  N3       1.0000 0.50000  0.20960  0.74150  Biso   1.000  N
  N4       1.0000 0.79040  0.50000  0.24150  Biso   1.000  N
  N5       1.0000 0.79040  0.50000  0.75850  Biso   1.000  N
  N6       1.0000 0.20960  0.50000  0.75850  Biso   1.000  N
  N7       1.0000 0.20960  0.50000  0.24150  Biso   1.000  N
  N8       1.0000 0.50000  0.79040  0.74150  Biso   1.000  N
  C9       1.0000 0.50000  0.09600  0.32540  Biso   1.000  C
  C10      1.0000 0.50000  0.90400  0.32540  Biso   1.000  C
  C11      1.0000 0.50000  0.09600  0.67460  Biso   1.000  C
  C12      1.0000 0.90400  0.50000  0.17460  Biso   1.000  C
  C13      1.0000 0.90400  0.50000  0.82540  Biso   1.000  C
  C14      1.0000 0.09600  0.50000  0.82540  Biso   1.000  C
  C15      1.0000 0.09600  0.50000  0.17460  Biso   1.000  C
  C16      1.0000 0.50000  0.90400  0.67460  Biso   1.000  C
  H1       1.0000 0.50000  0.16850  0.38540  Biso   1.000  H
  H2       1.0000 0.50000  0.83150  0.38540  Biso   1.000  H
  H3       1.0000 0.50000  0.16850  0.61460  Biso   1.000  H
  H4       1.0000 0.83150  0.50000  0.11460  Biso   1.000  H
  H5       1.0000 0.83150  0.50000  0.88540  Biso   1.000  H
  H6       1.0000 0.16850  0.50000  0.88540  Biso   1.000  H
  H7       1.0000 0.16850  0.50000  0.11460  Biso   1.000  H
  H8       1.0000 0.50000  0.83150  0.61460  Biso   1.000  H
  C17      1.0000 0.00000  0.00000  0.28760  Biso   1.000  C
  C18      1.0000 0.00000  0.00000  0.71240  Biso   1.000  C
  C19      1.0000 0.00000  0.00000  0.21240  Biso   1.000  C
  C20      1.0000 0.00000  0.00000  0.78760  Biso   1.000  C
  H9       1.0000 0.00000  0.00000  0.35500  Biso   1.000  H
  H10      1.0000 0.00000  0.00000  0.64500  Biso   1.000  H
  H11      1.0000 0.00000  0.00000  0.14500  Biso   1.000  H
  H12      1.0000 0.00000  0.00000  0.85500  Biso   1.000  H
