data_image0
_cell_length_a       6.8342
_cell_length_b       6.8342
_cell_length_c       16.0964
_cell_angle_alpha    90
_cell_angle_beta     90
_cell_angle_gamma    90

_symmetry_space_group_name_H-M    "P 1"
_symmetry_int_tables_number       1

loop_
  _symmetry_equiv_pos_as_xyz
  'x, y, z'

loop_
  _atom_site_label
  _atom_site_occupancy
  _atom_site_fract_x
  _atom_site_fract_y
  _atom_site_fract_z
  _atom_site_thermal_displace_type
  _atom_site_B_iso_or_equiv
  _atom_site_type_symbol
  Ni1      1.0000 0.50000  0.00000  0.00000  Biso   1.000  Ni
  Ni2      1.0000 0.00000  0.50000  0.50000  Biso   1.000  Ni
  Cu1      1.0000 0.50000  0.50000  0.25000  Biso   1.000  Cu
  Cu2      1.0000 0.50000  0.50000  0.75000  Biso   1.000  Cu
  S1       1.0000 0.50000  0.22770  0.09300  Biso   1.000  S
  S2       1.0000 0.50000  0.77230  0.09300  Biso   1.000  S
  S3       1.0000 0.50000  0.22770  0.90700  Biso   1.000  S
  S4       1.0000 0.77230  0.50000  0.40700  Biso   1.000  S
  S5       1.0000 0.77230  0.50000  0.59300  Biso   1.000  S
  S6       1.0000 0.22770  0.50000  0.59300  Biso   1.000  S
  S7       1.0000 0.22770  0.50000  0.40700  Biso   1.000  S
  S8       1.0000 0.50000  0.77230  0.90700  Biso   1.000  S
  C1       1.0000 0.50000  0.09700  0.19260  Biso   1.000  C
  C2       1.0000 0.50000  0.90300  0.19260  Biso   1.000  C
  C3       1.0000 0.50000  0.09700  0.80740  Biso   1.000  C
  C4       1.0000 0.90300  0.50000  0.30740  Biso   1.000  C
  C5       1.0000 0.90300  0.50000  0.69260  Biso   1.000  C
  C6       1.0000 0.09700  0.50000  0.69260  Biso   1.000  C
  C7       1.0000 0.09700  0.50000  0.30740  Biso   1.000  C
  C8       1.0000 0.50000  0.90300  0.80740  Biso   1.000  C
  N1       1.0000 0.50000  0.21080  0.25910  Biso   1.000  N
  N2       1.0000 0.50000  0.78920  0.25910  Biso   1.000  N
  N3       1.0000 0.50000  0.21080  0.74090  Biso   1.000  N
  N4       1.0000 0.78920  0.50000  0.24090  Biso   1.000  N
  N5       1.0000 0.78920  0.50000  0.75910  Biso   1.000  N
  N6       1.0000 0.21080  0.50000  0.75910  Biso   1.000  N
  N7       1.0000 0.21080  0.50000  0.24090  Biso   1.000  N
  N8       1.0000 0.50000  0.78920  0.74090  Biso   1.000  N
  C9       1.0000 0.50000  0.09700  0.32590  Biso   1.000  C
  C10      1.0000 0.50000  0.90300  0.32590  Biso   1.000  C
  C11      1.0000 0.50000  0.09700  0.67410  Biso   1.000  C
  C12      1.0000 0.90300  0.50000  0.17410  Biso   1.000  C
  C13      1.0000 0.90300  0.50000  0.82590  Biso   1.000  C
  C14      1.0000 0.09700  0.50000  0.82590  Biso   1.000  C
  C15      1.0000 0.09700  0.50000  0.17410  Biso   1.000  C
  C16      1.0000 0.50000  0.90300  0.67410  Biso   1.000  C
  H1       1.0000 0.50000  0.17250  0.38630  Biso   1.000  H
  H2       1.0000 0.50000  0.82750  0.38630  Biso   1.000  H
  H3       1.0000 0.50000  0.17250  0.61370  Biso   1.000  H
  H4       1.0000 0.82750  0.50000  0.11370  Biso   1.000  H
  H5       1.0000 0.82750  0.50000  0.88630  Biso   1.000  H
  H6       1.0000 0.17250  0.50000  0.88630  Biso   1.000  H
  H7       1.0000 0.17250  0.50000  0.11370  Biso   1.000  H
  H8       1.0000 0.50000  0.82750  0.61370  Biso   1.000  H
  C17      1.0000 0.00000  0.00000  0.29150  Biso   1.000  C
  C18      1.0000 0.00000  0.00000  0.70850  Biso   1.000  C
  C19      1.0000 0.00000  0.00000  0.20850  Biso   1.000  C
  C20      1.0000 0.00000  0.00000  0.79150  Biso   1.000  C
  H9       1.0000 0.86170  0.00000  0.32530  Biso   1.000  H
  H10      1.0000 0.13830  0.00000  0.32530  Biso   1.000  H
  H11      1.0000 0.13830  0.00000  0.67470  Biso   1.000  H
  H12      1.0000 0.00000  0.13830  0.17470  Biso   1.000  H
  H13      1.0000 0.00000  0.86170  0.82530  Biso   1.000  H
  H14      1.0000 0.00000  0.13830  0.82530  Biso   1.000  H
  H15      1.0000 0.00000  0.86170  0.17470  Biso   1.000  H
  H16      1.0000 0.86170  0.00000  0.67470  Biso   1.000  H
