data_image0
_cell_length_a       11.023
_cell_length_b       12.282
_cell_length_c       10.879
_cell_angle_alpha    105
_cell_angle_beta     96.31
_cell_angle_gamma    71.59

_symmetry_space_group_name_H-M    "P 1"
_symmetry_int_tables_number       1

loop_
  _symmetry_equiv_pos_as_xyz
  'x, y, z'

loop_
  _atom_site_label
  _atom_site_occupancy
  _atom_site_fract_x
  _atom_site_fract_y
  _atom_site_fract_z
  _atom_site_thermal_displace_type
  _atom_site_B_iso_or_equiv
  _atom_site_type_symbol
  Cu1      1.0000 0.88420  0.83690  0.43640  Biso   1.000  Cu
  Cu2      1.0000 0.11580  0.16310  0.56360  Biso   1.000  Cu
  Cu3      1.0000 0.53520  0.83200  0.79140  Biso   1.000  Cu
  Cu4      1.0000 0.46480  0.16800  0.20860  Biso   1.000  Cu
  O1       1.0000 0.83900  0.00800  0.51300  Biso   1.000  O
  O2       1.0000 0.16100  0.99200  0.48700  Biso   1.000  O
  C1       1.0000 0.93500  0.04700  0.52200  Biso   1.000  C
  C2       1.0000 0.06500  0.95300  0.47800  Biso   1.000  C
  N1       1.0000 0.05300  0.84900  0.43100  Biso   1.000  N
  N2       1.0000 0.94700  0.15100  0.56900  Biso   1.000  N
  C3       1.0000 0.17800  0.74700  0.39400  Biso   1.000  C
  C4       1.0000 0.82200  0.25300  0.60600  Biso   1.000  C
  C5       1.0000 0.14400  0.65700  0.28000  Biso   1.000  C
  C6       1.0000 0.85600  0.34300  0.72000  Biso   1.000  C
  C7       1.0000 0.16100  0.62500  0.34200  Biso   1.000  C
  C8       1.0000 0.83900  0.37500  0.65800  Biso   1.000  C
  C9       1.0000 0.05700  0.60200  0.33200  Biso   1.000  C
  C10      1.0000 0.94300  0.39800  0.66800  Biso   1.000  C
  C11      1.0000 0.04600  0.61800  0.25300  Biso   1.000  C
  C12      1.0000 0.95400  0.38200  0.74700  Biso   1.000  C
  N3       1.0000 0.91800  0.67500  0.31200  Biso   1.000  N
  N4       1.0000 0.08200  0.32500  0.68800  Biso   1.000  N
  O3       1.0000 0.51300  0.00300  0.83900  Biso   1.000  O
  O4       1.0000 0.48700  0.99700  0.16100  Biso   1.000  O
  C13      1.0000 0.50000  0.04100  0.96100  Biso   1.000  C
  C14      1.0000 0.50000  0.95900  0.03900  Biso   1.000  C
  N5       1.0000 0.51900  0.84900  0.97400  Biso   1.000  N
  N6       1.0000 0.48100  0.15100  0.02600  Biso   1.000  N
  C15      1.0000 0.51300  0.76300  0.03800  Biso   1.000  C
  C16      1.0000 0.48700  0.23700  0.96200  Biso   1.000  C
  C17      1.0000 0.47200  0.65800  0.94700  Biso   1.000  C
  C18      1.0000 0.52800  0.34200  0.05300  Biso   1.000  C
  C19      1.0000 0.55700  0.59800  0.83400  Biso   1.000  C
  C20      1.0000 0.44300  0.40200  0.16600  Biso   1.000  C
  N7       1.0000 0.52100  0.67000  0.73600  Biso   1.000  N
  N8       1.0000 0.47900  0.33000  0.26400  Biso   1.000  N
  N9       1.0000 0.75100  0.78500  0.77300  Biso   1.000  N
  N10      1.0000 0.24900  0.21500  0.22700  Biso   1.000  N
  C21      1.0000 0.85100  0.76100  0.85300  Biso   1.000  C
  C22      1.0000 0.14900  0.23900  0.14700  Biso   1.000  C
  C23      1.0000 0.97400  0.75200  0.82800  Biso   1.000  C
  C24      1.0000 0.02600  0.24800  0.17200  Biso   1.000  C
  C25      1.0000 0.99400  0.76600  0.71400  Biso   1.000  C
  C26      1.0000 0.00600  0.23400  0.28600  Biso   1.000  C
  N11      1.0000 0.89600  0.78800  0.62600  Biso   1.000  N
  N12      1.0000 0.10400  0.21200  0.37400  Biso   1.000  N
  C27      1.0000 0.77900  0.79800  0.66200  Biso   1.000  C
  C28      1.0000 0.22100  0.20200  0.33800  Biso   1.000  C
  C29      1.0000 0.67200  0.82800  0.56900  Biso   1.000  C
  C30      1.0000 0.32800  0.17200  0.43100  Biso   1.000  C
  N13      1.0000 0.69900  0.83900  0.45700  Biso   1.000  N
  N14      1.0000 0.30100  0.16100  0.54300  Biso   1.000  N
  C31      1.0000 0.60200  0.86100  0.37400  Biso   1.000  C
  C32      1.0000 0.39800  0.13900  0.62600  Biso   1.000  C
  C33      1.0000 0.48000  0.87000  0.40500  Biso   1.000  C
  C34      1.0000 0.52000  0.13000  0.59500  Biso   1.000  C
  C35      1.0000 0.45800  0.86000  0.52000  Biso   1.000  C
  C36      1.0000 0.54200  0.14000  0.48000  Biso   1.000  C
  N15      1.0000 0.55100  0.83800  0.60700  Biso   1.000  N
  N16      1.0000 0.44900  0.16200  0.39300  Biso   1.000  N
  Cl1      1.0000 0.18520  0.99930  0.82440  Biso   1.000  Cl
  Cl2      1.0000 0.81480  0.00070  0.17560  Biso   1.000  Cl
  O5       1.0000 0.27000  0.89600  0.75000  Biso   1.000  O
  O6       1.0000 0.73000  0.10400  0.25000  Biso   1.000  O
  O7       1.0000 0.05400  0.00400  0.79400  Biso   1.000  O
  O8       1.0000 0.94600  0.99600  0.20600  Biso   1.000  O
  O9       1.0000 0.20900  0.99700  0.95700  Biso   1.000  O
  O10      1.0000 0.79100  0.00300  0.04300  Biso   1.000  O
  O11      1.0000 0.20700  0.10200  0.80100  Biso   1.000  O
  O12      1.0000 0.79300  0.89800  0.19900  Biso   1.000  O
  Cl3      1.0000 0.68770  0.52810  0.37890  Biso   1.000  Cl
  Cl4      1.0000 0.31230  0.47190  0.62110  Biso   1.000  Cl
  O13      1.0000 0.68300  0.57200  0.27100  Biso   1.000  O
  O14      1.0000 0.31700  0.42800  0.72900  Biso   1.000  O
  O15      1.0000 0.77400  0.56400  0.47300  Biso   1.000  O
  O16      1.0000 0.22600  0.43600  0.52700  Biso   1.000  O
  O17      1.0000 0.71900  0.40600  0.34100  Biso   1.000  O
  O18      1.0000 0.28100  0.59400  0.65900  Biso   1.000  O
  O19      1.0000 0.56300  0.57400  0.43200  Biso   1.000  O
  O20      1.0000 0.43700  0.42600  0.56800  Biso   1.000  O
  O21      1.0000 0.82000  0.16700  0.90700  Biso   1.000  O
  O22      1.0000 0.18000  0.83300  0.09300  Biso   1.000  O
  O23      1.0000 0.79600  0.43600  0.01700  Biso   1.000  O
  O24      1.0000 0.20400  0.56400  0.98300  Biso   1.000  O
  O25      1.0000 0.05500  0.41400  0.94600  Biso   1.000  O
  O26      1.0000 0.94500  0.58600  0.05400  Biso   1.000  O
  H1       1.0000 0.59583  0.73198  0.07531  Biso   1.000  H
  H2       1.0000 0.40417  0.26802  0.92469  Biso   1.000  H
  H3       1.0000 0.45197  0.80107  0.10459  Biso   1.000  H
  H4       1.0000 0.54803  0.19893  0.89541  Biso   1.000  H
  H5       1.0000 0.47513  0.60127  0.99395  Biso   1.000  H
  H6       1.0000 0.52487  0.39873  0.00605  Biso   1.000  H
  H7       1.0000 0.38569  0.68865  0.91620  Biso   1.000  H
  H8       1.0000 0.61431  0.31135  0.08380  Biso   1.000  H
  H9       1.0000 0.64453  0.58997  0.86145  Biso   1.000  H
  H10      1.0000 0.35547  0.41003  0.13855  Biso   1.000  H
  H11      1.0000 0.54706  0.52124  0.79727  Biso   1.000  H
  H12      1.0000 0.45294  0.47876  0.20273  Biso   1.000  H
  H13      1.0000 0.57227  0.63122  0.66945  Biso   1.000  H
  H14      1.0000 0.42773  0.36878  0.33055  Biso   1.000  H
  H15      1.0000 0.43930  0.67534  0.71065  Biso   1.000  H
  H16      1.0000 0.56070  0.32466  0.28935  Biso   1.000  H
  H17      1.0000 0.83596  0.75043  0.93416  Biso   1.000  H
  H18      1.0000 0.16404  0.24957  0.06584  Biso   1.000  H
  H19      1.0000 0.04311  0.73590  0.88975  Biso   1.000  H
  H20      1.0000 0.95689  0.26410  0.11025  Biso   1.000  H
  H21      1.0000 0.07859  0.76028  0.69328  Biso   1.000  H
  H22      1.0000 0.92141  0.23972  0.30672  Biso   1.000  H
  H23      1.0000 0.61665  0.87125  0.29303  Biso   1.000  H
  H24      1.0000 0.38335  0.12875  0.70697  Biso   1.000  H
  H25      1.0000 0.41043  0.88330  0.34336  Biso   1.000  H
  H26      1.0000 0.58957  0.11670  0.65664  Biso   1.000  H
  H27      1.0000 0.37251  0.86845  0.54026  Biso   1.000  H
  H28      1.0000 0.62749  0.13155  0.45974  Biso   1.000  H
