data_image0
_cell_length_a       22.995
_cell_length_b       12.265
_cell_length_c       17.901
_cell_angle_alpha    90
_cell_angle_beta     110.871
_cell_angle_gamma    90

_symmetry_space_group_name_H-M    "P 1"
_symmetry_int_tables_number       1

loop_
  _symmetry_equiv_pos_as_xyz
  'x, y, z'

loop_
  _atom_site_label
  _atom_site_occupancy
  _atom_site_fract_x
  _atom_site_fract_y
  _atom_site_fract_z
  _atom_site_thermal_displace_type
  _atom_site_B_iso_or_equiv
  _atom_site_type_symbol
  Cu1      1.0000 0.32424  0.20681  0.21013  Biso   1.000  Cu
  Cu2      1.0000 0.82424  0.70681  0.21013  Biso   1.000  Cu
  Cu3      1.0000 0.67576  0.20681  0.28987  Biso   1.000  Cu
  Cu4      1.0000 0.17576  0.70681  0.28987  Biso   1.000  Cu
  Cu5      1.0000 0.67576  0.79319  0.78987  Biso   1.000  Cu
  Cu6      1.0000 0.17576  0.29319  0.78987  Biso   1.000  Cu
  Cu7      1.0000 0.32424  0.79319  0.71013  Biso   1.000  Cu
  Cu8      1.0000 0.82424  0.29319  0.71013  Biso   1.000  Cu
  S1       1.0000 0.57534  0.69875  0.46700  Biso   1.000  S
  S2       1.0000 0.07534  0.19875  0.46700  Biso   1.000  S
  S3       1.0000 0.42466  0.69875  0.03300  Biso   1.000  S
  S4       1.0000 0.92466  0.19875  0.03300  Biso   1.000  S
  S5       1.0000 0.42466  0.30125  0.53300  Biso   1.000  S
  S6       1.0000 0.92466  0.80125  0.53300  Biso   1.000  S
  S7       1.0000 0.57534  0.30125  0.96700  Biso   1.000  S
  S8       1.0000 0.07534  0.80125  0.96700  Biso   1.000  S
  N1       1.0000 0.26071  0.30741  0.13159  Biso   1.000  N
  N2       1.0000 0.76071  0.80741  0.13159  Biso   1.000  N
  N3       1.0000 0.73929  0.30741  0.36841  Biso   1.000  N
  N4       1.0000 0.23929  0.80741  0.36841  Biso   1.000  N
  N5       1.0000 0.73929  0.69259  0.86841  Biso   1.000  N
  N6       1.0000 0.23929  0.19259  0.86841  Biso   1.000  N
  N7       1.0000 0.26071  0.69259  0.63159  Biso   1.000  N
  N8       1.0000 0.76071  0.19259  0.63159  Biso   1.000  N
  N9       1.0000 0.37361  0.24879  0.14049  Biso   1.000  N
  N10      1.0000 0.87361  0.74879  0.14049  Biso   1.000  N
  N11      1.0000 0.62639  0.24879  0.35951  Biso   1.000  N
  N12      1.0000 0.12639  0.74879  0.35951  Biso   1.000  N
  N13      1.0000 0.62639  0.75121  0.85951  Biso   1.000  N
  N14      1.0000 0.12639  0.25121  0.85951  Biso   1.000  N
  N15      1.0000 0.37361  0.75121  0.64049  Biso   1.000  N
  N16      1.0000 0.87361  0.25121  0.64049  Biso   1.000  N
  O1       1.0000 0.38844  0.10983  0.27714  Biso   1.000  O
  O2       1.0000 0.88844  0.60983  0.27714  Biso   1.000  O
  O3       1.0000 0.61156  0.10983  0.22286  Biso   1.000  O
  O4       1.0000 0.11156  0.60983  0.22286  Biso   1.000  O
  O5       1.0000 0.61156  0.89017  0.72286  Biso   1.000  O
  O6       1.0000 0.11156  0.39017  0.72286  Biso   1.000  O
  O7       1.0000 0.38844  0.89017  0.77714  Biso   1.000  O
  O8       1.0000 0.88844  0.39017  0.77714  Biso   1.000  O
  O9       1.0000 0.36083  0.98549  0.17974  Biso   1.000  O
  O10      1.0000 0.86083  0.48549  0.17974  Biso   1.000  O
  O11      1.0000 0.63917  0.98549  0.32026  Biso   1.000  O
  O12      1.0000 0.13917  0.48549  0.32026  Biso   1.000  O
  O13      1.0000 0.63917  0.01451  0.82026  Biso   1.000  O
  O14      1.0000 0.13917  0.51451  0.82026  Biso   1.000  O
  O15      1.0000 0.36083  0.01451  0.67974  Biso   1.000  O
  O16      1.0000 0.86083  0.51451  0.67974  Biso   1.000  O
  O17      1.0000 0.61235  0.75600  0.53838  Biso   1.000  O
  O18      1.0000 0.11235  0.25600  0.53838  Biso   1.000  O
  O19      1.0000 0.38765  0.75600  0.96162  Biso   1.000  O
  O20      1.0000 0.88765  0.25600  0.96162  Biso   1.000  O
  O21      1.0000 0.38765  0.24400  0.46162  Biso   1.000  O
  O22      1.0000 0.88765  0.74400  0.46162  Biso   1.000  O
  O23      1.0000 0.61235  0.24400  0.03838  Biso   1.000  O
  O24      1.0000 0.11235  0.74400  0.03838  Biso   1.000  O
  O25      1.0000 0.54321  0.60077  0.47358  Biso   1.000  O
  O26      1.0000 0.04321  0.10077  0.47358  Biso   1.000  O
  O27      1.0000 0.45679  0.60077  0.02642  Biso   1.000  O
  O28      1.0000 0.95679  0.10077  0.02642  Biso   1.000  O
  O29      1.0000 0.45679  0.39923  0.52642  Biso   1.000  O
  O30      1.0000 0.95679  0.89923  0.52642  Biso   1.000  O
  O31      1.0000 0.54321  0.39923  0.97358  Biso   1.000  O
  O32      1.0000 0.04321  0.89923  0.97358  Biso   1.000  O
  O33      1.0000 0.76751  0.67851  0.26488  Biso   1.000  O
  O34      1.0000 0.26751  0.17851  0.26488  Biso   1.000  O
  O35      1.0000 0.23249  0.67851  0.23512  Biso   1.000  O
  O36      1.0000 0.73249  0.17851  0.23512  Biso   1.000  O
  O37      1.0000 0.23249  0.32149  0.73512  Biso   1.000  O
  O38      1.0000 0.73249  0.82149  0.73512  Biso   1.000  O
  O39      1.0000 0.76751  0.32149  0.76488  Biso   1.000  O
  O40      1.0000 0.26751  0.82149  0.76488  Biso   1.000  O
  O41      1.0000 0.72466  0.51494  0.22797  Biso   1.000  O
  O42      1.0000 0.22466  0.01494  0.22797  Biso   1.000  O
  O43      1.0000 0.27534  0.51494  0.27203  Biso   1.000  O
  O44      1.0000 0.77534  0.01494  0.27203  Biso   1.000  O
  O45      1.0000 0.27534  0.48506  0.77203  Biso   1.000  O
  O46      1.0000 0.77534  0.98506  0.77203  Biso   1.000  O
  O47      1.0000 0.72466  0.48506  0.72797  Biso   1.000  O
  O48      1.0000 0.22466  0.98506  0.72797  Biso   1.000  O
  O49      1.0000 0.36197  0.34587  0.30457  Biso   1.000  O
  O50      1.0000 0.86197  0.84587  0.30457  Biso   1.000  O
  O51      1.0000 0.63803  0.34587  0.19543  Biso   1.000  O
  O52      1.0000 0.13803  0.84587  0.19543  Biso   1.000  O
  O53      1.0000 0.63803  0.65413  0.69543  Biso   1.000  O
  O54      1.0000 0.13803  0.15413  0.69543  Biso   1.000  O
  O55      1.0000 0.36197  0.65413  0.80457  Biso   1.000  O
  O56      1.0000 0.86197  0.15413  0.80457  Biso   1.000  O
  C1       1.0000 0.20605  0.34100  0.13121  Biso   1.000  C
  C2       1.0000 0.70605  0.84100  0.13121  Biso   1.000  C
  C3       1.0000 0.79395  0.34100  0.36879  Biso   1.000  C
  C4       1.0000 0.29395  0.84100  0.36879  Biso   1.000  C
  C5       1.0000 0.79395  0.65900  0.86879  Biso   1.000  C
  C6       1.0000 0.29395  0.15900  0.86879  Biso   1.000  C
  C7       1.0000 0.20605  0.65900  0.63121  Biso   1.000  C
  C8       1.0000 0.70605  0.15900  0.63121  Biso   1.000  C
  H1       1.0000 0.19240  0.31680  0.17140  Biso   1.000  H
  H2       1.0000 0.69240  0.81680  0.17140  Biso   1.000  H
  H3       1.0000 0.80760  0.31680  0.32860  Biso   1.000  H
  H4       1.0000 0.30760  0.81680  0.32860  Biso   1.000  H
  H5       1.0000 0.80760  0.68320  0.82860  Biso   1.000  H
  H6       1.0000 0.30760  0.18320  0.82860  Biso   1.000  H
  H7       1.0000 0.19240  0.68320  0.67140  Biso   1.000  H
  H8       1.0000 0.69240  0.18320  0.67140  Biso   1.000  H
  C9       1.0000 0.16802  0.41120  0.07290  Biso   1.000  C
  C10      1.0000 0.66802  0.91120  0.07290  Biso   1.000  C
  C11      1.0000 0.83198  0.41120  0.42710  Biso   1.000  C
  C12      1.0000 0.33198  0.91120  0.42710  Biso   1.000  C
  C13      1.0000 0.83198  0.58880  0.92710  Biso   1.000  C
  C14      1.0000 0.33198  0.08880  0.92710  Biso   1.000  C
  C15      1.0000 0.16802  0.58880  0.57290  Biso   1.000  C
  C16      1.0000 0.66802  0.08880  0.57290  Biso   1.000  C
  H9       1.0000 0.12960  0.43230  0.07450  Biso   1.000  H
  H10      1.0000 0.62960  0.93230  0.07450  Biso   1.000  H
  H11      1.0000 0.87040  0.43230  0.42550  Biso   1.000  H
  H12      1.0000 0.37040  0.93230  0.42550  Biso   1.000  H
  H13      1.0000 0.87040  0.56770  0.92550  Biso   1.000  H
  H14      1.0000 0.37040  0.06770  0.92550  Biso   1.000  H
  H15      1.0000 0.12960  0.56770  0.57450  Biso   1.000  H
  H16      1.0000 0.62960  0.06770  0.57450  Biso   1.000  H
  C17      1.0000 0.18676  0.44920  0.01338  Biso   1.000  C
  C18      1.0000 0.68676  0.94920  0.01338  Biso   1.000  C
  C19      1.0000 0.81324  0.44920  0.48662  Biso   1.000  C
  C20      1.0000 0.31324  0.94920  0.48662  Biso   1.000  C
  C21      1.0000 0.81324  0.55080  0.98662  Biso   1.000  C
  C22      1.0000 0.31324  0.05080  0.98662  Biso   1.000  C
  C23      1.0000 0.18676  0.55080  0.51338  Biso   1.000  C
  C24      1.0000 0.68676  0.05080  0.51338  Biso   1.000  C
  H17      1.0000 0.16110  0.49460  0.97370  Biso   1.000  H
  H18      1.0000 0.66110  0.99460  0.97370  Biso   1.000  H
  H19      1.0000 0.83890  0.49460  0.52630  Biso   1.000  H
  H20      1.0000 0.33890  0.99460  0.52630  Biso   1.000  H
  H21      1.0000 0.83890  0.50540  0.02630  Biso   1.000  H
  H22      1.0000 0.33890  0.00540  0.02630  Biso   1.000  H
  H23      1.0000 0.16110  0.50540  0.47370  Biso   1.000  H
  H24      1.0000 0.66110  0.00540  0.47370  Biso   1.000  H
  C25      1.0000 0.24570  0.41840  0.01321  Biso   1.000  C
  C26      1.0000 0.74570  0.91840  0.01321  Biso   1.000  C
  C27      1.0000 0.75430  0.41840  0.48679  Biso   1.000  C
  C28      1.0000 0.25430  0.91840  0.48679  Biso   1.000  C
  C29      1.0000 0.75430  0.58160  0.98679  Biso   1.000  C
  C30      1.0000 0.25430  0.08160  0.98679  Biso   1.000  C
  C31      1.0000 0.24570  0.58160  0.51321  Biso   1.000  C
  C32      1.0000 0.74570  0.08160  0.51321  Biso   1.000  C
  C33      1.0000 0.27142  0.45570  0.95527  Biso   1.000  C
  C34      1.0000 0.77142  0.95570  0.95527  Biso   1.000  C
  C35      1.0000 0.72858  0.45570  0.54473  Biso   1.000  C
  C36      1.0000 0.22858  0.95570  0.54473  Biso   1.000  C
  C37      1.0000 0.72858  0.54430  0.04473  Biso   1.000  C
  C38      1.0000 0.22858  0.04430  0.04473  Biso   1.000  C
  C39      1.0000 0.27142  0.54430  0.45527  Biso   1.000  C
  C40      1.0000 0.77142  0.04430  0.45527  Biso   1.000  C
  H25      1.0000 0.24770  0.49980  0.91320  Biso   1.000  H
  H26      1.0000 0.74770  0.99980  0.91320  Biso   1.000  H
  H27      1.0000 0.75230  0.49980  0.58680  Biso   1.000  H
  H28      1.0000 0.25230  0.99980  0.58680  Biso   1.000  H
  H29      1.0000 0.75230  0.50020  0.08680  Biso   1.000  H
  H30      1.0000 0.25230  0.00020  0.08680  Biso   1.000  H
  H31      1.0000 0.24770  0.50020  0.41320  Biso   1.000  H
  H32      1.0000 0.74770  0.00020  0.41320  Biso   1.000  H
  C41      1.0000 0.32949  0.42740  0.96143  Biso   1.000  C
  C42      1.0000 0.82949  0.92740  0.96143  Biso   1.000  C
  C43      1.0000 0.67051  0.42740  0.53857  Biso   1.000  C
  C44      1.0000 0.17051  0.92740  0.53857  Biso   1.000  C
  C45      1.0000 0.67051  0.57260  0.03857  Biso   1.000  C
  C46      1.0000 0.17051  0.07260  0.03857  Biso   1.000  C
  C47      1.0000 0.32949  0.57260  0.46143  Biso   1.000  C
  C48      1.0000 0.82949  0.07260  0.46143  Biso   1.000  C
  H33      1.0000 0.34550  0.45370  0.92400  Biso   1.000  H
  H34      1.0000 0.84550  0.95370  0.92400  Biso   1.000  H
  H35      1.0000 0.65450  0.45370  0.57600  Biso   1.000  H
  H36      1.0000 0.15450  0.95370  0.57600  Biso   1.000  H
  H37      1.0000 0.65450  0.54630  0.07600  Biso   1.000  H
  H38      1.0000 0.15450  0.04630  0.07600  Biso   1.000  H
  H39      1.0000 0.34550  0.54630  0.42400  Biso   1.000  H
  H40      1.0000 0.84550  0.04630  0.42400  Biso   1.000  H
  C49      1.0000 0.36720  0.35770  0.02444  Biso   1.000  C
  C50      1.0000 0.86720  0.85770  0.02444  Biso   1.000  C
  C51      1.0000 0.63280  0.35770  0.47556  Biso   1.000  C
  C52      1.0000 0.13280  0.85770  0.47556  Biso   1.000  C
  C53      1.0000 0.63280  0.64230  0.97556  Biso   1.000  C
  C54      1.0000 0.13280  0.14230  0.97556  Biso   1.000  C
  C55      1.0000 0.36720  0.64230  0.52444  Biso   1.000  C
  C56      1.0000 0.86720  0.14230  0.52444  Biso   1.000  C
  C57      1.0000 0.42960  0.33000  0.03750  Biso   1.000  C
  C58      1.0000 0.92960  0.83000  0.03750  Biso   1.000  C
  C59      1.0000 0.57040  0.33000  0.46250  Biso   1.000  C
  C60      1.0000 0.07040  0.83000  0.46250  Biso   1.000  C
  C61      1.0000 0.57040  0.67000  0.96250  Biso   1.000  C
  C62      1.0000 0.07040  0.17000  0.96250  Biso   1.000  C
  C63      1.0000 0.42960  0.67000  0.53750  Biso   1.000  C
  C64      1.0000 0.92960  0.17000  0.53750  Biso   1.000  C
  H41      1.0000 0.44900  0.35720  0.00390  Biso   1.000  H
  H42      1.0000 0.94900  0.85720  0.00390  Biso   1.000  H
  H43      1.0000 0.55100  0.35720  0.49610  Biso   1.000  H
  H44      1.0000 0.05100  0.85720  0.49610  Biso   1.000  H
  H45      1.0000 0.55100  0.64280  0.99610  Biso   1.000  H
  H46      1.0000 0.05100  0.14280  0.99610  Biso   1.000  H
  H47      1.0000 0.44900  0.64280  0.50390  Biso   1.000  H
  H48      1.0000 0.94900  0.14280  0.50390  Biso   1.000  H
  C65      1.0000 0.46139  0.26330  0.09970  Biso   1.000  C
  C66      1.0000 0.96139  0.76330  0.09970  Biso   1.000  C
  C67      1.0000 0.53861  0.26330  0.40030  Biso   1.000  C
  C68      1.0000 0.03861  0.76330  0.40030  Biso   1.000  C
  C69      1.0000 0.53861  0.73670  0.90030  Biso   1.000  C
  C70      1.0000 0.03861  0.23670  0.90030  Biso   1.000  C
  C71      1.0000 0.46139  0.73670  0.59970  Biso   1.000  C
  C72      1.0000 0.96139  0.23670  0.59970  Biso   1.000  C
  H49      1.0000 0.50260  0.24510  0.10890  Biso   1.000  H
  H50      1.0000 0.00260  0.74510  0.10890  Biso   1.000  H
  H51      1.0000 0.49740  0.24510  0.39110  Biso   1.000  H
  H52      1.0000 0.99740  0.74510  0.39110  Biso   1.000  H
  H53      1.0000 0.49740  0.75490  0.89110  Biso   1.000  H
  H54      1.0000 0.99740  0.25490  0.89110  Biso   1.000  H
  H55      1.0000 0.50260  0.75490  0.60890  Biso   1.000  H
  H56      1.0000 0.00260  0.25490  0.60890  Biso   1.000  H
  C73      1.0000 0.43153  0.22280  0.14930  Biso   1.000  C
  C74      1.0000 0.93153  0.72280  0.14930  Biso   1.000  C
  C75      1.0000 0.56847  0.22280  0.35070  Biso   1.000  C
  C76      1.0000 0.06847  0.72280  0.35070  Biso   1.000  C
  C77      1.0000 0.56847  0.77720  0.85070  Biso   1.000  C
  C78      1.0000 0.06847  0.27720  0.85070  Biso   1.000  C
  C79      1.0000 0.43153  0.77720  0.64930  Biso   1.000  C
  C80      1.0000 0.93153  0.27720  0.64930  Biso   1.000  C
  H57      1.0000 0.45320  0.17540  0.19030  Biso   1.000  H
  H58      1.0000 0.95320  0.67540  0.19030  Biso   1.000  H
  H59      1.0000 0.54680  0.17540  0.30970  Biso   1.000  H
  H60      1.0000 0.04680  0.67540  0.30970  Biso   1.000  H
  H61      1.0000 0.54680  0.82460  0.80970  Biso   1.000  H
  H62      1.0000 0.04680  0.32460  0.80970  Biso   1.000  H
  H63      1.0000 0.45320  0.82460  0.69030  Biso   1.000  H
  H64      1.0000 0.95320  0.32460  0.69030  Biso   1.000  H
  C81      1.0000 0.34200  0.31680  0.07924  Biso   1.000  C
  C82      1.0000 0.84200  0.81680  0.07924  Biso   1.000  C
  C83      1.0000 0.65800  0.31680  0.42076  Biso   1.000  C
  C84      1.0000 0.15800  0.81680  0.42076  Biso   1.000  C
  C85      1.0000 0.65800  0.68320  0.92076  Biso   1.000  C
  C86      1.0000 0.15800  0.18320  0.92076  Biso   1.000  C
  C87      1.0000 0.34200  0.68320  0.57924  Biso   1.000  C
  C88      1.0000 0.84200  0.18320  0.57924  Biso   1.000  C
  C89      1.0000 0.28090  0.34760  0.07401  Biso   1.000  C
  C90      1.0000 0.78090  0.84760  0.07401  Biso   1.000  C
  C91      1.0000 0.71910  0.34760  0.42599  Biso   1.000  C
  C92      1.0000 0.21910  0.84760  0.42599  Biso   1.000  C
  C93      1.0000 0.71910  0.65240  0.92599  Biso   1.000  C
  C94      1.0000 0.21910  0.15240  0.92599  Biso   1.000  C
  C95      1.0000 0.28090  0.65240  0.57401  Biso   1.000  C
  C96      1.0000 0.78090  0.15240  0.57401  Biso   1.000  C
  C97      1.0000 0.39071  0.01470  0.24832  Biso   1.000  C
  C98      1.0000 0.89071  0.51470  0.24832  Biso   1.000  C
  C99      1.0000 0.60929  0.01470  0.25168  Biso   1.000  C
  C100     1.0000 0.10929  0.51470  0.25168  Biso   1.000  C
  C101     1.0000 0.60929  0.98530  0.75168  Biso   1.000  C
  C102     1.0000 0.10929  0.48530  0.75168  Biso   1.000  C
  C103     1.0000 0.39071  0.98530  0.74832  Biso   1.000  C
  C104     1.0000 0.89071  0.48530  0.74832  Biso   1.000  C
  C105     1.0000 0.43587  0.93660  0.30507  Biso   1.000  C
  C106     1.0000 0.93587  0.43660  0.30507  Biso   1.000  C
  C107     1.0000 0.56413  0.93660  0.19493  Biso   1.000  C
  C108     1.0000 0.06413  0.43660  0.19493  Biso   1.000  C
  C109     1.0000 0.56413  0.06340  0.69493  Biso   1.000  C
  C110     1.0000 0.06413  0.56340  0.69493  Biso   1.000  C
  C111     1.0000 0.43587  0.06340  0.80507  Biso   1.000  C
  C112     1.0000 0.93587  0.56340  0.80507  Biso   1.000  C
  C113     1.0000 0.48060  0.97180  0.37541  Biso   1.000  C
  C114     1.0000 0.98060  0.47180  0.37541  Biso   1.000  C
  C115     1.0000 0.51940  0.97180  0.12459  Biso   1.000  C
  C116     1.0000 0.01940  0.47180  0.12459  Biso   1.000  C
  C117     1.0000 0.51940  0.02820  0.62459  Biso   1.000  C
  C118     1.0000 0.01940  0.52820  0.62459  Biso   1.000  C
  C119     1.0000 0.48060  0.02820  0.87541  Biso   1.000  C
  C120     1.0000 0.98060  0.52820  0.87541  Biso   1.000  C
  H65      1.0000 0.48180  0.04490  0.38950  Biso   1.000  H
  H66      1.0000 0.98180  0.54490  0.38950  Biso   1.000  H
  H67      1.0000 0.51820  0.04490  0.11050  Biso   1.000  H
  H68      1.0000 0.01820  0.54490  0.11050  Biso   1.000  H
  H69      1.0000 0.51820  0.95510  0.61050  Biso   1.000  H
  H70      1.0000 0.01820  0.45510  0.61050  Biso   1.000  H
  H71      1.0000 0.48180  0.95510  0.88950  Biso   1.000  H
  H72      1.0000 0.98180  0.45510  0.88950  Biso   1.000  H
  C121     1.0000 0.52354  0.90050  0.42518  Biso   1.000  C
  C122     1.0000 0.02354  0.40050  0.42518  Biso   1.000  C
  C123     1.0000 0.47646  0.90050  0.07482  Biso   1.000  C
  C124     1.0000 0.97646  0.40050  0.07482  Biso   1.000  C
  C125     1.0000 0.47646  0.09950  0.57482  Biso   1.000  C
  C126     1.0000 0.97646  0.59950  0.57482  Biso   1.000  C
  C127     1.0000 0.52354  0.09950  0.92518  Biso   1.000  C
  C128     1.0000 0.02354  0.59950  0.92518  Biso   1.000  C
  H73      1.0000 0.55440  0.92570  0.47130  Biso   1.000  H
  H74      1.0000 0.05440  0.42570  0.47130  Biso   1.000  H
  H75      1.0000 0.44560  0.92570  0.02870  Biso   1.000  H
  H76      1.0000 0.94560  0.42570  0.02870  Biso   1.000  H
  H77      1.0000 0.44560  0.07430  0.52870  Biso   1.000  H
  H78      1.0000 0.94560  0.57430  0.52870  Biso   1.000  H
  H79      1.0000 0.55440  0.07430  0.97130  Biso   1.000  H
  H80      1.0000 0.05440  0.57430  0.97130  Biso   1.000  H
  C129     1.0000 0.51996  0.79120  0.40549  Biso   1.000  C
  C130     1.0000 0.01996  0.29120  0.40549  Biso   1.000  C
  C131     1.0000 0.48004  0.79120  0.09451  Biso   1.000  C
  C132     1.0000 0.98004  0.29120  0.09451  Biso   1.000  C
  C133     1.0000 0.48004  0.20880  0.59451  Biso   1.000  C
  C134     1.0000 0.98004  0.70880  0.59451  Biso   1.000  C
  C135     1.0000 0.51996  0.20880  0.90549  Biso   1.000  C
  C136     1.0000 0.01996  0.70880  0.90549  Biso   1.000  C
  C137     1.0000 0.47394  0.75320  0.33724  Biso   1.000  C
  C138     1.0000 0.97394  0.25320  0.33724  Biso   1.000  C
  C139     1.0000 0.52606  0.75320  0.16276  Biso   1.000  C
  C140     1.0000 0.02606  0.25320  0.16276  Biso   1.000  C
  C141     1.0000 0.52606  0.24680  0.66276  Biso   1.000  C
  C142     1.0000 0.02606  0.74680  0.66276  Biso   1.000  C
  C143     1.0000 0.47394  0.24680  0.83724  Biso   1.000  C
  C144     1.0000 0.97394  0.74680  0.83724  Biso   1.000  C
  H81      1.0000 0.47080  0.67910  0.32530  Biso   1.000  H
  H82      1.0000 0.97080  0.17910  0.32530  Biso   1.000  H
  H83      1.0000 0.52920  0.67910  0.17470  Biso   1.000  H
  H84      1.0000 0.02920  0.17910  0.17470  Biso   1.000  H
  H85      1.0000 0.52920  0.32090  0.67470  Biso   1.000  H
  H86      1.0000 0.02920  0.82090  0.67470  Biso   1.000  H
  H87      1.0000 0.47080  0.32090  0.82530  Biso   1.000  H
  H88      1.0000 0.97080  0.82090  0.82530  Biso   1.000  H
  C145     1.0000 0.43259  0.82650  0.28684  Biso   1.000  C
  C146     1.0000 0.93259  0.32650  0.28684  Biso   1.000  C
  C147     1.0000 0.56741  0.82650  0.21316  Biso   1.000  C
  C148     1.0000 0.06741  0.32650  0.21316  Biso   1.000  C
  C149     1.0000 0.56741  0.17350  0.71316  Biso   1.000  C
  C150     1.0000 0.06741  0.67350  0.71316  Biso   1.000  C
  C151     1.0000 0.43259  0.17350  0.78684  Biso   1.000  C
  C152     1.0000 0.93259  0.67350  0.78684  Biso   1.000  C
  H89      1.0000 0.40220  0.80150  0.24010  Biso   1.000  H
  H90      1.0000 0.90220  0.30150  0.24010  Biso   1.000  H
  H91      1.0000 0.59780  0.80150  0.25990  Biso   1.000  H
  H92      1.0000 0.09780  0.30150  0.25990  Biso   1.000  H
  H93      1.0000 0.59780  0.19850  0.75990  Biso   1.000  H
  H94      1.0000 0.09780  0.69850  0.75990  Biso   1.000  H
  H95      1.0000 0.40220  0.19850  0.74010  Biso   1.000  H
  H96      1.0000 0.90220  0.69850  0.74010  Biso   1.000  H
  C153     1.0000 0.73166  0.60060  0.26584  Biso   1.000  C
  C154     1.0000 0.23166  0.10060  0.26584  Biso   1.000  C
  C155     1.0000 0.26834  0.60060  0.23416  Biso   1.000  C
  C156     1.0000 0.76834  0.10060  0.23416  Biso   1.000  C
  C157     1.0000 0.26834  0.39940  0.73416  Biso   1.000  C
  C158     1.0000 0.76834  0.89940  0.73416  Biso   1.000  C
  C159     1.0000 0.73166  0.39940  0.76584  Biso   1.000  C
  C160     1.0000 0.23166  0.89940  0.76584  Biso   1.000  C
  C161     1.0000 0.69394  0.62260  0.31889  Biso   1.000  C
  C162     1.0000 0.19394  0.12260  0.31889  Biso   1.000  C
  C163     1.0000 0.30606  0.62260  0.18111  Biso   1.000  C
  C164     1.0000 0.80606  0.12260  0.18111  Biso   1.000  C
  C165     1.0000 0.30606  0.37740  0.68111  Biso   1.000  C
  C166     1.0000 0.80606  0.87740  0.68111  Biso   1.000  C
  C167     1.0000 0.69394  0.37740  0.81889  Biso   1.000  C
  C168     1.0000 0.19394  0.87740  0.81889  Biso   1.000  C
  C169     1.0000 0.71056  0.70740  0.37452  Biso   1.000  C
  C170     1.0000 0.21056  0.20740  0.37452  Biso   1.000  C
  C171     1.0000 0.28944  0.70740  0.12548  Biso   1.000  C
  C172     1.0000 0.78944  0.20740  0.12548  Biso   1.000  C
  C173     1.0000 0.28944  0.29260  0.62548  Biso   1.000  C
  C174     1.0000 0.78944  0.79260  0.62548  Biso   1.000  C
  C175     1.0000 0.71056  0.29260  0.87452  Biso   1.000  C
  C176     1.0000 0.21056  0.79260  0.87452  Biso   1.000  C
  H97      1.0000 0.74570  0.74910  0.38030  Biso   1.000  H
  H98      1.0000 0.24570  0.24910  0.38030  Biso   1.000  H
  H99      1.0000 0.25430  0.74910  0.11970  Biso   1.000  H
  H100     1.0000 0.75430  0.24910  0.11970  Biso   1.000  H
  H101     1.0000 0.25430  0.25090  0.61970  Biso   1.000  H
  H102     1.0000 0.75430  0.75090  0.61970  Biso   1.000  H
  H103     1.0000 0.74570  0.25090  0.88030  Biso   1.000  H
  H104     1.0000 0.24570  0.75090  0.88030  Biso   1.000  H
  C177     1.0000 0.67540  0.72970  0.42088  Biso   1.000  C
  C178     1.0000 0.17540  0.22970  0.42088  Biso   1.000  C
  C179     1.0000 0.32460  0.72970  0.07912  Biso   1.000  C
  C180     1.0000 0.82460  0.22970  0.07912  Biso   1.000  C
  C181     1.0000 0.32460  0.27030  0.57912  Biso   1.000  C
  C182     1.0000 0.82460  0.77030  0.57912  Biso   1.000  C
  C183     1.0000 0.67540  0.27030  0.92088  Biso   1.000  C
  C184     1.0000 0.17540  0.77030  0.92088  Biso   1.000  C
  H105     1.0000 0.68690  0.78570  0.45840  Biso   1.000  H
  H106     1.0000 0.18690  0.28570  0.45840  Biso   1.000  H
  H107     1.0000 0.31310  0.78570  0.04160  Biso   1.000  H
  H108     1.0000 0.81310  0.28570  0.04160  Biso   1.000  H
  H109     1.0000 0.31310  0.21430  0.54160  Biso   1.000  H
  H110     1.0000 0.81310  0.71430  0.54160  Biso   1.000  H
  H111     1.0000 0.68690  0.21430  0.95840  Biso   1.000  H
  H112     1.0000 0.18690  0.71430  0.95840  Biso   1.000  H
  C185     1.0000 0.62270  0.66800  0.41105  Biso   1.000  C
  C186     1.0000 0.12270  0.16800  0.41105  Biso   1.000  C
  C187     1.0000 0.37730  0.66800  0.08895  Biso   1.000  C
  C188     1.0000 0.87730  0.16800  0.08895  Biso   1.000  C
  C189     1.0000 0.37730  0.33200  0.58895  Biso   1.000  C
  C190     1.0000 0.87730  0.83200  0.58895  Biso   1.000  C
  C191     1.0000 0.62270  0.33200  0.91105  Biso   1.000  C
  C192     1.0000 0.12270  0.83200  0.91105  Biso   1.000  C
  C193     1.0000 0.60529  0.58300  0.35579  Biso   1.000  C
  C194     1.0000 0.10529  0.08300  0.35579  Biso   1.000  C
  C195     1.0000 0.39471  0.58300  0.14421  Biso   1.000  C
  C196     1.0000 0.89471  0.08300  0.14421  Biso   1.000  C
  C197     1.0000 0.39471  0.41700  0.64421  Biso   1.000  C
  C198     1.0000 0.89471  0.91700  0.64421  Biso   1.000  C
  C199     1.0000 0.60529  0.41700  0.85579  Biso   1.000  C
  C200     1.0000 0.10529  0.91700  0.85579  Biso   1.000  C
  H113     1.0000 0.57000  0.54170  0.34970  Biso   1.000  H
  H114     1.0000 0.07000  0.04170  0.34970  Biso   1.000  H
  H115     1.0000 0.43000  0.54170  0.15030  Biso   1.000  H
  H116     1.0000 0.93000  0.04170  0.15030  Biso   1.000  H
  H117     1.0000 0.43000  0.45830  0.65030  Biso   1.000  H
  H118     1.0000 0.93000  0.95830  0.65030  Biso   1.000  H
  H119     1.0000 0.57000  0.45830  0.84970  Biso   1.000  H
  H120     1.0000 0.07000  0.95830  0.84970  Biso   1.000  H
  C201     1.0000 0.64122  0.56110  0.31037  Biso   1.000  C
  C202     1.0000 0.14122  0.06110  0.31037  Biso   1.000  C
  C203     1.0000 0.35878  0.56110  0.18963  Biso   1.000  C
  C204     1.0000 0.85878  0.06110  0.18963  Biso   1.000  C
  C205     1.0000 0.35878  0.43890  0.68963  Biso   1.000  C
  C206     1.0000 0.85878  0.93890  0.68963  Biso   1.000  C
  C207     1.0000 0.64122  0.43890  0.81037  Biso   1.000  C
  C208     1.0000 0.14122  0.93890  0.81037  Biso   1.000  C
  H121     1.0000 0.63010  0.50440  0.27350  Biso   1.000  H
  H122     1.0000 0.13010  0.00440  0.27350  Biso   1.000  H
  H123     1.0000 0.36990  0.50440  0.22650  Biso   1.000  H
  H124     1.0000 0.86990  0.00440  0.22650  Biso   1.000  H
  H125     1.0000 0.36990  0.49560  0.72650  Biso   1.000  H
  H126     1.0000 0.86990  0.99560  0.72650  Biso   1.000  H
  H127     1.0000 0.63010  0.49560  0.77350  Biso   1.000  H
  H128     1.0000 0.13010  0.99560  0.77350  Biso   1.000  H
  H129     1.0000 0.36550  0.31100  0.34440  Biso   1.000  H
  H130     1.0000 0.86550  0.81100  0.34440  Biso   1.000  H
  H131     1.0000 0.63450  0.31100  0.15560  Biso   1.000  H
  H132     1.0000 0.13450  0.81100  0.15560  Biso   1.000  H
  H133     1.0000 0.63450  0.68900  0.65560  Biso   1.000  H
  H134     1.0000 0.13450  0.18900  0.65560  Biso   1.000  H
  H135     1.0000 0.36550  0.68900  0.84440  Biso   1.000  H
  H136     1.0000 0.86550  0.18900  0.84440  Biso   1.000  H
  H137     1.0000 0.33560  0.39400  0.29700  Biso   1.000  H
  H138     1.0000 0.83560  0.89400  0.29700  Biso   1.000  H
  H139     1.0000 0.66440  0.39400  0.20300  Biso   1.000  H
  H140     1.0000 0.16440  0.89400  0.20300  Biso   1.000  H
  H141     1.0000 0.66440  0.60600  0.70300  Biso   1.000  H
  H142     1.0000 0.16440  0.10600  0.70300  Biso   1.000  H
  H143     1.0000 0.33560  0.60600  0.79700  Biso   1.000  H
  H144     1.0000 0.83560  0.10600  0.79700  Biso   1.000  H
  O57      1.0000 0.46490  0.47550  0.34880  Biso   1.000  O
  O58      1.0000 0.96490  0.97550  0.34880  Biso   1.000  O
  O59      1.0000 0.53510  0.47550  0.15120  Biso   1.000  O
  O60      1.0000 0.03510  0.97550  0.15120  Biso   1.000  O
  O61      1.0000 0.53510  0.52450  0.65120  Biso   1.000  O
  O62      1.0000 0.03510  0.02450  0.65120  Biso   1.000  O
  O63      1.0000 0.46490  0.52450  0.84880  Biso   1.000  O
  O64      1.0000 0.96490  0.02450  0.84880  Biso   1.000  O
