data_image0
_cell_length_a       20.0146
_cell_length_b       8.0392
_cell_length_c       13.6938
_cell_angle_alpha    90
_cell_angle_beta     90
_cell_angle_gamma    90

_symmetry_space_group_name_H-M    "P 1"
_symmetry_int_tables_number       1

loop_
  _symmetry_equiv_pos_as_xyz
  'x, y, z'

loop_
  _atom_site_label
  _atom_site_occupancy
  _atom_site_fract_x
  _atom_site_fract_y
  _atom_site_fract_z
  _atom_site_thermal_displace_type
  _atom_site_B_iso_or_equiv
  _atom_site_type_symbol
  Cu1      1.0000 0.25000  0.00000  0.09428  Biso   1.000  Cu
  Cu2      1.0000 0.75000  0.00000  0.40572  Biso   1.000  Cu
  Cu3      1.0000 0.75000  0.00000  0.90572  Biso   1.000  Cu
  Cu4      1.0000 0.25000  0.00000  0.59428  Biso   1.000  Cu
  O1       1.0000 0.17260  0.22380  0.09930  Biso   1.000  O
  O2       1.0000 0.32740  0.77620  0.09930  Biso   1.000  O
  O3       1.0000 0.82740  0.22380  0.40070  Biso   1.000  O
  O4       1.0000 0.67260  0.77620  0.40070  Biso   1.000  O
  O5       1.0000 0.82740  0.77620  0.90070  Biso   1.000  O
  O6       1.0000 0.67260  0.22380  0.90070  Biso   1.000  O
  O7       1.0000 0.17260  0.77620  0.59930  Biso   1.000  O
  O8       1.0000 0.32740  0.22380  0.59930  Biso   1.000  O
  H1       1.0000 0.19790  0.30550  0.08530  Biso   1.000  H
  H2       1.0000 0.30210  0.69450  0.08530  Biso   1.000  H
  H3       1.0000 0.80210  0.30550  0.41470  Biso   1.000  H
  H4       1.0000 0.69790  0.69450  0.41470  Biso   1.000  H
  H5       1.0000 0.80210  0.69450  0.91470  Biso   1.000  H
  H6       1.0000 0.69790  0.30550  0.91470  Biso   1.000  H
  H7       1.0000 0.19790  0.69450  0.58530  Biso   1.000  H
  H8       1.0000 0.30210  0.30550  0.58530  Biso   1.000  H
  H9       1.0000 0.13200  0.24940  0.08890  Biso   1.000  H
  H10      1.0000 0.36800  0.75060  0.08890  Biso   1.000  H
  H11      1.0000 0.86800  0.24940  0.41110  Biso   1.000  H
  H12      1.0000 0.63200  0.75060  0.41110  Biso   1.000  H
  H13      1.0000 0.86800  0.75060  0.91110  Biso   1.000  H
  H14      1.0000 0.63200  0.24940  0.91110  Biso   1.000  H
  H15      1.0000 0.13200  0.75060  0.58890  Biso   1.000  H
  H16      1.0000 0.36800  0.24940  0.58890  Biso   1.000  H
  N1       1.0000 0.17740  0.83350  0.09040  Biso   1.000  N
  N2       1.0000 0.32260  0.16650  0.09040  Biso   1.000  N
  N3       1.0000 0.82260  0.83350  0.40960  Biso   1.000  N
  N4       1.0000 0.67740  0.16650  0.40960  Biso   1.000  N
  N5       1.0000 0.82260  0.16650  0.90960  Biso   1.000  N
  N6       1.0000 0.67740  0.83350  0.90960  Biso   1.000  N
  N7       1.0000 0.17740  0.16650  0.59040  Biso   1.000  N
  N8       1.0000 0.32260  0.83350  0.59040  Biso   1.000  N
  N9       1.0000 0.13430  0.94670  0.94420  Biso   1.000  N
  N10      1.0000 0.36570  0.05330  0.94420  Biso   1.000  N
  N11      1.0000 0.86570  0.94670  0.55580  Biso   1.000  N
  N12      1.0000 0.63430  0.05330  0.55580  Biso   1.000  N
  N13      1.0000 0.86570  0.05330  0.05580  Biso   1.000  N
  N14      1.0000 0.63430  0.94670  0.05580  Biso   1.000  N
  N15      1.0000 0.13430  0.05330  0.44420  Biso   1.000  N
  N16      1.0000 0.36570  0.94670  0.44420  Biso   1.000  N
  H17      1.0000 0.09850  0.99640  0.92120  Biso   1.000  H
  H18      1.0000 0.40150  0.00360  0.92120  Biso   1.000  H
  H19      1.0000 0.90150  0.99640  0.57880  Biso   1.000  H
  H20      1.0000 0.59850  0.00360  0.57880  Biso   1.000  H
  H21      1.0000 0.90150  0.00360  0.07880  Biso   1.000  H
  H22      1.0000 0.59850  0.99640  0.07880  Biso   1.000  H
  H23      1.0000 0.09850  0.00360  0.42120  Biso   1.000  H
  H24      1.0000 0.40150  0.99640  0.42120  Biso   1.000  H
  N17      1.0000 0.25000  0.00000  0.94900  Biso   1.000  N
  N18      1.0000 0.75000  0.00000  0.55100  Biso   1.000  N
  N19      1.0000 0.75000  0.00000  0.05100  Biso   1.000  N
  N20      1.0000 0.25000  0.00000  0.44900  Biso   1.000  N
  N21      1.0000 0.25000  0.00000  0.74810  Biso   1.000  N
  N22      1.0000 0.75000  0.00000  0.75190  Biso   1.000  N
  N23      1.0000 0.75000  0.00000  0.25190  Biso   1.000  N
  N24      1.0000 0.25000  0.00000  0.24810  Biso   1.000  N
  C1       1.0000 0.17080  0.71590  0.16040  Biso   1.000  C
  C2       1.0000 0.32920  0.28410  0.16040  Biso   1.000  C
  C3       1.0000 0.82920  0.71590  0.33960  Biso   1.000  C
  C4       1.0000 0.67080  0.28410  0.33960  Biso   1.000  C
  C5       1.0000 0.82920  0.28410  0.83960  Biso   1.000  C
  C6       1.0000 0.67080  0.71590  0.83960  Biso   1.000  C
  C7       1.0000 0.17080  0.28410  0.66040  Biso   1.000  C
  C8       1.0000 0.32920  0.71590  0.66040  Biso   1.000  C
  H25      1.0000 0.20750  0.69680  0.20290  Biso   1.000  H
  H26      1.0000 0.29250  0.30320  0.20290  Biso   1.000  H
  H27      1.0000 0.79250  0.69680  0.29710  Biso   1.000  H
  H28      1.0000 0.70750  0.30320  0.29710  Biso   1.000  H
  H29      1.0000 0.79250  0.30320  0.79710  Biso   1.000  H
  H30      1.0000 0.70750  0.69680  0.79710  Biso   1.000  H
  H31      1.0000 0.20750  0.30320  0.70290  Biso   1.000  H
  H32      1.0000 0.29250  0.69680  0.70290  Biso   1.000  H
  C9       1.0000 0.11450  0.62310  0.17330  Biso   1.000  C
  C10      1.0000 0.38550  0.37690  0.17330  Biso   1.000  C
  C11      1.0000 0.88550  0.62310  0.32670  Biso   1.000  C
  C12      1.0000 0.61450  0.37690  0.32670  Biso   1.000  C
  C13      1.0000 0.88550  0.37690  0.82670  Biso   1.000  C
  C14      1.0000 0.61450  0.62310  0.82670  Biso   1.000  C
  C15      1.0000 0.11450  0.37690  0.67330  Biso   1.000  C
  C16      1.0000 0.38550  0.62310  0.67330  Biso   1.000  C
  H33      1.0000 0.11240  0.54040  0.22280  Biso   1.000  H
  H34      1.0000 0.38760  0.45960  0.22280  Biso   1.000  H
  H35      1.0000 0.88760  0.54040  0.27720  Biso   1.000  H
  H36      1.0000 0.61240  0.45960  0.27720  Biso   1.000  H
  H37      1.0000 0.88760  0.45960  0.77720  Biso   1.000  H
  H38      1.0000 0.61240  0.54040  0.77720  Biso   1.000  H
  H39      1.0000 0.11240  0.45960  0.72280  Biso   1.000  H
  H40      1.0000 0.38760  0.54040  0.72280  Biso   1.000  H
  C17      1.0000 0.05930  0.65260  0.11170  Biso   1.000  C
  C18      1.0000 0.44070  0.34740  0.11170  Biso   1.000  C
  C19      1.0000 0.94070  0.65260  0.38830  Biso   1.000  C
  C20      1.0000 0.55930  0.34740  0.38830  Biso   1.000  C
  C21      1.0000 0.94070  0.34740  0.88830  Biso   1.000  C
  C22      1.0000 0.55930  0.65260  0.88830  Biso   1.000  C
  C23      1.0000 0.05930  0.34740  0.61170  Biso   1.000  C
  C24      1.0000 0.44070  0.65260  0.61170  Biso   1.000  C
  H41      1.0000 0.01790  0.59830  0.12260  Biso   1.000  H
  H42      1.0000 0.48210  0.40170  0.12260  Biso   1.000  H
  H43      1.0000 0.98210  0.59830  0.37740  Biso   1.000  H
  H44      1.0000 0.51790  0.40170  0.37740  Biso   1.000  H
  H45      1.0000 0.98210  0.40170  0.87740  Biso   1.000  H
  H46      1.0000 0.51790  0.59830  0.87740  Biso   1.000  H
  H47      1.0000 0.01790  0.40170  0.62260  Biso   1.000  H
  H48      1.0000 0.48210  0.59830  0.62260  Biso   1.000  H
  C25      1.0000 0.06700  0.76110  0.03610  Biso   1.000  C
  C26      1.0000 0.43300  0.23890  0.03610  Biso   1.000  C
  C27      1.0000 0.93300  0.76110  0.46390  Biso   1.000  C
  C28      1.0000 0.56700  0.23890  0.46390  Biso   1.000  C
  C29      1.0000 0.93300  0.23890  0.96390  Biso   1.000  C
  C30      1.0000 0.56700  0.76110  0.96390  Biso   1.000  C
  C31      1.0000 0.06700  0.23890  0.53610  Biso   1.000  C
  C32      1.0000 0.43300  0.76110  0.53610  Biso   1.000  C
  H49      1.0000 0.03170  0.77880  0.99090  Biso   1.000  H
  H50      1.0000 0.46830  0.22120  0.99090  Biso   1.000  H
  H51      1.0000 0.96830  0.77880  0.50910  Biso   1.000  H
  H52      1.0000 0.53170  0.22120  0.50910  Biso   1.000  H
  H53      1.0000 0.96830  0.22120  0.00910  Biso   1.000  H
  H54      1.0000 0.53170  0.77880  0.00910  Biso   1.000  H
  H55      1.0000 0.03170  0.22120  0.49090  Biso   1.000  H
  H56      1.0000 0.46830  0.77880  0.49090  Biso   1.000  H
  C33      1.0000 0.12650  0.84450  0.02610  Biso   1.000  C
  C34      1.0000 0.37350  0.15550  0.02610  Biso   1.000  C
  C35      1.0000 0.87350  0.84450  0.47390  Biso   1.000  C
  C36      1.0000 0.62650  0.15550  0.47390  Biso   1.000  C
  C37      1.0000 0.87350  0.15550  0.97390  Biso   1.000  C
  C38      1.0000 0.62650  0.84450  0.97390  Biso   1.000  C
  C39      1.0000 0.12650  0.15550  0.52610  Biso   1.000  C
  C40      1.0000 0.37350  0.84450  0.52610  Biso   1.000  C
  C41      1.0000 0.19340  0.97480  0.89760  Biso   1.000  C
  C42      1.0000 0.30660  0.02520  0.89760  Biso   1.000  C
  C43      1.0000 0.80660  0.97480  0.60240  Biso   1.000  C
  C44      1.0000 0.69340  0.02520  0.60240  Biso   1.000  C
  C45      1.0000 0.80660  0.02520  0.10240  Biso   1.000  C
  C46      1.0000 0.69340  0.97480  0.10240  Biso   1.000  C
  C47      1.0000 0.19340  0.02520  0.39760  Biso   1.000  C
  C48      1.0000 0.30660  0.97480  0.39760  Biso   1.000  C
  C49      1.0000 0.19410  0.97910  0.79570  Biso   1.000  C
  C50      1.0000 0.30590  0.02090  0.79570  Biso   1.000  C
  C51      1.0000 0.80590  0.97910  0.70430  Biso   1.000  C
  C52      1.0000 0.69410  0.02090  0.70430  Biso   1.000  C
  C53      1.0000 0.80590  0.02090  0.20430  Biso   1.000  C
  C54      1.0000 0.69410  0.97910  0.20430  Biso   1.000  C
  C55      1.0000 0.19410  0.02090  0.29570  Biso   1.000  C
  C56      1.0000 0.30590  0.97910  0.29570  Biso   1.000  C
  H57      1.0000 0.15340  0.96670  0.76060  Biso   1.000  H
  H58      1.0000 0.34660  0.03330  0.76060  Biso   1.000  H
  H59      1.0000 0.84660  0.96670  0.73940  Biso   1.000  H
  H60      1.0000 0.65340  0.03330  0.73940  Biso   1.000  H
  H61      1.0000 0.84660  0.03330  0.23940  Biso   1.000  H
  H62      1.0000 0.65340  0.96670  0.23940  Biso   1.000  H
  H63      1.0000 0.15340  0.03330  0.26060  Biso   1.000  H
  H64      1.0000 0.34660  0.96670  0.26060  Biso   1.000  H
  C57      1.0000 0.98920  0.59100  0.12280  Biso   1.000  C
  C58      1.0000 0.51080  0.40900  0.12280  Biso   1.000  C
  C59      1.0000 0.01080  0.59100  0.37720  Biso   1.000  C
  C60      1.0000 0.48920  0.40900  0.37720  Biso   1.000  C
  C61      1.0000 0.01080  0.40900  0.87720  Biso   1.000  C
  C62      1.0000 0.48920  0.59100  0.87720  Biso   1.000  C
  C63      1.0000 0.98920  0.40900  0.62280  Biso   1.000  C
  C64      1.0000 0.51080  0.59100  0.62280  Biso   1.000  C
  H65      1.0000 0.96480  0.60830  0.06160  Biso   1.000  H
  H66      1.0000 0.53520  0.39170  0.06160  Biso   1.000  H
  H67      1.0000 0.03520  0.60830  0.43840  Biso   1.000  H
  H68      1.0000 0.46480  0.39170  0.43840  Biso   1.000  H
  H69      1.0000 0.03520  0.39170  0.93840  Biso   1.000  H
  H70      1.0000 0.46480  0.60830  0.93840  Biso   1.000  H
  H71      1.0000 0.96480  0.39170  0.56160  Biso   1.000  H
  H72      1.0000 0.53520  0.60830  0.56160  Biso   1.000  H
  H73      1.0000 0.96700  0.65220  0.17550  Biso   1.000  H
  H74      1.0000 0.53300  0.34780  0.17550  Biso   1.000  H
  H75      1.0000 0.03300  0.65220  0.32450  Biso   1.000  H
  H76      1.0000 0.46700  0.34780  0.32450  Biso   1.000  H
  H77      1.0000 0.03300  0.34780  0.82450  Biso   1.000  H
  H78      1.0000 0.46700  0.65220  0.82450  Biso   1.000  H
  H79      1.0000 0.96700  0.34780  0.67550  Biso   1.000  H
  H80      1.0000 0.53300  0.65220  0.67550  Biso   1.000  H
  H81      1.0000 0.98990  0.47210  0.13860  Biso   1.000  H
  H82      1.0000 0.51010  0.52790  0.13860  Biso   1.000  H
  H83      1.0000 0.01010  0.47210  0.36140  Biso   1.000  H
  H84      1.0000 0.48990  0.52790  0.36140  Biso   1.000  H
  H85      1.0000 0.01010  0.52790  0.86140  Biso   1.000  H
  H86      1.0000 0.48990  0.47210  0.86140  Biso   1.000  H
  H87      1.0000 0.98990  0.52790  0.63860  Biso   1.000  H
  H88      1.0000 0.51010  0.47210  0.63860  Biso   1.000  H
  Cl1      1.0000 0.00000  0.86200  0.75000  Biso   1.000  Cl
  Cl2      1.0000 0.50000  0.13800  0.75000  Biso   1.000  Cl
  Cl3      1.0000 0.00000  0.13800  0.25000  Biso   1.000  Cl
  Cl4      1.0000 0.50000  0.86200  0.25000  Biso   1.000  Cl
  O9       1.0000 0.01310  0.97080  0.82400  Biso   1.000  O
  O10      1.0000 0.48690  0.02920  0.82400  Biso   1.000  O
  O11      1.0000 0.98690  0.97080  0.67600  Biso   1.000  O
  O12      1.0000 0.51310  0.02920  0.67600  Biso   1.000  O
  O13      1.0000 0.98690  0.02920  0.17600  Biso   1.000  O
  O14      1.0000 0.51310  0.97080  0.17600  Biso   1.000  O
  O15      1.0000 0.01310  0.02920  0.32400  Biso   1.000  O
  O16      1.0000 0.48690  0.97080  0.32400  Biso   1.000  O
  O17      1.0000 0.05580  0.76440  0.73680  Biso   1.000  O
  O18      1.0000 0.44420  0.23560  0.73680  Biso   1.000  O
  O19      1.0000 0.94420  0.76440  0.76320  Biso   1.000  O
  O20      1.0000 0.55580  0.23560  0.76320  Biso   1.000  O
  O21      1.0000 0.94420  0.23560  0.26320  Biso   1.000  O
  O22      1.0000 0.55580  0.76440  0.26320  Biso   1.000  O
  O23      1.0000 0.05580  0.23560  0.23680  Biso   1.000  O
  O24      1.0000 0.44420  0.76440  0.23680  Biso   1.000  O
  Cl5      1.0000 0.25000  0.50000  0.90193  Biso   1.000  Cl
  Cl6      1.0000 0.75000  0.50000  0.59807  Biso   1.000  Cl
  Cl7      1.0000 0.75000  0.50000  0.09807  Biso   1.000  Cl
  Cl8      1.0000 0.25000  0.50000  0.40193  Biso   1.000  Cl
  O25      1.0000 0.25000  0.50000  0.00060  Biso   1.000  O
  O26      1.0000 0.75000  0.50000  0.49940  Biso   1.000  O
  O27      1.0000 0.75000  0.50000  0.99940  Biso   1.000  O
  O28      1.0000 0.25000  0.50000  0.50060  Biso   1.000  O
  O29      1.0000 0.28120  0.37810  0.85350  Biso   1.000  O
  O30      1.0000 0.21880  0.62190  0.85350  Biso   1.000  O
  O31      1.0000 0.71880  0.37810  0.64650  Biso   1.000  O
  O32      1.0000 0.78120  0.62190  0.64650  Biso   1.000  O
  O33      1.0000 0.71880  0.62190  0.14650  Biso   1.000  O
  O34      1.0000 0.78120  0.37810  0.14650  Biso   1.000  O
  O35      1.0000 0.28120  0.62190  0.35350  Biso   1.000  O
  O36      1.0000 0.21880  0.37810  0.35350  Biso   1.000  O
  O37      1.0000 0.19650  0.39420  0.90870  Biso   1.000  O
  O38      1.0000 0.30350  0.60580  0.90870  Biso   1.000  O
  O39      1.0000 0.80350  0.39420  0.59130  Biso   1.000  O
  O40      1.0000 0.69650  0.60580  0.59130  Biso   1.000  O
  O41      1.0000 0.80350  0.60580  0.09130  Biso   1.000  O
  O42      1.0000 0.69650  0.39420  0.09130  Biso   1.000  O
  O43      1.0000 0.19650  0.60580  0.40870  Biso   1.000  O
  O44      1.0000 0.30350  0.39420  0.40870  Biso   1.000  O
