data_image0
_cell_length_a       13.3794
_cell_length_b       17.863
_cell_length_c       10.7329
_cell_angle_alpha    90
_cell_angle_beta     95.444
_cell_angle_gamma    90

_symmetry_space_group_name_H-M    "P 1"
_symmetry_int_tables_number       1

loop_
  _symmetry_equiv_pos_as_xyz
  'x, y, z'

loop_
  _atom_site_label
  _atom_site_occupancy
  _atom_site_fract_x
  _atom_site_fract_y
  _atom_site_fract_z
  _atom_site_thermal_displace_type
  _atom_site_B_iso_or_equiv
  _atom_site_type_symbol
  Cu1      1.0000 0.75954  0.12430  0.15136  Biso   1.000  Cu
  Cu2      1.0000 0.24046  0.62430  0.34864  Biso   1.000  Cu
  Cu3      1.0000 0.24046  0.87570  0.84864  Biso   1.000  Cu
  Cu4      1.0000 0.75954  0.37570  0.65136  Biso   1.000  Cu
  O1       1.0000 0.90990  0.14390  0.16320  Biso   1.000  O
  O2       1.0000 0.09010  0.64390  0.33680  Biso   1.000  O
  O3       1.0000 0.09010  0.85610  0.83680  Biso   1.000  O
  O4       1.0000 0.90990  0.35610  0.66320  Biso   1.000  O
  H1       1.0000 0.92970  0.18320  0.21200  Biso   1.000  H
  H2       1.0000 0.07030  0.68320  0.28800  Biso   1.000  H
  H3       1.0000 0.07030  0.81680  0.78800  Biso   1.000  H
  H4       1.0000 0.92970  0.31680  0.71200  Biso   1.000  H
  H5       1.0000 0.95180  0.14250  0.10140  Biso   1.000  H
  H6       1.0000 0.04820  0.64250  0.39860  Biso   1.000  H
  H7       1.0000 0.04820  0.85750  0.89860  Biso   1.000  H
  H8       1.0000 0.95180  0.35750  0.60140  Biso   1.000  H
  N1       1.0000 0.73540  0.20940  0.03140  Biso   1.000  N
  N2       1.0000 0.26460  0.70940  0.46860  Biso   1.000  N
  N3       1.0000 0.26460  0.79060  0.96860  Biso   1.000  N
  N4       1.0000 0.73540  0.29060  0.53140  Biso   1.000  N
  N5       1.0000 0.59920  0.14810  0.92140  Biso   1.000  N
  N6       1.0000 0.40080  0.64810  0.57860  Biso   1.000  N
  N7       1.0000 0.40080  0.85190  0.07860  Biso   1.000  N
  N8       1.0000 0.59920  0.35190  0.42140  Biso   1.000  N
  H9       1.0000 0.57590  0.13440  0.84540  Biso   1.000  H
  H10      1.0000 0.42410  0.63440  0.65460  Biso   1.000  H
  H11      1.0000 0.42410  0.86560  0.15460  Biso   1.000  H
  H12      1.0000 0.57590  0.36560  0.34540  Biso   1.000  H
  N9       1.0000 0.61470  0.09720  0.12660  Biso   1.000  N
  N10      1.0000 0.38530  0.59720  0.37340  Biso   1.000  N
  N11      1.0000 0.38530  0.90280  0.87340  Biso   1.000  N
  N12      1.0000 0.61470  0.40280  0.62660  Biso   1.000  N
  N13      1.0000 0.62800  0.04540  0.32920  Biso   1.000  N
  N14      1.0000 0.37200  0.54540  0.17080  Biso   1.000  N
  N15      1.0000 0.37200  0.95460  0.67080  Biso   1.000  N
  N16      1.0000 0.62800  0.45460  0.82920  Biso   1.000  N
  H13      1.0000 0.60030  0.05340  0.39920  Biso   1.000  H
  H14      1.0000 0.39970  0.55340  0.10080  Biso   1.000  H
  H15      1.0000 0.39970  0.94660  0.60080  Biso   1.000  H
  H16      1.0000 0.60030  0.44660  0.89920  Biso   1.000  H
  N17      1.0000 0.78590  0.03320  0.25430  Biso   1.000  N
  N18      1.0000 0.21410  0.53320  0.24570  Biso   1.000  N
  N19      1.0000 0.21410  0.96680  0.74570  Biso   1.000  N
  N20      1.0000 0.78590  0.46680  0.75430  Biso   1.000  N
  N21      1.0000 0.74570  0.30260  0.82560  Biso   1.000  N
  N22      1.0000 0.25430  0.80260  0.67440  Biso   1.000  N
  N23      1.0000 0.25430  0.69740  0.17440  Biso   1.000  N
  N24      1.0000 0.74570  0.19740  0.32560  Biso   1.000  N
  C1       1.0000 0.79860  0.26910  0.03410  Biso   1.000  C
  C2       1.0000 0.20140  0.76910  0.46590  Biso   1.000  C
  C3       1.0000 0.20140  0.73090  0.96590  Biso   1.000  C
  C4       1.0000 0.79860  0.23090  0.53410  Biso   1.000  C
  H17      1.0000 0.84100  0.27890  0.10840  Biso   1.000  H
  H18      1.0000 0.15900  0.77890  0.39160  Biso   1.000  H
  H19      1.0000 0.15900  0.72110  0.89160  Biso   1.000  H
  H20      1.0000 0.84100  0.22110  0.60840  Biso   1.000  H
  C5       1.0000 0.80320  0.31490  0.93470  Biso   1.000  C
  C6       1.0000 0.19680  0.81490  0.56530  Biso   1.000  C
  C7       1.0000 0.19680  0.68510  0.06530  Biso   1.000  C
  C8       1.0000 0.80320  0.18510  0.43470  Biso   1.000  C
  H21      1.0000 0.84750  0.35660  0.94130  Biso   1.000  H
  H22      1.0000 0.15250  0.85660  0.55870  Biso   1.000  H
  H23      1.0000 0.15250  0.64340  0.05870  Biso   1.000  H
  H24      1.0000 0.84750  0.14340  0.44130  Biso   1.000  H
  C9       1.0000 0.68100  0.24740  0.82300  Biso   1.000  C
  C10      1.0000 0.31900  0.74740  0.67700  Biso   1.000  C
  C11      1.0000 0.31900  0.75260  0.17700  Biso   1.000  C
  C12      1.0000 0.68100  0.25260  0.32300  Biso   1.000  C
  H25      1.0000 0.63890  0.23800  0.74830  Biso   1.000  H
  H26      1.0000 0.36110  0.73800  0.75170  Biso   1.000  H
  H27      1.0000 0.36110  0.76200  0.25170  Biso   1.000  H
  H28      1.0000 0.63890  0.26200  0.24830  Biso   1.000  H
  C13      1.0000 0.67230  0.20150  0.92870  Biso   1.000  C
  C14      1.0000 0.32770  0.70150  0.57130  Biso   1.000  C
  C15      1.0000 0.32770  0.79850  0.07130  Biso   1.000  C
  C16      1.0000 0.67230  0.29850  0.42870  Biso   1.000  C
  C17      1.0000 0.55700  0.11240  0.01920  Biso   1.000  C
  C18      1.0000 0.44300  0.61240  0.48080  Biso   1.000  C
  C19      1.0000 0.44300  0.88760  0.98080  Biso   1.000  C
  C20      1.0000 0.55700  0.38760  0.51920  Biso   1.000  C
  C21      1.0000 0.45560  0.09470  0.00170  Biso   1.000  C
  C22      1.0000 0.54440  0.59470  0.49830  Biso   1.000  C
  C23      1.0000 0.54440  0.90530  0.99830  Biso   1.000  C
  C24      1.0000 0.45560  0.40530  0.50170  Biso   1.000  C
  H29      1.0000 0.41710  0.10560  0.92490  Biso   1.000  H
  H30      1.0000 0.58290  0.60560  0.57510  Biso   1.000  H
  H31      1.0000 0.58290  0.89440  0.07510  Biso   1.000  H
  H32      1.0000 0.41710  0.39440  0.42490  Biso   1.000  H
  C25      1.0000 0.41200  0.06060  0.09920  Biso   1.000  C
  C26      1.0000 0.58800  0.56060  0.40080  Biso   1.000  C
  C27      1.0000 0.58800  0.93940  0.90080  Biso   1.000  C
  C28      1.0000 0.41200  0.43940  0.59920  Biso   1.000  C
  H33      1.0000 0.34280  0.04780  0.08990  Biso   1.000  H
  H34      1.0000 0.65720  0.54780  0.41010  Biso   1.000  H
  H35      1.0000 0.65720  0.95220  0.91010  Biso   1.000  H
  H36      1.0000 0.34280  0.45220  0.58990  Biso   1.000  H
  C29      1.0000 0.46950  0.04550  0.20970  Biso   1.000  C
  C30      1.0000 0.53050  0.54550  0.29030  Biso   1.000  C
  C31      1.0000 0.53050  0.95450  0.79030  Biso   1.000  C
  C32      1.0000 0.46950  0.45450  0.70970  Biso   1.000  C
  H37      1.0000 0.44030  0.02310  0.27780  Biso   1.000  H
  H38      1.0000 0.55970  0.52310  0.22220  Biso   1.000  H
  H39      1.0000 0.55970  0.97690  0.72220  Biso   1.000  H
  H40      1.0000 0.44030  0.47690  0.77780  Biso   1.000  H
  C33      1.0000 0.57080  0.06350  0.21980  Biso   1.000  C
  C34      1.0000 0.42920  0.56350  0.28020  Biso   1.000  C
  C35      1.0000 0.42920  0.93650  0.78020  Biso   1.000  C
  C36      1.0000 0.57080  0.43650  0.71980  Biso   1.000  C
  C37      1.0000 0.72480  0.01610  0.34140  Biso   1.000  C
  C38      1.0000 0.27520  0.51610  0.15860  Biso   1.000  C
  C39      1.0000 0.27520  0.98390  0.65860  Biso   1.000  C
  C40      1.0000 0.72480  0.48390  0.84140  Biso   1.000  C
  C41      1.0000 0.75580  0.97110  0.44480  Biso   1.000  C
  C42      1.0000 0.24420  0.47110  0.05520  Biso   1.000  C
  C43      1.0000 0.24420  0.02890  0.55520  Biso   1.000  C
  C44      1.0000 0.75580  0.52890  0.94480  Biso   1.000  C
  H41      1.0000 0.71210  0.96320  0.50840  Biso   1.000  H
  H42      1.0000 0.28790  0.46320  0.99160  Biso   1.000  H
  H43      1.0000 0.28790  0.03680  0.49160  Biso   1.000  H
  H44      1.0000 0.71210  0.53680  0.00840  Biso   1.000  H
  C45      1.0000 0.84850  0.93860  0.45430  Biso   1.000  C
  C46      1.0000 0.15150  0.43860  0.04570  Biso   1.000  C
  C47      1.0000 0.15150  0.06140  0.54570  Biso   1.000  C
  C48      1.0000 0.84850  0.56140  0.95430  Biso   1.000  C
  C49      1.0000 0.91010  0.95180  0.35650  Biso   1.000  C
  C50      1.0000 0.08990  0.45180  0.14350  Biso   1.000  C
  C51      1.0000 0.08990  0.04820  0.64350  Biso   1.000  C
  C52      1.0000 0.91010  0.54820  0.85650  Biso   1.000  C
  H45      1.0000 0.97370  0.92800  0.35710  Biso   1.000  H
  H46      1.0000 0.02630  0.42800  0.14290  Biso   1.000  H
  H47      1.0000 0.02630  0.07200  0.64290  Biso   1.000  H
  H48      1.0000 0.97370  0.57200  0.85710  Biso   1.000  H
  C53      1.0000 0.87720  0.99890  0.26150  Biso   1.000  C
  C54      1.0000 0.12280  0.49890  0.23850  Biso   1.000  C
  C55      1.0000 0.12280  0.00110  0.73850  Biso   1.000  C
  C56      1.0000 0.87720  0.50110  0.76150  Biso   1.000  C
  H49      1.0000 0.91980  0.00820  0.19730  Biso   1.000  H
  H50      1.0000 0.08020  0.50820  0.30270  Biso   1.000  H
  H51      1.0000 0.08020  0.99180  0.80270  Biso   1.000  H
  H52      1.0000 0.91980  0.49180  0.69730  Biso   1.000  H
  C57      1.0000 0.88490  0.88900  0.56170  Biso   1.000  C
  C58      1.0000 0.11510  0.38900  0.93830  Biso   1.000  C
  C59      1.0000 0.11510  0.11100  0.43830  Biso   1.000  C
  C60      1.0000 0.88490  0.61100  0.06170  Biso   1.000  C
  H53      1.0000 0.82750  0.87150  0.60400  Biso   1.000  H
  H54      1.0000 0.17250  0.37150  0.89600  Biso   1.000  H
  H55      1.0000 0.17250  0.12850  0.39600  Biso   1.000  H
  H56      1.0000 0.82750  0.62850  0.10400  Biso   1.000  H
  H57      1.0000 0.93080  0.91720  0.62100  Biso   1.000  H
  H58      1.0000 0.06920  0.41720  0.87900  Biso   1.000  H
  H59      1.0000 0.06920  0.08280  0.37900  Biso   1.000  H
  H60      1.0000 0.93080  0.58280  0.12100  Biso   1.000  H
  H61      1.0000 0.92040  0.84590  0.53040  Biso   1.000  H
  H62      1.0000 0.07960  0.34590  0.96960  Biso   1.000  H
  H63      1.0000 0.07960  0.15410  0.46960  Biso   1.000  H
  H64      1.0000 0.92040  0.65410  0.03040  Biso   1.000  H
  Cl1      1.0000 0.85209  0.05827  0.85650  Biso   1.000  Cl
  Cl2      1.0000 0.14791  0.55827  0.64350  Biso   1.000  Cl
  Cl3      1.0000 0.14791  0.94173  0.14350  Biso   1.000  Cl
  Cl4      1.0000 0.85209  0.44173  0.35650  Biso   1.000  Cl
  O5       1.0000 0.79610  0.04730  0.95820  Biso   1.000  O
  O6       1.0000 0.20390  0.54730  0.54180  Biso   1.000  O
  O7       1.0000 0.20390  0.95270  0.04180  Biso   1.000  O
  O8       1.0000 0.79610  0.45270  0.45820  Biso   1.000  O
  O9       1.0000 0.80210  0.09930  0.76320  Biso   1.000  O
  O10      1.0000 0.19790  0.59930  0.73680  Biso   1.000  O
  O11      1.0000 0.19790  0.90070  0.23680  Biso   1.000  O
  O12      1.0000 0.80210  0.40070  0.26320  Biso   1.000  O
  O13      1.0000 0.88490  0.99500  0.80140  Biso   1.000  O
  O14      1.0000 0.11510  0.49500  0.69860  Biso   1.000  O
  O15      1.0000 0.11510  0.00500  0.19860  Biso   1.000  O
  O16      1.0000 0.88490  0.50500  0.30140  Biso   1.000  O
  O17      1.0000 0.93480  0.09940  0.90490  Biso   1.000  O
  O18      1.0000 0.06520  0.59940  0.59510  Biso   1.000  O
  O19      1.0000 0.06520  0.90060  0.09510  Biso   1.000  O
  O20      1.0000 0.93480  0.40060  0.40490  Biso   1.000  O
  O21      1.0000 0.77760  0.03000  0.76980  Biso   1.000  O
  O22      1.0000 0.22240  0.53000  0.73020  Biso   1.000  O
  O23      1.0000 0.22240  0.97000  0.23020  Biso   1.000  O
  O24      1.0000 0.77760  0.47000  0.26980  Biso   1.000  O
  O25      1.0000 0.92040  0.00560  0.83820  Biso   1.000  O
  O26      1.0000 0.07960  0.50560  0.66180  Biso   1.000  O
  O27      1.0000 0.07960  0.99440  0.16180  Biso   1.000  O
  O28      1.0000 0.92040  0.49440  0.33820  Biso   1.000  O
  O29      1.0000 0.84010  0.12640  0.79890  Biso   1.000  O
  O30      1.0000 0.15990  0.62640  0.70110  Biso   1.000  O
  O31      1.0000 0.15990  0.87360  0.20110  Biso   1.000  O
  O32      1.0000 0.84010  0.37360  0.29890  Biso   1.000  O
  Cl5      1.0000 0.48790  0.14394  0.57195  Biso   1.000  Cl
  Cl6      1.0000 0.51210  0.64394  0.92805  Biso   1.000  Cl
  Cl7      1.0000 0.51210  0.85606  0.42805  Biso   1.000  Cl
  Cl8      1.0000 0.48790  0.35606  0.07195  Biso   1.000  Cl
  O33      1.0000 0.46070  0.13860  0.69370  Biso   1.000  O
  O34      1.0000 0.53930  0.63860  0.80630  Biso   1.000  O
  O35      1.0000 0.53930  0.86140  0.30630  Biso   1.000  O
  O36      1.0000 0.46070  0.36140  0.19370  Biso   1.000  O
  O37      1.0000 0.47530  0.07970  0.50960  Biso   1.000  O
  O38      1.0000 0.52470  0.57970  0.99040  Biso   1.000  O
  O39      1.0000 0.52470  0.92030  0.49040  Biso   1.000  O
  O40      1.0000 0.47530  0.42030  0.00960  Biso   1.000  O
  O41      1.0000 0.55990  0.19180  0.55140  Biso   1.000  O
  O42      1.0000 0.44010  0.69180  0.94860  Biso   1.000  O
  O43      1.0000 0.44010  0.80820  0.44860  Biso   1.000  O
  O44      1.0000 0.55990  0.30820  0.05140  Biso   1.000  O
  O45      1.0000 0.40320  0.17190  0.50310  Biso   1.000  O
  O46      1.0000 0.59680  0.67190  0.99690  Biso   1.000  O
  O47      1.0000 0.59680  0.82810  0.49690  Biso   1.000  O
  O48      1.0000 0.40320  0.32810  0.00310  Biso   1.000  O
  O49      1.0000 0.58740  0.12880  0.58700  Biso   1.000  O
  O50      1.0000 0.41260  0.62880  0.91300  Biso   1.000  O
  O51      1.0000 0.41260  0.87120  0.41300  Biso   1.000  O
  O52      1.0000 0.58740  0.37120  0.08700  Biso   1.000  O
  O53      1.0000 0.50770  0.21450  0.54300  Biso   1.000  O
  O54      1.0000 0.49230  0.71450  0.95700  Biso   1.000  O
  O55      1.0000 0.49230  0.78550  0.45700  Biso   1.000  O
  O56      1.0000 0.50770  0.28550  0.04300  Biso   1.000  O
  O57      1.0000 0.99700  0.23720  0.76470  Biso   1.000  O
  O58      1.0000 0.00300  0.73720  0.73530  Biso   1.000  O
  O59      1.0000 0.00300  0.76280  0.23530  Biso   1.000  O
  O60      1.0000 0.99700  0.26280  0.26470  Biso   1.000  O
  H65      1.0000 0.05370  0.23580  0.75400  Biso   1.000  H
  H66      1.0000 0.94630  0.73580  0.74600  Biso   1.000  H
  H67      1.0000 0.94630  0.76420  0.24600  Biso   1.000  H
  H68      1.0000 0.05370  0.26420  0.25400  Biso   1.000  H
  H69      1.0000 0.98120  0.19980  0.79770  Biso   1.000  H
  H70      1.0000 0.01880  0.69980  0.70230  Biso   1.000  H
  H71      1.0000 0.01880  0.80020  0.20230  Biso   1.000  H
  H72      1.0000 0.98120  0.30020  0.29770  Biso   1.000  H
  O61      1.0000 0.19690  0.23030  0.73730  Biso   1.000  O
  O62      1.0000 0.80310  0.73030  0.76270  Biso   1.000  O
  O63      1.0000 0.80310  0.76970  0.26270  Biso   1.000  O
  O64      1.0000 0.19690  0.26970  0.23730  Biso   1.000  O
  C61      1.0000 0.18920  0.16210  0.93500  Biso   1.000  C
  C62      1.0000 0.81080  0.66210  0.56500  Biso   1.000  C
  C63      1.0000 0.81080  0.83790  0.06500  Biso   1.000  C
  C64      1.0000 0.18920  0.33790  0.43500  Biso   1.000  C
  H73      1.0000 0.22730  0.13120  0.99500  Biso   1.000  H
  H74      1.0000 0.77270  0.63120  0.50500  Biso   1.000  H
  H75      1.0000 0.77270  0.86880  0.00500  Biso   1.000  H
  H76      1.0000 0.22730  0.36880  0.49500  Biso   1.000  H
  H77      1.0000 0.16850  0.20680  0.97480  Biso   1.000  H
  H78      1.0000 0.83150  0.70680  0.52520  Biso   1.000  H
  H79      1.0000 0.83150  0.79320  0.02520  Biso   1.000  H
  H80      1.0000 0.16850  0.29320  0.47480  Biso   1.000  H
  H81      1.0000 0.13100  0.13520  0.89990  Biso   1.000  H
  H82      1.0000 0.86900  0.63520  0.60010  Biso   1.000  H
  H83      1.0000 0.86900  0.86480  0.10010  Biso   1.000  H
  H84      1.0000 0.13100  0.36480  0.39990  Biso   1.000  H
  C65      1.0000 0.25320  0.18310  0.83250  Biso   1.000  C
  C66      1.0000 0.74680  0.68310  0.66750  Biso   1.000  C
  C67      1.0000 0.74680  0.81690  0.16750  Biso   1.000  C
  C68      1.0000 0.25320  0.31690  0.33250  Biso   1.000  C
  H85      1.0000 0.31320  0.21060  0.86890  Biso   1.000  H
  H86      1.0000 0.68680  0.71060  0.63110  Biso   1.000  H
  H87      1.0000 0.68680  0.78940  0.13110  Biso   1.000  H
  H88      1.0000 0.31320  0.28940  0.36890  Biso   1.000  H
  H89      1.0000 0.27620  0.13710  0.79240  Biso   1.000  H
  H90      1.0000 0.72380  0.63710  0.70760  Biso   1.000  H
  H91      1.0000 0.72380  0.86290  0.20760  Biso   1.000  H
  H92      1.0000 0.27620  0.36290  0.29240  Biso   1.000  H
  C69      1.0000 0.24920  0.27070  0.64300  Biso   1.000  C
  C70      1.0000 0.75080  0.77070  0.85700  Biso   1.000  C
  C71      1.0000 0.75080  0.72930  0.35700  Biso   1.000  C
  C72      1.0000 0.24920  0.22930  0.14300  Biso   1.000  C
  H93      1.0000 0.27880  0.23520  0.58630  Biso   1.000  H
  H94      1.0000 0.72120  0.73520  0.91370  Biso   1.000  H
  H95      1.0000 0.72120  0.76480  0.41370  Biso   1.000  H
  H96      1.0000 0.27880  0.26480  0.08630  Biso   1.000  H
  H97      1.0000 0.30340  0.30250  0.68430  Biso   1.000  H
  H98      1.0000 0.69660  0.80250  0.81570  Biso   1.000  H
  H99      1.0000 0.69660  0.69750  0.31570  Biso   1.000  H
  H100     1.0000 0.30340  0.19750  0.18430  Biso   1.000  H
  C73      1.0000 0.16950  0.31800  0.57300  Biso   1.000  C
  C74      1.0000 0.83050  0.81800  0.92700  Biso   1.000  C
  C75      1.0000 0.83050  0.68200  0.42700  Biso   1.000  C
  C76      1.0000 0.16950  0.18200  0.07300  Biso   1.000  C
  H101     1.0000 0.19870  0.34680  0.51010  Biso   1.000  H
  H102     1.0000 0.80130  0.84680  0.98990  Biso   1.000  H
  H103     1.0000 0.80130  0.65320  0.48990  Biso   1.000  H
  H104     1.0000 0.19870  0.15320  0.01010  Biso   1.000  H
  H105     1.0000 0.11920  0.28520  0.53360  Biso   1.000  H
  H106     1.0000 0.88080  0.78520  0.96640  Biso   1.000  H
  H107     1.0000 0.88080  0.71480  0.46640  Biso   1.000  H
  H108     1.0000 0.11920  0.21480  0.03360  Biso   1.000  H
  H109     1.0000 0.13930  0.35120  0.62900  Biso   1.000  H
  H110     1.0000 0.86070  0.85120  0.87100  Biso   1.000  H
  H111     1.0000 0.86070  0.64880  0.37100  Biso   1.000  H
  H112     1.0000 0.13930  0.14880  0.12900  Biso   1.000  H
