data_image0
_cell_length_a       9.0106
_cell_length_b       11.256
_cell_length_c       18.8139
_cell_angle_alpha    98.54
_cell_angle_beta     96.243
_cell_angle_gamma    90.574

_symmetry_space_group_name_H-M    "P 1"
_symmetry_int_tables_number       1

loop_
  _symmetry_equiv_pos_as_xyz
  'x, y, z'

loop_
  _atom_site_label
  _atom_site_occupancy
  _atom_site_fract_x
  _atom_site_fract_y
  _atom_site_fract_z
  _atom_site_thermal_displace_type
  _atom_site_B_iso_or_equiv
  _atom_site_type_symbol
  Cu1      1.0000 0.31023  0.05154  0.20022  Biso   1.000  Cu
  Cu2      1.0000 0.68977  0.94846  0.79978  Biso   1.000  Cu
  Cu3      1.0000 0.81236  0.55091  0.20268  Biso   1.000  Cu
  Cu4      1.0000 0.18764  0.44909  0.79732  Biso   1.000  Cu
  S1       1.0000 0.27080  0.91770  0.95270  Biso   1.000  S
  S2       1.0000 0.72920  0.08230  0.04730  Biso   1.000  S
  S3       1.0000 0.76790  0.55310  0.95362  Biso   1.000  S
  S4       1.0000 0.23210  0.44690  0.04638  Biso   1.000  S
  S5       1.0000 0.21360  0.98670  0.94940  Biso   1.000  S
  S6       1.0000 0.78640  0.01330  0.05060  Biso   1.000  S
  S7       1.0000 0.71360  0.48210  0.95060  Biso   1.000  S
  S8       1.0000 0.28640  0.51790  0.04940  Biso   1.000  S
  N1       1.0000 0.16550  0.18710  0.20640  Biso   1.000  N
  N2       1.0000 0.83450  0.81290  0.79360  Biso   1.000  N
  N3       1.0000 0.28260  0.27120  0.32077  Biso   1.000  N
  N4       1.0000 0.71740  0.72880  0.67923  Biso   1.000  N
  H1       1.0000 0.33080  0.33790  0.34150  Biso   1.000  H
  H2       1.0000 0.66920  0.66210  0.65850  Biso   1.000  H
  N5       1.0000 0.32040  0.06200  0.30858  Biso   1.000  N
  N6       1.0000 0.67960  0.93800  0.69142  Biso   1.000  N
  N7       1.0000 0.35040  0.85260  0.29970  Biso   1.000  N
  N8       1.0000 0.64960  0.14740  0.70030  Biso   1.000  N
  H3       1.0000 0.29940  0.79090  0.30930  Biso   1.000  H
  H4       1.0000 0.70060  0.20910  0.69070  Biso   1.000  H
  N9       1.0000 0.45070  0.91250  0.19981  Biso   1.000  N
  N10      1.0000 0.54930  0.08750  0.80019  Biso   1.000  N
  N11      1.0000 0.00230  0.39550  0.20240  Biso   1.000  N
  N12      1.0000 0.99770  0.60450  0.79760  Biso   1.000  N
  N13      1.0000 0.60760  0.70060  0.18540  Biso   1.000  N
  N14      1.0000 0.39240  0.29940  0.81460  Biso   1.000  N
  N15      1.0000 0.95700  0.68850  0.20080  Biso   1.000  N
  N16      1.0000 0.04300  0.31150  0.79920  Biso   1.000  N
  N17      1.0000 0.87520  0.79420  0.30510  Biso   1.000  N
  N18      1.0000 0.12480  0.20580  0.69490  Biso   1.000  N
  H5       1.0000 0.82900  0.86070  0.31910  Biso   1.000  H
  H6       1.0000 0.17100  0.13930  0.68090  Biso   1.000  H
  N19      1.0000 0.83170  0.58990  0.31175  Biso   1.000  N
  N20      1.0000 0.16830  0.41010  0.68825  Biso   1.000  N
  N21      1.0000 0.77490  0.38790  0.32240  Biso   1.000  N
  N22      1.0000 0.22510  0.61210  0.67760  Biso   1.000  N
  H7       1.0000 0.81260  0.32980  0.34470  Biso   1.000  H
  H8       1.0000 0.18740  0.67020  0.65530  Biso   1.000  H
  N23      1.0000 0.66320  0.41860  0.20757  Biso   1.000  N
  N24      1.0000 0.33680  0.58140  0.79243  Biso   1.000  N
  N25      1.0000 0.09800  0.89880  0.17850  Biso   1.000  N
  N26      1.0000 0.90200  0.10120  0.82150  Biso   1.000  N
  N27      1.0000 0.49830  0.20640  0.20030  Biso   1.000  N
  N28      1.0000 0.50170  0.79360  0.79970  Biso   1.000  N
  N29      1.0000 0.29210  0.03270  0.09427  Biso   1.000  N
  N30      1.0000 0.70790  0.96730  0.90573  Biso   1.000  N
  N31      1.0000 0.79000  0.51770  0.09710  Biso   1.000  N
  N32      1.0000 0.21000  0.48230  0.90290  Biso   1.000  N
  C1       1.0000 0.06110  0.19790  0.15090  Biso   1.000  C
  C2       1.0000 0.93890  0.80210  0.84910  Biso   1.000  C
  H9       1.0000 0.04360  0.13350  0.11190  Biso   1.000  H
  H10      1.0000 0.95640  0.86650  0.88810  Biso   1.000  H
  C3       1.0000 0.97950  0.30020  0.14940  Biso   1.000  C
  C4       1.0000 0.02050  0.69980  0.85060  Biso   1.000  C
  H11      1.0000 0.90500  0.30390  0.11010  Biso   1.000  H
  H12      1.0000 0.09500  0.69610  0.88990  Biso   1.000  H
  C5       1.0000 0.10370  0.38520  0.25700  Biso   1.000  C
  C6       1.0000 0.89630  0.61480  0.74300  Biso   1.000  C
  H13      1.0000 0.12300  0.45090  0.29510  Biso   1.000  H
  H14      1.0000 0.87700  0.54910  0.70490  Biso   1.000  H
  C7       1.0000 0.18470  0.27850  0.26040  Biso   1.000  C
  C8       1.0000 0.81530  0.72150  0.73960  Biso   1.000  C
  C9       1.0000 0.31280  0.16950  0.35220  Biso   1.000  C
  C10      1.0000 0.68720  0.83050  0.64780  Biso   1.000  C
  C11      1.0000 0.33180  0.18040  0.42640  Biso   1.000  C
  C12      1.0000 0.66820  0.81960  0.57360  Biso   1.000  C
  H15      1.0000 0.33890  0.25750  0.45520  Biso   1.000  H
  H16      1.0000 0.66110  0.74250  0.54480  Biso   1.000  H
  C13      1.0000 0.34030  0.07790  0.45850  Biso   1.000  C
  C14      1.0000 0.65970  0.92210  0.54150  Biso   1.000  C
  H17      1.0000 0.34620  0.08370  0.50970  Biso   1.000  H
  H18      1.0000 0.65380  0.91630  0.49030  Biso   1.000  H
  C15      1.0000 0.34030  0.96720  0.41610  Biso   1.000  C
  C16      1.0000 0.65970  0.03280  0.58390  Biso   1.000  C
  H19      1.0000 0.34330  0.89540  0.43700  Biso   1.000  H
  H20      1.0000 0.65670  0.10460  0.56300  Biso   1.000  H
  C17      1.0000 0.33570  0.96340  0.34170  Biso   1.000  C
  C18      1.0000 0.66430  0.03660  0.65830  Biso   1.000  C
  C19      1.0000 0.43900  0.83210  0.24420  Biso   1.000  C
  C20      1.0000 0.56100  0.16790  0.75580  Biso   1.000  C
  C21      1.0000 0.51680  0.72390  0.23520  Biso   1.000  C
  C22      1.0000 0.48320  0.27610  0.76480  Biso   1.000  C
  H21      1.0000 0.50300  0.66620  0.26610  Biso   1.000  H
  H22      1.0000 0.49700  0.33380  0.73390  Biso   1.000  H
  C23      1.0000 0.62210  0.78340  0.14160  Biso   1.000  C
  C24      1.0000 0.37790  0.21660  0.85840  Biso   1.000  C
  H23      1.0000 0.68740  0.76900  0.10500  Biso   1.000  H
  H24      1.0000 0.31260  0.23100  0.89500  Biso   1.000  H
  C25      1.0000 0.54430  0.88860  0.14870  Biso   1.000  C
  C26      1.0000 0.45570  0.11140  0.85130  Biso   1.000  C
  H25      1.0000 0.55700  0.94520  0.11690  Biso   1.000  H
  H26      1.0000 0.44300  0.05480  0.88310  Biso   1.000  H
  C27      1.0000 0.04170  0.69020  0.14600  Biso   1.000  C
  C28      1.0000 0.95830  0.30980  0.85400  Biso   1.000  C
  H27      1.0000 0.05310  0.61780  0.11420  Biso   1.000  H
  H28      1.0000 0.94690  0.38220  0.88580  Biso   1.000  H
  C29      1.0000 0.11190  0.79380  0.13500  Biso   1.000  C
  C30      1.0000 0.88810  0.20620  0.86500  Biso   1.000  C
  H29      1.0000 0.17130  0.79140  0.09600  Biso   1.000  H
  H30      1.0000 0.82870  0.20860  0.90400  Biso   1.000  H
  C31      1.0000 0.01610  0.89760  0.23170  Biso   1.000  C
  C32      1.0000 0.98390  0.10240  0.76830  Biso   1.000  C
  H31      1.0000 0.00200  0.97080  0.26220  Biso   1.000  H
  H32      1.0000 0.99800  0.02920  0.73780  Biso   1.000  H
  C33      1.0000 0.94840  0.79130  0.24510  Biso   1.000  C
  C34      1.0000 0.05160  0.20870  0.75490  Biso   1.000  C
  C35      1.0000 0.86680  0.70180  0.34630  Biso   1.000  C
  C36      1.0000 0.13320  0.29820  0.65370  Biso   1.000  C
  C37      1.0000 0.89670  0.73000  0.42050  Biso   1.000  C
  C38      1.0000 0.10330  0.27000  0.57950  Biso   1.000  C
  H33      1.0000 0.92110  0.81030  0.44250  Biso   1.000  H
  H34      1.0000 0.07890  0.18970  0.55750  Biso   1.000  H
  C39      1.0000 0.89010  0.63890  0.46200  Biso   1.000  C
  C40      1.0000 0.10990  0.36110  0.53800  Biso   1.000  C
  H35      1.0000 0.91300  0.65510  0.51300  Biso   1.000  H
  H36      1.0000 0.08700  0.34490  0.48700  Biso   1.000  H
  C41      1.0000 0.85020  0.52480  0.42840  Biso   1.000  C
  C42      1.0000 0.14980  0.47520  0.57160  Biso   1.000  C
  H37      1.0000 0.84360  0.46120  0.45590  Biso   1.000  H
  H38      1.0000 0.15640  0.53880  0.54410  Biso   1.000  H
  C43      1.0000 0.81970  0.50340  0.35370  Biso   1.000  C
  C44      1.0000 0.18030  0.49660  0.64630  Biso   1.000  C
  C45      1.0000 0.67960  0.35270  0.26130  Biso   1.000  C
  C46      1.0000 0.32040  0.64730  0.73870  Biso   1.000  C
  C47      1.0000 0.59650  0.24380  0.25580  Biso   1.000  C
  C48      1.0000 0.40350  0.75620  0.74420  Biso   1.000  C
  H39      1.0000 0.61250  0.19640  0.29350  Biso   1.000  H
  H40      1.0000 0.38750  0.80360  0.70650  Biso   1.000  H
  C49      1.0000 0.47770  0.27670  0.14800  Biso   1.000  C
  C50      1.0000 0.52230  0.72330  0.85200  Biso   1.000  C
  H41      1.0000 0.40440  0.25330  0.10790  Biso   1.000  H
  H42      1.0000 0.59560  0.74670  0.89210  Biso   1.000  H
  C51      1.0000 0.55970  0.38070  0.15110  Biso   1.000  C
  C52      1.0000 0.44030  0.61930  0.84890  Biso   1.000  C
  H43      1.0000 0.54340  0.42710  0.11290  Biso   1.000  H
  H44      1.0000 0.45660  0.57290  0.88710  Biso   1.000  H
  C53      1.0000 0.27800  0.99000  0.03480  Biso   1.000  C
  C54      1.0000 0.72200  0.01000  0.96520  Biso   1.000  C
  C55      1.0000 0.77610  0.52760  0.03700  Biso   1.000  C
  C56      1.0000 0.22390  0.47240  0.96300  Biso   1.000  C
  Cl1      1.0000 0.85666  0.11078  0.38994  Biso   1.000  Cl
  Cl2      1.0000 0.14334  0.88922  0.61006  Biso   1.000  Cl
  O1       1.0000 0.94110  0.15310  0.33860  Biso   1.000  O
  O2       1.0000 0.05890  0.84690  0.66140  Biso   1.000  O
  O3       1.0000 0.74480  0.02870  0.35370  Biso   1.000  O
  O4       1.0000 0.25520  0.97130  0.64630  Biso   1.000  O
  O5       1.0000 0.95170  0.04870  0.43530  Biso   1.000  O
  O6       1.0000 0.04830  0.95130  0.56470  Biso   1.000  O
  O7       1.0000 0.79210  0.21260  0.42640  Biso   1.000  O
  O8       1.0000 0.20790  0.78740  0.57360  Biso   1.000  O
  Cl3      1.0000 0.37369  0.58156  0.39489  Biso   1.000  Cl
  Cl4      1.0000 0.62631  0.41844  0.60511  Biso   1.000  Cl
  O9       1.0000 0.46410  0.51890  0.34480  Biso   1.000  O
  O10      1.0000 0.53590  0.48110  0.65520  Biso   1.000  O
  O11      1.0000 0.26270  0.64590  0.35550  Biso   1.000  O
  O12      1.0000 0.73730  0.35410  0.64450  Biso   1.000  O
  O13      1.0000 0.45890  0.66450  0.44660  Biso   1.000  O
  O14      1.0000 0.54110  0.33550  0.55340  Biso   1.000  O
  O15      1.0000 0.29670  0.49400  0.42680  Biso   1.000  O
  O16      1.0000 0.70330  0.50600  0.57320  Biso   1.000  O
