data_image0
_cell_length_a       19.9336
_cell_length_b       8.2299
_cell_length_c       13.6613
_cell_angle_alpha    90
_cell_angle_beta     90
_cell_angle_gamma    90

_symmetry_space_group_name_H-M    "P 1"
_symmetry_int_tables_number       1

loop_
  _symmetry_equiv_pos_as_xyz
  'x, y, z'

loop_
  _atom_site_label
  _atom_site_occupancy
  _atom_site_fract_x
  _atom_site_fract_y
  _atom_site_fract_z
  _atom_site_thermal_displace_type
  _atom_site_B_iso_or_equiv
  _atom_site_type_symbol
  Cu1      1.0000 0.25000  0.25000  0.48440  Biso   1.000  Cu
  Cu2      1.0000 0.75000  0.75000  0.01560  Biso   1.000  Cu
  Cu3      1.0000 0.75000  0.75000  0.51560  Biso   1.000  Cu
  Cu4      1.0000 0.25000  0.25000  0.98440  Biso   1.000  Cu
  O1       1.0000 0.33560  0.45000  0.48570  Biso   1.000  O
  O2       1.0000 0.16440  0.05000  0.48570  Biso   1.000  O
  O3       1.0000 0.66440  0.95000  0.01430  Biso   1.000  O
  O4       1.0000 0.83560  0.55000  0.01430  Biso   1.000  O
  O5       1.0000 0.66440  0.55000  0.51430  Biso   1.000  O
  O6       1.0000 0.83560  0.95000  0.51430  Biso   1.000  O
  O7       1.0000 0.33560  0.05000  0.98570  Biso   1.000  O
  O8       1.0000 0.16440  0.45000  0.98570  Biso   1.000  O
  H1       1.0000 0.37980  0.43380  0.49050  Biso   1.000  H
  H2       1.0000 0.12020  0.06620  0.49050  Biso   1.000  H
  H3       1.0000 0.62020  0.93380  0.00950  Biso   1.000  H
  H4       1.0000 0.87980  0.56620  0.00950  Biso   1.000  H
  H5       1.0000 0.62020  0.56620  0.50950  Biso   1.000  H
  H6       1.0000 0.87980  0.93380  0.50950  Biso   1.000  H
  H7       1.0000 0.37980  0.06620  0.99050  Biso   1.000  H
  H8       1.0000 0.12020  0.43380  0.99050  Biso   1.000  H
  H9       1.0000 0.32260  0.53600  0.52920  Biso   1.000  H
  H10      1.0000 0.17740  0.96400  0.52920  Biso   1.000  H
  H11      1.0000 0.67740  0.03600  0.97080  Biso   1.000  H
  H12      1.0000 0.82260  0.46400  0.97080  Biso   1.000  H
  H13      1.0000 0.67740  0.46400  0.47080  Biso   1.000  H
  H14      1.0000 0.82260  0.03600  0.47080  Biso   1.000  H
  H15      1.0000 0.32260  0.96400  0.02920  Biso   1.000  H
  H16      1.0000 0.17740  0.53600  0.02920  Biso   1.000  H
  N1       1.0000 0.31660  0.06940  0.48610  Biso   1.000  N
  N2       1.0000 0.18340  0.43060  0.48610  Biso   1.000  N
  N3       1.0000 0.68340  0.56940  0.01390  Biso   1.000  N
  N4       1.0000 0.81660  0.93060  0.01390  Biso   1.000  N
  N5       1.0000 0.68340  0.93060  0.51390  Biso   1.000  N
  N6       1.0000 0.81660  0.56940  0.51390  Biso   1.000  N
  N7       1.0000 0.31660  0.43060  0.98610  Biso   1.000  N
  N8       1.0000 0.18340  0.06940  0.98610  Biso   1.000  N
  N9       1.0000 0.36240  0.16050  0.63560  Biso   1.000  N
  N10      1.0000 0.13760  0.33950  0.63560  Biso   1.000  N
  N11      1.0000 0.63760  0.66050  0.86440  Biso   1.000  N
  N12      1.0000 0.86240  0.83950  0.86440  Biso   1.000  N
  N13      1.0000 0.63760  0.83950  0.36440  Biso   1.000  N
  N14      1.0000 0.86240  0.66050  0.36440  Biso   1.000  N
  N15      1.0000 0.36240  0.33950  0.13560  Biso   1.000  N
  N16      1.0000 0.13760  0.16050  0.13560  Biso   1.000  N
  H17      1.0000 0.40090  0.19370  0.66000  Biso   1.000  H
  H18      1.0000 0.09910  0.30630  0.66000  Biso   1.000  H
  H19      1.0000 0.59910  0.69370  0.84000  Biso   1.000  H
  H20      1.0000 0.90090  0.80630  0.84000  Biso   1.000  H
  H21      1.0000 0.59910  0.80630  0.34000  Biso   1.000  H
  H22      1.0000 0.90090  0.69370  0.34000  Biso   1.000  H
  H23      1.0000 0.40090  0.30630  0.16000  Biso   1.000  H
  H24      1.0000 0.09910  0.19370  0.16000  Biso   1.000  H
  N17      1.0000 0.25000  0.25000  0.63090  Biso   1.000  N
  N18      1.0000 0.75000  0.75000  0.86910  Biso   1.000  N
  N19      1.0000 0.75000  0.75000  0.36910  Biso   1.000  N
  N20      1.0000 0.25000  0.25000  0.13090  Biso   1.000  N
  N21      1.0000 0.42250  0.85130  0.47060  Biso   1.000  N
  N22      1.0000 0.07750  0.64870  0.47060  Biso   1.000  N
  N23      1.0000 0.57750  0.35130  0.02940  Biso   1.000  N
  N24      1.0000 0.92250  0.14870  0.02940  Biso   1.000  N
  N25      1.0000 0.57750  0.14870  0.52940  Biso   1.000  N
  N26      1.0000 0.92250  0.35130  0.52940  Biso   1.000  N
  N27      1.0000 0.42250  0.64870  0.97060  Biso   1.000  N
  N28      1.0000 0.07750  0.85130  0.97060  Biso   1.000  N
  H25      1.0000 0.45980  0.78060  0.46360  Biso   1.000  H
  H26      1.0000 0.04020  0.71940  0.46360  Biso   1.000  H
  H27      1.0000 0.54020  0.28060  0.03640  Biso   1.000  H
  H28      1.0000 0.95980  0.21940  0.03640  Biso   1.000  H
  H29      1.0000 0.54020  0.21940  0.53640  Biso   1.000  H
  H30      1.0000 0.95980  0.28060  0.53640  Biso   1.000  H
  H31      1.0000 0.45980  0.71940  0.96360  Biso   1.000  H
  H32      1.0000 0.04020  0.78060  0.96360  Biso   1.000  H
  N29      1.0000 0.25000  0.25000  0.83350  Biso   1.000  N
  N30      1.0000 0.75000  0.75000  0.66650  Biso   1.000  N
  N31      1.0000 0.75000  0.75000  0.16650  Biso   1.000  N
  N32      1.0000 0.25000  0.25000  0.33350  Biso   1.000  N
  C1       1.0000 0.31930  0.95640  0.41340  Biso   1.000  C
  C2       1.0000 0.18070  0.54360  0.41340  Biso   1.000  C
  C3       1.0000 0.68070  0.45640  0.08660  Biso   1.000  C
  C4       1.0000 0.81930  0.04360  0.08660  Biso   1.000  C
  C5       1.0000 0.68070  0.04360  0.58660  Biso   1.000  C
  C6       1.0000 0.81930  0.45640  0.58660  Biso   1.000  C
  C7       1.0000 0.31930  0.54360  0.91340  Biso   1.000  C
  C8       1.0000 0.18070  0.95640  0.91340  Biso   1.000  C
  H33      1.0000 0.28360  0.95360  0.36730  Biso   1.000  H
  H34      1.0000 0.21640  0.54640  0.36730  Biso   1.000  H
  H35      1.0000 0.71640  0.45360  0.13270  Biso   1.000  H
  H36      1.0000 0.78360  0.04640  0.13270  Biso   1.000  H
  H37      1.0000 0.71640  0.04640  0.63270  Biso   1.000  H
  H38      1.0000 0.78360  0.45360  0.63270  Biso   1.000  H
  H39      1.0000 0.28360  0.54640  0.86730  Biso   1.000  H
  H40      1.0000 0.21640  0.95360  0.86730  Biso   1.000  H
  C9       1.0000 0.36960  0.84870  0.40290  Biso   1.000  C
  C10      1.0000 0.13040  0.65130  0.40290  Biso   1.000  C
  C11      1.0000 0.63040  0.34870  0.09710  Biso   1.000  C
  C12      1.0000 0.86960  0.15130  0.09710  Biso   1.000  C
  C13      1.0000 0.63040  0.15130  0.59710  Biso   1.000  C
  C14      1.0000 0.86960  0.34870  0.59710  Biso   1.000  C
  C15      1.0000 0.36960  0.65130  0.90290  Biso   1.000  C
  C16      1.0000 0.13040  0.84870  0.90290  Biso   1.000  C
  H41      1.0000 0.36670  0.76240  0.35020  Biso   1.000  H
  H42      1.0000 0.13330  0.73760  0.35020  Biso   1.000  H
  H43      1.0000 0.63330  0.26240  0.14980  Biso   1.000  H
  H44      1.0000 0.86670  0.23760  0.14980  Biso   1.000  H
  H45      1.0000 0.63330  0.23760  0.64980  Biso   1.000  H
  H46      1.0000 0.86670  0.26240  0.64980  Biso   1.000  H
  H47      1.0000 0.36670  0.73760  0.85020  Biso   1.000  H
  H48      1.0000 0.13330  0.76240  0.85020  Biso   1.000  H
  C17      1.0000 0.41890  0.95490  0.54440  Biso   1.000  C
  C18      1.0000 0.08110  0.54510  0.54440  Biso   1.000  C
  C19      1.0000 0.58110  0.45490  0.95560  Biso   1.000  C
  C20      1.0000 0.91890  0.04510  0.95560  Biso   1.000  C
  C21      1.0000 0.58110  0.04510  0.45560  Biso   1.000  C
  C22      1.0000 0.91890  0.45490  0.45560  Biso   1.000  C
  C23      1.0000 0.41890  0.54510  0.04440  Biso   1.000  C
  C24      1.0000 0.08110  0.95490  0.04440  Biso   1.000  C
  H49      1.0000 0.45280  0.95240  0.59910  Biso   1.000  H
  H50      1.0000 0.04720  0.54760  0.59910  Biso   1.000  H
  H51      1.0000 0.54720  0.45240  0.90090  Biso   1.000  H
  H52      1.0000 0.95280  0.04760  0.90090  Biso   1.000  H
  H53      1.0000 0.54720  0.04760  0.40090  Biso   1.000  H
  H54      1.0000 0.95280  0.45240  0.40090  Biso   1.000  H
  H55      1.0000 0.45280  0.54760  0.09910  Biso   1.000  H
  H56      1.0000 0.04720  0.95240  0.09910  Biso   1.000  H
  C25      1.0000 0.36490  0.06310  0.55370  Biso   1.000  C
  C26      1.0000 0.13510  0.43690  0.55370  Biso   1.000  C
  C27      1.0000 0.63510  0.56310  0.94630  Biso   1.000  C
  C28      1.0000 0.86490  0.93690  0.94630  Biso   1.000  C
  C29      1.0000 0.63510  0.93690  0.44630  Biso   1.000  C
  C30      1.0000 0.86490  0.56310  0.44630  Biso   1.000  C
  C31      1.0000 0.36490  0.43690  0.05370  Biso   1.000  C
  C32      1.0000 0.13510  0.06310  0.05370  Biso   1.000  C
  C33      1.0000 0.30510  0.21050  0.68230  Biso   1.000  C
  C34      1.0000 0.19490  0.28950  0.68230  Biso   1.000  C
  C35      1.0000 0.69490  0.71050  0.81770  Biso   1.000  C
  C36      1.0000 0.80510  0.78950  0.81770  Biso   1.000  C
  C37      1.0000 0.69490  0.78950  0.31770  Biso   1.000  C
  C38      1.0000 0.80510  0.71050  0.31770  Biso   1.000  C
  C39      1.0000 0.30510  0.28950  0.18230  Biso   1.000  C
  C40      1.0000 0.19490  0.21050  0.18230  Biso   1.000  C
  C41      1.0000 0.30530  0.21410  0.78460  Biso   1.000  C
  C42      1.0000 0.19470  0.28590  0.78460  Biso   1.000  C
  C43      1.0000 0.69470  0.71410  0.71540  Biso   1.000  C
  C44      1.0000 0.80530  0.78590  0.71540  Biso   1.000  C
  C45      1.0000 0.69470  0.78590  0.21540  Biso   1.000  C
  C46      1.0000 0.80530  0.71410  0.21540  Biso   1.000  C
  C47      1.0000 0.30530  0.28590  0.28460  Biso   1.000  C
  C48      1.0000 0.19470  0.21410  0.28460  Biso   1.000  C
  H57      1.0000 0.34550  0.19050  0.81920  Biso   1.000  H
  H58      1.0000 0.15450  0.30950  0.81920  Biso   1.000  H
  H59      1.0000 0.65450  0.69050  0.68080  Biso   1.000  H
  H60      1.0000 0.84550  0.80950  0.68080  Biso   1.000  H
  H61      1.0000 0.65450  0.80950  0.18080  Biso   1.000  H
  H62      1.0000 0.84550  0.69050  0.18080  Biso   1.000  H
  H63      1.0000 0.34550  0.30950  0.31920  Biso   1.000  H
  H64      1.0000 0.15450  0.19050  0.31920  Biso   1.000  H
  Cl1      1.0000 0.25000  0.75000  0.66911  Biso   1.000  Cl
  Cl2      1.0000 0.75000  0.25000  0.83089  Biso   1.000  Cl
  Cl3      1.0000 0.75000  0.25000  0.33089  Biso   1.000  Cl
  Cl4      1.0000 0.25000  0.75000  0.16911  Biso   1.000  Cl
  O9       1.0000 0.29390  0.83300  0.72600  Biso   1.000  O
  O10      1.0000 0.20610  0.66700  0.72600  Biso   1.000  O
  O11      1.0000 0.70610  0.33300  0.77400  Biso   1.000  O
  O12      1.0000 0.79390  0.16700  0.77400  Biso   1.000  O
  O13      1.0000 0.70610  0.16700  0.27400  Biso   1.000  O
  O14      1.0000 0.79390  0.33300  0.27400  Biso   1.000  O
  O15      1.0000 0.29390  0.66700  0.22600  Biso   1.000  O
  O16      1.0000 0.20610  0.83300  0.22600  Biso   1.000  O
  O17      1.0000 0.27620  0.72890  0.57260  Biso   1.000  O
  O18      1.0000 0.22380  0.77110  0.57260  Biso   1.000  O
  O19      1.0000 0.72380  0.22890  0.92740  Biso   1.000  O
  O20      1.0000 0.77620  0.27110  0.92740  Biso   1.000  O
  O21      1.0000 0.72380  0.27110  0.42740  Biso   1.000  O
  O22      1.0000 0.77620  0.22890  0.42740  Biso   1.000  O
  O23      1.0000 0.27620  0.77110  0.07260  Biso   1.000  O
  O24      1.0000 0.22380  0.72890  0.07260  Biso   1.000  O
  O25      1.0000 0.19460  0.87430  0.66040  Biso   1.000  O
  O26      1.0000 0.30540  0.62570  0.66040  Biso   1.000  O
  O27      1.0000 0.80540  0.37430  0.83960  Biso   1.000  O
  O28      1.0000 0.69460  0.12570  0.83960  Biso   1.000  O
  O29      1.0000 0.80540  0.12570  0.33960  Biso   1.000  O
  O30      1.0000 0.69460  0.37430  0.33960  Biso   1.000  O
  O31      1.0000 0.19460  0.62570  0.16040  Biso   1.000  O
  O32      1.0000 0.30540  0.87430  0.16040  Biso   1.000  O
  O33      1.0000 0.22210  0.62050  0.71760  Biso   1.000  O
  O34      1.0000 0.27790  0.87950  0.71760  Biso   1.000  O
  O35      1.0000 0.77790  0.12050  0.78240  Biso   1.000  O
  O36      1.0000 0.72210  0.37950  0.78240  Biso   1.000  O
  O37      1.0000 0.77790  0.37950  0.28240  Biso   1.000  O
  O38      1.0000 0.72210  0.12050  0.28240  Biso   1.000  O
  O39      1.0000 0.22210  0.87950  0.21760  Biso   1.000  O
  O40      1.0000 0.27790  0.62050  0.21760  Biso   1.000  O
  Cl5      1.0000 0.49320  0.08730  0.83010  Biso   1.000  Cl
  Cl6      1.0000 0.00680  0.41270  0.83010  Biso   1.000  Cl
  Cl7      1.0000 0.50680  0.58730  0.66990  Biso   1.000  Cl
  Cl8      1.0000 0.99320  0.91270  0.66990  Biso   1.000  Cl
  Cl9      1.0000 0.50680  0.91270  0.16990  Biso   1.000  Cl
  Cl10     1.0000 0.99320  0.58730  0.16990  Biso   1.000  Cl
  Cl11     1.0000 0.49320  0.41270  0.33010  Biso   1.000  Cl
  Cl12     1.0000 0.00680  0.08730  0.33010  Biso   1.000  Cl
  O41      1.0000 0.48300  0.18660  0.75520  Biso   1.000  O
  O42      1.0000 0.01700  0.31340  0.75520  Biso   1.000  O
  O43      1.0000 0.51700  0.68660  0.74480  Biso   1.000  O
  O44      1.0000 0.98300  0.81340  0.74480  Biso   1.000  O
  O45      1.0000 0.51700  0.81340  0.24480  Biso   1.000  O
  O46      1.0000 0.98300  0.68660  0.24480  Biso   1.000  O
  O47      1.0000 0.48300  0.31340  0.25520  Biso   1.000  O
  O48      1.0000 0.01700  0.18660  0.25520  Biso   1.000  O
  O49      1.0000 0.46550  0.15250  0.92950  Biso   1.000  O
  O50      1.0000 0.03450  0.34750  0.92950  Biso   1.000  O
  O51      1.0000 0.53450  0.65250  0.57050  Biso   1.000  O
  O52      1.0000 0.96550  0.84750  0.57050  Biso   1.000  O
  O53      1.0000 0.53450  0.84750  0.07050  Biso   1.000  O
  O54      1.0000 0.96550  0.65250  0.07050  Biso   1.000  O
  O55      1.0000 0.46550  0.34750  0.42950  Biso   1.000  O
  O56      1.0000 0.03450  0.15250  0.42950  Biso   1.000  O
  O57      1.0000 0.56030  0.03800  0.84220  Biso   1.000  O
  O58      1.0000 0.93970  0.46200  0.84220  Biso   1.000  O
  O59      1.0000 0.43970  0.53800  0.65780  Biso   1.000  O
  O60      1.0000 0.06030  0.96200  0.65780  Biso   1.000  O
  O61      1.0000 0.43970  0.96200  0.15780  Biso   1.000  O
  O62      1.0000 0.06030  0.53800  0.15780  Biso   1.000  O
  O63      1.0000 0.56030  0.46200  0.34220  Biso   1.000  O
  O64      1.0000 0.93970  0.03800  0.34220  Biso   1.000  O
  O65      1.0000 0.45380  0.97000  0.79050  Biso   1.000  O
  O66      1.0000 0.04620  0.53000  0.79050  Biso   1.000  O
  O67      1.0000 0.54620  0.47000  0.70950  Biso   1.000  O
  O68      1.0000 0.95380  0.03000  0.70950  Biso   1.000  O
  O69      1.0000 0.54620  0.03000  0.20950  Biso   1.000  O
  O70      1.0000 0.95380  0.47000  0.20950  Biso   1.000  O
  O71      1.0000 0.45380  0.53000  0.29050  Biso   1.000  O
  O72      1.0000 0.04620  0.97000  0.29050  Biso   1.000  O
