data_image0
_cell_length_a       20.8397
_cell_length_b       8.2339
_cell_length_c       13.6452
_cell_angle_alpha    90
_cell_angle_beta     90
_cell_angle_gamma    90

_symmetry_space_group_name_H-M    "P 1"
_symmetry_int_tables_number       1

loop_
  _symmetry_equiv_pos_as_xyz
  'x, y, z'

loop_
  _atom_site_label
  _atom_site_occupancy
  _atom_site_fract_x
  _atom_site_fract_y
  _atom_site_fract_z
  _atom_site_thermal_displace_type
  _atom_site_B_iso_or_equiv
  _atom_site_type_symbol
  Cu1      1.0000 0.75000  0.00000  0.41807  Biso   1.000  Cu
  Cu2      1.0000 0.25000  0.00000  0.08193  Biso   1.000  Cu
  Cu3      1.0000 0.25000  0.00000  0.58193  Biso   1.000  Cu
  Cu4      1.0000 0.75000  0.00000  0.91807  Biso   1.000  Cu
  O1       1.0000 0.67230  0.21490  0.41900  Biso   1.000  O
  O2       1.0000 0.82770  0.78510  0.41900  Biso   1.000  O
  O3       1.0000 0.32770  0.21490  0.08100  Biso   1.000  O
  O4       1.0000 0.17230  0.78510  0.08100  Biso   1.000  O
  O5       1.0000 0.32770  0.78510  0.58100  Biso   1.000  O
  O6       1.0000 0.17230  0.21490  0.58100  Biso   1.000  O
  O7       1.0000 0.67230  0.78510  0.91900  Biso   1.000  O
  O8       1.0000 0.82770  0.21490  0.91900  Biso   1.000  O
  H1       1.0000 0.68100  0.29440  0.42580  Biso   1.000  H
  H2       1.0000 0.81900  0.70560  0.42580  Biso   1.000  H
  H3       1.0000 0.31900  0.29440  0.07420  Biso   1.000  H
  H4       1.0000 0.18100  0.70560  0.07420  Biso   1.000  H
  H5       1.0000 0.31900  0.70560  0.57420  Biso   1.000  H
  H6       1.0000 0.18100  0.29440  0.57420  Biso   1.000  H
  H7       1.0000 0.68100  0.70560  0.92580  Biso   1.000  H
  H8       1.0000 0.81900  0.29440  0.92580  Biso   1.000  H
  N1       1.0000 0.81620  0.17140  0.41890  Biso   1.000  N
  N2       1.0000 0.68380  0.82860  0.41890  Biso   1.000  N
  N3       1.0000 0.18380  0.17140  0.08110  Biso   1.000  N
  N4       1.0000 0.31620  0.82860  0.08110  Biso   1.000  N
  N5       1.0000 0.18380  0.82860  0.58110  Biso   1.000  N
  N6       1.0000 0.31620  0.17140  0.58110  Biso   1.000  N
  N7       1.0000 0.81620  0.82860  0.91890  Biso   1.000  N
  N8       1.0000 0.68380  0.17140  0.91890  Biso   1.000  N
  N9       1.0000 0.85910  0.07910  0.56950  Biso   1.000  N
  N10      1.0000 0.64090  0.92090  0.56950  Biso   1.000  N
  N11      1.0000 0.14090  0.07910  0.93050  Biso   1.000  N
  N12      1.0000 0.35910  0.92090  0.93050  Biso   1.000  N
  N13      1.0000 0.14090  0.92090  0.43050  Biso   1.000  N
  N14      1.0000 0.35910  0.07910  0.43050  Biso   1.000  N
  N15      1.0000 0.85910  0.92090  0.06950  Biso   1.000  N
  N16      1.0000 0.64090  0.07910  0.06950  Biso   1.000  N
  N17      1.0000 0.75000  0.00000  0.56430  Biso   1.000  N
  N18      1.0000 0.25000  0.00000  0.93570  Biso   1.000  N
  N19      1.0000 0.25000  0.00000  0.43570  Biso   1.000  N
  N20      1.0000 0.75000  0.00000  0.06430  Biso   1.000  N
  N21      1.0000 0.75000  0.00000  0.76960  Biso   1.000  N
  N22      1.0000 0.25000  0.00000  0.73040  Biso   1.000  N
  N23      1.0000 0.25000  0.00000  0.23040  Biso   1.000  N
  N24      1.0000 0.75000  0.00000  0.26960  Biso   1.000  N
  C1       1.0000 0.82310  0.28160  0.34730  Biso   1.000  C
  C2       1.0000 0.67690  0.71840  0.34730  Biso   1.000  C
  C3       1.0000 0.17690  0.28160  0.15270  Biso   1.000  C
  C4       1.0000 0.32310  0.71840  0.15270  Biso   1.000  C
  C5       1.0000 0.17690  0.71840  0.65270  Biso   1.000  C
  C6       1.0000 0.32310  0.28160  0.65270  Biso   1.000  C
  C7       1.0000 0.82310  0.71840  0.84730  Biso   1.000  C
  C8       1.0000 0.67690  0.28160  0.84730  Biso   1.000  C
  H9       1.0000 0.78860  0.29330  0.30230  Biso   1.000  H
  H10      1.0000 0.71140  0.70670  0.30230  Biso   1.000  H
  H11      1.0000 0.21140  0.29330  0.19770  Biso   1.000  H
  H12      1.0000 0.28860  0.70670  0.19770  Biso   1.000  H
  H13      1.0000 0.21140  0.70670  0.69770  Biso   1.000  H
  H14      1.0000 0.28860  0.29330  0.69770  Biso   1.000  H
  H15      1.0000 0.78860  0.70670  0.80230  Biso   1.000  H
  H16      1.0000 0.71140  0.29330  0.80230  Biso   1.000  H
  C9       1.0000 0.87480  0.37690  0.33380  Biso   1.000  C
  C10      1.0000 0.62520  0.62310  0.33380  Biso   1.000  C
  C11      1.0000 0.12520  0.37690  0.16620  Biso   1.000  C
  C12      1.0000 0.37480  0.62310  0.16620  Biso   1.000  C
  C13      1.0000 0.12520  0.62310  0.66620  Biso   1.000  C
  C14      1.0000 0.37480  0.37690  0.66620  Biso   1.000  C
  C15      1.0000 0.87480  0.62310  0.83380  Biso   1.000  C
  C16      1.0000 0.62520  0.37690  0.83380  Biso   1.000  C
  H17      1.0000 0.87560  0.45240  0.28120  Biso   1.000  H
  H18      1.0000 0.62440  0.54760  0.28120  Biso   1.000  H
  H19      1.0000 0.12440  0.45240  0.21880  Biso   1.000  H
  H20      1.0000 0.37560  0.54760  0.21880  Biso   1.000  H
  H21      1.0000 0.12440  0.54760  0.71880  Biso   1.000  H
  H22      1.0000 0.37560  0.45240  0.71880  Biso   1.000  H
  H23      1.0000 0.87560  0.54760  0.78120  Biso   1.000  H
  H24      1.0000 0.62440  0.45240  0.78120  Biso   1.000  H
  C17      1.0000 0.92710  0.36490  0.39660  Biso   1.000  C
  C18      1.0000 0.57290  0.63510  0.39660  Biso   1.000  C
  C19      1.0000 0.07290  0.36490  0.10340  Biso   1.000  C
  C20      1.0000 0.42710  0.63510  0.10340  Biso   1.000  C
  C21      1.0000 0.07290  0.63510  0.60340  Biso   1.000  C
  C22      1.0000 0.42710  0.36490  0.60340  Biso   1.000  C
  C23      1.0000 0.92710  0.63510  0.89660  Biso   1.000  C
  C24      1.0000 0.57290  0.36490  0.89660  Biso   1.000  C
  C25      1.0000 0.92080  0.26440  0.47340  Biso   1.000  C
  C26      1.0000 0.57920  0.73560  0.47340  Biso   1.000  C
  C27      1.0000 0.07920  0.26440  0.02660  Biso   1.000  C
  C28      1.0000 0.42080  0.73560  0.02660  Biso   1.000  C
  C29      1.0000 0.07920  0.73560  0.52660  Biso   1.000  C
  C30      1.0000 0.42080  0.26440  0.52660  Biso   1.000  C
  C31      1.0000 0.92080  0.73560  0.97340  Biso   1.000  C
  C32      1.0000 0.57920  0.26440  0.97340  Biso   1.000  C
  H25      1.0000 0.95450  0.25540  0.51990  Biso   1.000  H
  H26      1.0000 0.54550  0.74460  0.51990  Biso   1.000  H
  H27      1.0000 0.04550  0.25540  0.98010  Biso   1.000  H
  H28      1.0000 0.45450  0.74460  0.98010  Biso   1.000  H
  H29      1.0000 0.04550  0.74460  0.48010  Biso   1.000  H
  H30      1.0000 0.45450  0.25540  0.48010  Biso   1.000  H
  H31      1.0000 0.95450  0.74460  0.01990  Biso   1.000  H
  H32      1.0000 0.54550  0.25540  0.01990  Biso   1.000  H
  C33      1.0000 0.86420  0.17170  0.48530  Biso   1.000  C
  C34      1.0000 0.63580  0.82830  0.48530  Biso   1.000  C
  C35      1.0000 0.13580  0.17170  0.01470  Biso   1.000  C
  C36      1.0000 0.36420  0.82830  0.01470  Biso   1.000  C
  C37      1.0000 0.13580  0.82830  0.51470  Biso   1.000  C
  C38      1.0000 0.36420  0.17170  0.51470  Biso   1.000  C
  C39      1.0000 0.86420  0.82830  0.98530  Biso   1.000  C
  C40      1.0000 0.63580  0.17170  0.98530  Biso   1.000  C
  C41      1.0000 0.80290  0.03650  0.61640  Biso   1.000  C
  C42      1.0000 0.69710  0.96350  0.61640  Biso   1.000  C
  C43      1.0000 0.19710  0.03650  0.88360  Biso   1.000  C
  C44      1.0000 0.30290  0.96350  0.88360  Biso   1.000  C
  C45      1.0000 0.19710  0.96350  0.38360  Biso   1.000  C
  C46      1.0000 0.30290  0.03650  0.38360  Biso   1.000  C
  C47      1.0000 0.80290  0.96350  0.11640  Biso   1.000  C
  C48      1.0000 0.69710  0.03650  0.11640  Biso   1.000  C
  C49      1.0000 0.80220  0.03720  0.71760  Biso   1.000  C
  C50      1.0000 0.69780  0.96280  0.71760  Biso   1.000  C
  C51      1.0000 0.19780  0.03720  0.78240  Biso   1.000  C
  C52      1.0000 0.30220  0.96280  0.78240  Biso   1.000  C
  C53      1.0000 0.19780  0.96280  0.28240  Biso   1.000  C
  C54      1.0000 0.30220  0.03720  0.28240  Biso   1.000  C
  C55      1.0000 0.80220  0.96280  0.21760  Biso   1.000  C
  C56      1.0000 0.69780  0.03720  0.21760  Biso   1.000  C
  H33      1.0000 0.84040  0.06530  0.75150  Biso   1.000  H
  H34      1.0000 0.65960  0.93470  0.75150  Biso   1.000  H
  H35      1.0000 0.15960  0.06530  0.74850  Biso   1.000  H
  H36      1.0000 0.34040  0.93470  0.74850  Biso   1.000  H
  H37      1.0000 0.15960  0.93470  0.24850  Biso   1.000  H
  H38      1.0000 0.34040  0.06530  0.24850  Biso   1.000  H
  H39      1.0000 0.84040  0.93470  0.25150  Biso   1.000  H
  H40      1.0000 0.65960  0.06530  0.25150  Biso   1.000  H
  C57      1.0000 0.99410  0.41900  0.36900  Biso   1.000  C
  C58      1.0000 0.50590  0.58100  0.36900  Biso   1.000  C
  C59      1.0000 0.00590  0.41900  0.13100  Biso   1.000  C
  C60      1.0000 0.49410  0.58100  0.13100  Biso   1.000  C
  C61      1.0000 0.00590  0.58100  0.63100  Biso   1.000  C
  C62      1.0000 0.49410  0.41900  0.63100  Biso   1.000  C
  C63      1.0000 0.99410  0.58100  0.86900  Biso   1.000  C
  C64      1.0000 0.50590  0.41900  0.86900  Biso   1.000  C
  H41      1.0000 0.00430  0.37950  0.30260  Biso   1.000  H
  H42      1.0000 0.49570  0.62050  0.30260  Biso   1.000  H
  H43      1.0000 0.99570  0.37950  0.19740  Biso   1.000  H
  H44      1.0000 0.50430  0.62050  0.19740  Biso   1.000  H
  H45      1.0000 0.99570  0.62050  0.69740  Biso   1.000  H
  H46      1.0000 0.50430  0.37950  0.69740  Biso   1.000  H
  H47      1.0000 0.00430  0.62050  0.80260  Biso   1.000  H
  H48      1.0000 0.49570  0.37950  0.80260  Biso   1.000  H
  H49      1.0000 0.02520  0.37460  0.41540  Biso   1.000  H
  H50      1.0000 0.47480  0.62540  0.41540  Biso   1.000  H
  H51      1.0000 0.97480  0.37460  0.08460  Biso   1.000  H
  H52      1.0000 0.52520  0.62540  0.08460  Biso   1.000  H
  H53      1.0000 0.97480  0.62540  0.58460  Biso   1.000  H
  H54      1.0000 0.52520  0.37460  0.58460  Biso   1.000  H
  H55      1.0000 0.02520  0.62540  0.91540  Biso   1.000  H
  H56      1.0000 0.47480  0.37460  0.91540  Biso   1.000  H
  H57      1.0000 0.99630  0.53790  0.36950  Biso   1.000  H
  H58      1.0000 0.50370  0.46210  0.36950  Biso   1.000  H
  H59      1.0000 0.00370  0.53790  0.13050  Biso   1.000  H
  H60      1.0000 0.49630  0.46210  0.13050  Biso   1.000  H
  H61      1.0000 0.00370  0.46210  0.63050  Biso   1.000  H
  H62      1.0000 0.49630  0.53790  0.63050  Biso   1.000  H
  H63      1.0000 0.99630  0.46210  0.86950  Biso   1.000  H
  H64      1.0000 0.50370  0.53790  0.86950  Biso   1.000  H
  C65      1.0000 0.60810  0.23000  0.44900  Biso   1.000  C
  C66      1.0000 0.89190  0.77000  0.44900  Biso   1.000  C
  C67      1.0000 0.39190  0.23000  0.05100  Biso   1.000  C
  C68      1.0000 0.10810  0.77000  0.05100  Biso   1.000  C
  C69      1.0000 0.39190  0.77000  0.55100  Biso   1.000  C
  C70      1.0000 0.10810  0.23000  0.55100  Biso   1.000  C
  C71      1.0000 0.60810  0.77000  0.94900  Biso   1.000  C
  C72      1.0000 0.89190  0.23000  0.94900  Biso   1.000  C
  H65      1.0000 0.58850  0.32300  0.41520  Biso   1.000  H
  H66      1.0000 0.91150  0.67700  0.41520  Biso   1.000  H
  H67      1.0000 0.41150  0.32300  0.08480  Biso   1.000  H
  H68      1.0000 0.08850  0.67700  0.08480  Biso   1.000  H
  H69      1.0000 0.41150  0.67700  0.58480  Biso   1.000  H
  H70      1.0000 0.08850  0.32300  0.58480  Biso   1.000  H
  H71      1.0000 0.58850  0.67700  0.91520  Biso   1.000  H
  H72      1.0000 0.91150  0.32300  0.91520  Biso   1.000  H
  H73      1.0000 0.60640  0.24750  0.51970  Biso   1.000  H
  H74      1.0000 0.89360  0.75250  0.51970  Biso   1.000  H
  H75      1.0000 0.39360  0.24750  0.98030  Biso   1.000  H
  H76      1.0000 0.10640  0.75250  0.98030  Biso   1.000  H
  H77      1.0000 0.39360  0.75250  0.48030  Biso   1.000  H
  H78      1.0000 0.10640  0.24750  0.48030  Biso   1.000  H
  H79      1.0000 0.60640  0.75250  0.01970  Biso   1.000  H
  H80      1.0000 0.89360  0.24750  0.01970  Biso   1.000  H
  H81      1.0000 0.58470  0.13090  0.43200  Biso   1.000  H
  H82      1.0000 0.91530  0.86910  0.43200  Biso   1.000  H
  H83      1.0000 0.41530  0.13090  0.06800  Biso   1.000  H
  H84      1.0000 0.08470  0.86910  0.06800  Biso   1.000  H
  H85      1.0000 0.41530  0.86910  0.56800  Biso   1.000  H
  H86      1.0000 0.08470  0.13090  0.56800  Biso   1.000  H
  H87      1.0000 0.58470  0.86910  0.93200  Biso   1.000  H
  H88      1.0000 0.91530  0.13090  0.93200  Biso   1.000  H
  Cl1      1.0000 0.48940  0.08490  0.22700  Biso   1.000  Cl
  Cl2      1.0000 0.01060  0.91510  0.22700  Biso   1.000  Cl
  Cl3      1.0000 0.51060  0.08490  0.27300  Biso   1.000  Cl
  Cl4      1.0000 0.98940  0.91510  0.27300  Biso   1.000  Cl
  Cl5      1.0000 0.51060  0.91510  0.77300  Biso   1.000  Cl
  Cl6      1.0000 0.98940  0.08490  0.77300  Biso   1.000  Cl
  Cl7      1.0000 0.48940  0.91510  0.72700  Biso   1.000  Cl
  Cl8      1.0000 0.01060  0.08490  0.72700  Biso   1.000  Cl
  O9       1.0000 0.44460  0.17700  0.27130  Biso   1.000  O
  O10      1.0000 0.05540  0.82300  0.27130  Biso   1.000  O
  O11      1.0000 0.55540  0.17700  0.22870  Biso   1.000  O
  O12      1.0000 0.94460  0.82300  0.22870  Biso   1.000  O
  O13      1.0000 0.55540  0.82300  0.72870  Biso   1.000  O
  O14      1.0000 0.94460  0.17700  0.72870  Biso   1.000  O
  O15      1.0000 0.44460  0.82300  0.77130  Biso   1.000  O
  O16      1.0000 0.05540  0.17700  0.77130  Biso   1.000  O
  O17      1.0000 0.53580  0.18800  0.19600  Biso   1.000  O
  O18      1.0000 0.96420  0.81200  0.19600  Biso   1.000  O
  O19      1.0000 0.46420  0.18800  0.30400  Biso   1.000  O
  O20      1.0000 0.03580  0.81200  0.30400  Biso   1.000  O
  O21      1.0000 0.46420  0.81200  0.80400  Biso   1.000  O
  O22      1.0000 0.03580  0.18800  0.80400  Biso   1.000  O
  O23      1.0000 0.53580  0.81200  0.69600  Biso   1.000  O
  O24      1.0000 0.96420  0.18800  0.69600  Biso   1.000  O
  O25      1.0000 0.53400  0.96300  0.23800  Biso   1.000  O
  O26      1.0000 0.96600  0.03700  0.23800  Biso   1.000  O
  O27      1.0000 0.46600  0.96300  0.26200  Biso   1.000  O
  O28      1.0000 0.03400  0.03700  0.26200  Biso   1.000  O
  O29      1.0000 0.46600  0.03700  0.76200  Biso   1.000  O
  O30      1.0000 0.03400  0.96300  0.76200  Biso   1.000  O
  O31      1.0000 0.53400  0.03700  0.73800  Biso   1.000  O
  O32      1.0000 0.96600  0.96300  0.73800  Biso   1.000  O
  O33      1.0000 0.46000  0.05100  0.14110  Biso   1.000  O
  O34      1.0000 0.04000  0.94900  0.14110  Biso   1.000  O
  O35      1.0000 0.54000  0.05100  0.35890  Biso   1.000  O
  O36      1.0000 0.96000  0.94900  0.35890  Biso   1.000  O
  O37      1.0000 0.54000  0.94900  0.85890  Biso   1.000  O
  O38      1.0000 0.96000  0.05100  0.85890  Biso   1.000  O
  O39      1.0000 0.46000  0.94900  0.64110  Biso   1.000  O
  O40      1.0000 0.04000  0.05100  0.64110  Biso   1.000  O
  Cl9      1.0000 0.75000  0.50000  0.60350  Biso   1.000  Cl
  Cl10     1.0000 0.25000  0.50000  0.89650  Biso   1.000  Cl
  Cl11     1.0000 0.25000  0.50000  0.39650  Biso   1.000  Cl
  Cl12     1.0000 0.75000  0.50000  0.10350  Biso   1.000  Cl
  O41      1.0000 0.75000  0.50000  0.50250  Biso   1.000  O
  O42      1.0000 0.25000  0.50000  0.99750  Biso   1.000  O
  O43      1.0000 0.25000  0.50000  0.49750  Biso   1.000  O
  O44      1.0000 0.75000  0.50000  0.00250  Biso   1.000  O
  O45      1.0000 0.70240  0.57400  0.64600  Biso   1.000  O
  O46      1.0000 0.79760  0.42600  0.64600  Biso   1.000  O
  O47      1.0000 0.29760  0.57400  0.85400  Biso   1.000  O
  O48      1.0000 0.20240  0.42600  0.85400  Biso   1.000  O
  O49      1.0000 0.29760  0.42600  0.35400  Biso   1.000  O
  O50      1.0000 0.20240  0.57400  0.35400  Biso   1.000  O
  O51      1.0000 0.70240  0.42600  0.14600  Biso   1.000  O
  O52      1.0000 0.79760  0.57400  0.14600  Biso   1.000  O
  O53      1.0000 0.77550  0.37200  0.65700  Biso   1.000  O
  O54      1.0000 0.72450  0.62800  0.65700  Biso   1.000  O
  O55      1.0000 0.22450  0.37200  0.84300  Biso   1.000  O
  O56      1.0000 0.27550  0.62800  0.84300  Biso   1.000  O
  O57      1.0000 0.22450  0.62800  0.34300  Biso   1.000  O
  O58      1.0000 0.27550  0.37200  0.34300  Biso   1.000  O
  O59      1.0000 0.77550  0.62800  0.15700  Biso   1.000  O
  O60      1.0000 0.72450  0.37200  0.15700  Biso   1.000  O
  O61      1.0000 0.79460  0.62100  0.61220  Biso   1.000  O
  O62      1.0000 0.70540  0.37900  0.61220  Biso   1.000  O
  O63      1.0000 0.20540  0.62100  0.88780  Biso   1.000  O
  O64      1.0000 0.29460  0.37900  0.88780  Biso   1.000  O
  O65      1.0000 0.20540  0.37900  0.38780  Biso   1.000  O
  O66      1.0000 0.29460  0.62100  0.38780  Biso   1.000  O
  O67      1.0000 0.79460  0.37900  0.11220  Biso   1.000  O
  O68      1.0000 0.70540  0.62100  0.11220  Biso   1.000  O
