data_image0
_cell_length_a       8.6129
_cell_length_b       10.2663
_cell_length_c       14.8502
_cell_angle_alpha    101.594
_cell_angle_beta     91.65
_cell_angle_gamma    108.41

_symmetry_space_group_name_H-M    "P 1"
_symmetry_int_tables_number       1

loop_
  _symmetry_equiv_pos_as_xyz
  'x, y, z'

loop_
  _atom_site_label
  _atom_site_occupancy
  _atom_site_fract_x
  _atom_site_fract_y
  _atom_site_fract_z
  _atom_site_thermal_displace_type
  _atom_site_B_iso_or_equiv
  _atom_site_type_symbol
  Cu1      1.0000 0.00000  0.50000  0.50000  Biso   1.000  Cu
  O1       1.0000 0.78500  0.37840  0.51583  Biso   1.000  O
  O2       1.0000 0.21500  0.62160  0.48417  Biso   1.000  O
  O3       1.0000 0.92900  0.51400  0.37843  Biso   1.000  O
  O4       1.0000 0.07100  0.48600  0.62157  Biso   1.000  O
  O5       1.0000 0.89730  0.03050  0.62880  Biso   1.000  O
  O6       1.0000 0.10270  0.96950  0.37120  Biso   1.000  O
  O7       1.0000 0.99560  0.86520  0.71980  Biso   1.000  O
  O8       1.0000 0.00440  0.13480  0.28020  Biso   1.000  O
  O9       1.0000 0.93450  0.72290  0.57920  Biso   1.000  O
  O10      1.0000 0.06550  0.27710  0.42080  Biso   1.000  O
  O11      1.0000 0.64880  0.54790  0.89000  Biso   1.000  O
  O12      1.0000 0.35120  0.45210  0.11000  Biso   1.000  O
  O13      1.0000 0.78040  0.83100  0.93320  Biso   1.000  O
  O14      1.0000 0.21960  0.16900  0.06680  Biso   1.000  O
  O15      1.0000 0.53240  0.81490  0.97900  Biso   1.000  O
  O16      1.0000 0.46760  0.18510  0.02100  Biso   1.000  O
  C1       1.0000 0.47500  0.28250  0.58300  Biso   1.000  C
  C2       1.0000 0.52500  0.71750  0.41700  Biso   1.000  C
  H1       1.0000 0.57631  0.31448  0.62356  Biso   1.000  H
  H2       1.0000 0.42369  0.68552  0.37644  Biso   1.000  H
  H3       1.0000 0.43785  0.36271  0.58443  Biso   1.000  H
  H4       1.0000 0.56215  0.63729  0.41557  Biso   1.000  H
  C3       1.0000 0.51050  0.23030  0.48540  Biso   1.000  C
  C4       1.0000 0.48950  0.76970  0.51460  Biso   1.000  C
  H5       1.0000 0.41598  0.21632  0.44293  Biso   1.000  H
  H6       1.0000 0.58402  0.78368  0.55707  Biso   1.000  H
  H7       1.0000 0.52653  0.13988  0.48080  Biso   1.000  H
  H8       1.0000 0.47347  0.86012  0.51920  Biso   1.000  H
  C5       1.0000 0.66160  0.33150  0.45670  Biso   1.000  C
  C6       1.0000 0.33840  0.66850  0.54330  Biso   1.000  C
  C7       1.0000 0.65560  0.36290  0.37120  Biso   1.000  C
  C8       1.0000 0.34440  0.63710  0.62880  Biso   1.000  C
  H9       1.0000 0.55735  0.32073  0.33323  Biso   1.000  H
  H10      1.0000 0.44265  0.67927  0.66677  Biso   1.000  H
  C9       1.0000 0.78670  0.45380  0.33720  Biso   1.000  C
  C10      1.0000 0.21330  0.54620  0.66280  Biso   1.000  C
  C11      1.0000 0.75540  0.49220  0.24660  Biso   1.000  C
  C12      1.0000 0.24460  0.50780  0.75340  Biso   1.000  C
  H11      1.0000 0.72333  0.57601  0.26007  Biso   1.000  H
  H12      1.0000 0.27667  0.42399  0.73993  Biso   1.000  H
  H13      1.0000 0.66286  0.41670  0.21061  Biso   1.000  H
  H14      1.0000 0.33714  0.58330  0.78939  Biso   1.000  H
  C13      1.0000 0.89820  0.51920  0.18700  Biso   1.000  C
  C14      1.0000 0.10180  0.48080  0.81300  Biso   1.000  C
  H15      1.0000 0.99978  0.57206  0.22610  Biso   1.000  H
  H16      1.0000 0.00022  0.42794  0.77390  Biso   1.000  H
  H17      1.0000 0.90752  0.43004  0.15537  Biso   1.000  H
  H18      1.0000 0.09248  0.56996  0.84463  Biso   1.000  H
  C15      1.0000 0.34650  0.17200  0.61980  Biso   1.000  C
  C16      1.0000 0.65350  0.82800  0.38020  Biso   1.000  C
  C17      1.0000 0.18050  0.15530  0.60480  Biso   1.000  C
  C18      1.0000 0.81950  0.84470  0.39520  Biso   1.000  C
  H19      1.0000 0.14858  0.21309  0.57261  Biso   1.000  H
  H20      1.0000 0.85142  0.78691  0.42739  Biso   1.000  H
  C19      1.0000 0.06130  0.05310  0.63740  Biso   1.000  C
  C20      1.0000 0.93870  0.94690  0.36260  Biso   1.000  C
  C21      1.0000 0.11260  0.96750  0.68370  Biso   1.000  C
  C22      1.0000 0.88740  0.03250  0.31630  Biso   1.000  C
  C23      1.0000 0.27440  0.98270  0.69960  Biso   1.000  C
  C24      1.0000 0.72560  0.01730  0.30040  Biso   1.000  C
  H21      1.0000 0.30560  0.92420  0.73136  Biso   1.000  H
  H22      1.0000 0.69440  0.07580  0.26864  Biso   1.000  H
  C25      1.0000 0.39260  0.08590  0.66810  Biso   1.000  C
  C26      1.0000 0.60740  0.91410  0.33190  Biso   1.000  C
  H23      1.0000 0.50341  0.09737  0.67960  Biso   1.000  H
  H24      1.0000 0.49659  0.90263  0.32040  Biso   1.000  H
  C27      1.0000 0.87300  0.60050  0.11690  Biso   1.000  C
  C28      1.0000 0.12700  0.39950  0.88310  Biso   1.000  C
  C29      1.0000 0.77590  0.53010  0.03370  Biso   1.000  C
  C30      1.0000 0.22410  0.46990  0.96630  Biso   1.000  C
  H25      1.0000 0.73341  0.43233  0.01951  Biso   1.000  H
  H26      1.0000 0.26659  0.56767  0.98049  Biso   1.000  H
  C31      1.0000 0.74280  0.60480  0.97240  Biso   1.000  C
  C32      1.0000 0.25720  0.39520  0.02760  Biso   1.000  C
  C33      1.0000 0.80730  0.75190  0.99590  Biso   1.000  C
  C34      1.0000 0.19270  0.24810  0.00410  Biso   1.000  C
  C35      1.0000 0.90360  0.82060  0.07600  Biso   1.000  C
  C36      1.0000 0.09640  0.17940  0.92400  Biso   1.000  C
  H27      1.0000 0.94646  0.91841  0.09023  Biso   1.000  H
  H28      1.0000 0.05354  0.08159  0.90977  Biso   1.000  H
  C37      1.0000 0.93790  0.74500  0.13650  Biso   1.000  C
  C38      1.0000 0.06210  0.25500  0.86350  Biso   1.000  C
  H29      1.0000 0.00542  0.79219  0.19099  Biso   1.000  H
  H30      1.0000 0.99458  0.20781  0.80901  Biso   1.000  H
  C39      1.0000 0.84290  0.12480  0.58730  Biso   1.000  C
  C40      1.0000 0.15710  0.87520  0.41270  Biso   1.000  C
  H31      1.0000 0.72519  0.09766  0.58421  Biso   1.000  H
  H32      1.0000 0.27481  0.90234  0.41579  Biso   1.000  H
  H33      1.0000 0.87672  0.12109  0.52604  Biso   1.000  H
  H34      1.0000 0.12328  0.87891  0.47396  Biso   1.000  H
  H35      1.0000 0.89033  0.21896  0.62372  Biso   1.000  H
  H36      1.0000 0.10967  0.78104  0.37628  Biso   1.000  H
  C41      1.0000 0.91200  0.74380  0.65910  Biso   1.000  C
  C42      1.0000 0.08800  0.25620  0.34090  Biso   1.000  C
  C43      1.0000 0.79550  0.64440  0.70570  Biso   1.000  C
  C44      1.0000 0.20450  0.35560  0.29430  Biso   1.000  C
  H37      1.0000 0.70868  0.57921  0.66124  Biso   1.000  H
  H38      1.0000 0.29132  0.42079  0.33876  Biso   1.000  H
  H39      1.0000 0.74978  0.69603  0.75269  Biso   1.000  H
  H40      1.0000 0.25022  0.30397  0.24731  Biso   1.000  H
  H41      1.0000 0.85284  0.59364  0.73348  Biso   1.000  H
  H42      1.0000 0.14716  0.40636  0.26652  Biso   1.000  H
  C45      1.0000 0.59330  0.39800  0.86130  Biso   1.000  C
  C46      1.0000 0.40670  0.60200  0.13870  Biso   1.000  C
  H43      1.0000 0.53982  0.37027  0.79955  Biso   1.000  H
  H44      1.0000 0.46018  0.62973  0.20045  Biso   1.000  H
  H45      1.0000 0.51715  0.35815  0.90225  Biso   1.000  H
  H46      1.0000 0.48285  0.64185  0.09775  Biso   1.000  H
  H47      1.0000 0.68567  0.36493  0.86273  Biso   1.000  H
  H48      1.0000 0.31433  0.63507  0.13727  Biso   1.000  H
  C47      1.0000 0.63690  0.85760  0.93190  Biso   1.000  C
  C48      1.0000 0.36310  0.14240  0.06810  Biso   1.000  C
  C49      1.0000 0.62930  0.94580  0.86390  Biso   1.000  C
  C50      1.0000 0.37070  0.05420  0.13610  Biso   1.000  C
  H49      1.0000 0.51687  0.92529  0.84097  Biso   1.000  H
  H50      1.0000 0.48313  0.07471  0.15903  Biso   1.000  H
  H51      1.0000 0.69108  0.92494  0.81337  Biso   1.000  H
  H52      1.0000 0.30892  0.07506  0.18663  Biso   1.000  H
  H53      1.0000 0.67515  0.04362  0.89371  Biso   1.000  H
  H54      1.0000 0.32485  0.95638  0.10629  Biso   1.000  H
