data_image0
_cell_length_a       7.303
_cell_length_b       19.716
_cell_length_c       5.949
_cell_angle_alpha    90
_cell_angle_beta     98.17
_cell_angle_gamma    90

_symmetry_space_group_name_H-M    "P 1"
_symmetry_int_tables_number       1

loop_
  _symmetry_equiv_pos_as_xyz
  'x, y, z'

loop_
  _atom_site_label
  _atom_site_occupancy
  _atom_site_fract_x
  _atom_site_fract_y
  _atom_site_fract_z
  _atom_site_thermal_displace_type
  _atom_site_B_iso_or_equiv
  _atom_site_type_symbol
  Cu1      1.0000 0.36911  0.72759  0.57761  Biso   1.000  Cu
  Cu2      1.0000 0.63089  0.22759  0.92239  Biso   1.000  Cu
  Cu3      1.0000 0.63089  0.27241  0.42239  Biso   1.000  Cu
  Cu4      1.0000 0.36911  0.77241  0.07761  Biso   1.000  Cu
  N1       1.0000 0.34670  0.61822  0.54480  Biso   1.000  N
  N2       1.0000 0.65330  0.11822  0.95520  Biso   1.000  N
  N3       1.0000 0.65330  0.38178  0.45520  Biso   1.000  N
  N4       1.0000 0.34670  0.88178  0.04480  Biso   1.000  N
  C1       1.0000 0.39970  0.57291  0.71540  Biso   1.000  C
  C2       1.0000 0.60030  0.07291  0.78460  Biso   1.000  C
  C3       1.0000 0.60030  0.42709  0.28460  Biso   1.000  C
  C4       1.0000 0.39970  0.92709  0.21540  Biso   1.000  C
  N5       1.0000 0.34800  0.50604  0.71090  Biso   1.000  N
  N6       1.0000 0.65200  0.00604  0.78910  Biso   1.000  N
  N7       1.0000 0.65200  0.49396  0.28910  Biso   1.000  N
  N8       1.0000 0.34800  0.99396  0.21090  Biso   1.000  N
  C5       1.0000 0.24520  0.48471  0.52090  Biso   1.000  C
  C6       1.0000 0.75480  0.98471  0.97910  Biso   1.000  C
  C7       1.0000 0.75480  0.51529  0.47910  Biso   1.000  C
  C8       1.0000 0.24520  0.01529  0.02090  Biso   1.000  C
  H1       1.0000 0.20750  0.43860  0.51230  Biso   1.000  H
  H2       1.0000 0.79250  0.93860  0.98770  Biso   1.000  H
  H3       1.0000 0.79250  0.56140  0.48770  Biso   1.000  H
  H4       1.0000 0.20750  0.06140  0.01230  Biso   1.000  H
  C9       1.0000 0.19020  0.52628  0.33470  Biso   1.000  C
  C10      1.0000 0.80980  0.02628  0.16530  Biso   1.000  C
  C11      1.0000 0.80980  0.47372  0.66530  Biso   1.000  C
  C12      1.0000 0.19020  0.97372  0.83470  Biso   1.000  C
  H5       1.0000 0.12070  0.50920  0.19930  Biso   1.000  H
  H6       1.0000 0.87930  0.00920  0.30070  Biso   1.000  H
  H7       1.0000 0.87930  0.49080  0.80070  Biso   1.000  H
  H8       1.0000 0.12070  0.99080  0.69930  Biso   1.000  H
  C13      1.0000 0.24190  0.59393  0.35650  Biso   1.000  C
  C14      1.0000 0.75810  0.09393  0.14350  Biso   1.000  C
  C15      1.0000 0.75810  0.40607  0.64350  Biso   1.000  C
  C16      1.0000 0.24190  0.90607  0.85650  Biso   1.000  C
  H9       1.0000 0.20240  0.62420  0.23500  Biso   1.000  H
  H10      1.0000 0.79760  0.12420  0.26500  Biso   1.000  H
  H11      1.0000 0.79760  0.37580  0.76500  Biso   1.000  H
  H12      1.0000 0.20240  0.87580  0.73500  Biso   1.000  H
  N9       1.0000 0.50840  0.59504  0.90360  Biso   1.000  N
  N10      1.0000 0.49160  0.09504  0.59640  Biso   1.000  N
  N11      1.0000 0.49160  0.40496  0.09640  Biso   1.000  N
  N12      1.0000 0.50840  0.90496  0.40360  Biso   1.000  N
  H13      1.0000 0.54340  0.63780  0.91420  Biso   1.000  H
  H14      1.0000 0.45660  0.13780  0.58580  Biso   1.000  H
  H15      1.0000 0.45660  0.36220  0.08580  Biso   1.000  H
  H16      1.0000 0.54340  0.86220  0.41420  Biso   1.000  H
  H17      1.0000 0.54430  0.56670  0.01560  Biso   1.000  H
  H18      1.0000 0.45570  0.06670  0.48440  Biso   1.000  H
  H19      1.0000 0.45570  0.43330  0.98440  Biso   1.000  H
  H20      1.0000 0.54430  0.93330  0.51560  Biso   1.000  H
  N13      1.0000 0.19200  0.73492  0.80340  Biso   1.000  N
  N14      1.0000 0.80800  0.23492  0.69660  Biso   1.000  N
  N15      1.0000 0.80800  0.26508  0.19660  Biso   1.000  N
  N16      1.0000 0.19200  0.76508  0.30340  Biso   1.000  N
  N17      1.0000 0.07260  0.69207  0.81920  Biso   1.000  N
  N18      1.0000 0.92740  0.19207  0.68080  Biso   1.000  N
  N19      1.0000 0.92740  0.30793  0.18080  Biso   1.000  N
  N20      1.0000 0.07260  0.80793  0.31920  Biso   1.000  N
  N21      1.0000 0.95960  0.65260  0.83480  Biso   1.000  N
  N22      1.0000 0.04040  0.15260  0.66520  Biso   1.000  N
  N23      1.0000 0.04040  0.34740  0.16520  Biso   1.000  N
  N24      1.0000 0.95960  0.84740  0.33480  Biso   1.000  N
  N25      1.0000 0.54700  0.74538  0.35780  Biso   1.000  N
  N26      1.0000 0.45300  0.24538  0.14220  Biso   1.000  N
  N27      1.0000 0.45300  0.25462  0.64220  Biso   1.000  N
  N28      1.0000 0.54700  0.75462  0.85780  Biso   1.000  N
  N29      1.0000 0.68550  0.70879  0.34040  Biso   1.000  N
  N30      1.0000 0.31450  0.20879  0.15960  Biso   1.000  N
  N31      1.0000 0.31450  0.29121  0.65960  Biso   1.000  N
  N32      1.0000 0.68550  0.79121  0.84040  Biso   1.000  N
  N33      1.0000 0.81180  0.67760  0.31580  Biso   1.000  N
  N34      1.0000 0.18820  0.17760  0.18420  Biso   1.000  N
  N35      1.0000 0.18820  0.32240  0.68420  Biso   1.000  N
  N36      1.0000 0.81180  0.82240  0.81580  Biso   1.000  N
