data_image0
_cell_length_a       13.2595
_cell_length_b       13.2595
_cell_length_c       19
_cell_angle_alpha    90
_cell_angle_beta     90
_cell_angle_gamma    90

_symmetry_space_group_name_H-M    "P 1"
_symmetry_int_tables_number       1

loop_
  _symmetry_equiv_pos_as_xyz
  'x, y, z'

loop_
  _atom_site_label
  _atom_site_occupancy
  _atom_site_fract_x
  _atom_site_fract_y
  _atom_site_fract_z
  _atom_site_thermal_displace_type
  _atom_site_B_iso_or_equiv
  _atom_site_type_symbol
  Cu1      1.0000 0.72756  0.52099  0.95021  Biso   1.000  Cu
  Cu2      1.0000 0.27244  0.47901  0.45021  Biso   1.000  Cu
  Cu3      1.0000 0.47901  0.72756  0.20021  Biso   1.000  Cu
  Cu4      1.0000 0.52099  0.27244  0.70021  Biso   1.000  Cu
  O1       1.0000 0.85840  0.52000  0.99660  Biso   1.000  O
  O2       1.0000 0.14160  0.48000  0.49660  Biso   1.000  O
  O3       1.0000 0.48000  0.85840  0.24660  Biso   1.000  O
  O4       1.0000 0.52000  0.14160  0.74660  Biso   1.000  O
  O5       1.0000 0.93930  0.52010  0.89430  Biso   1.000  O
  O6       1.0000 0.06070  0.47990  0.39430  Biso   1.000  O
  O7       1.0000 0.47990  0.93930  0.14430  Biso   1.000  O
  O8       1.0000 0.52010  0.06070  0.64430  Biso   1.000  O
  O9       1.0000 0.04660  0.32290  0.99160  Biso   1.000  O
  O10      1.0000 0.95340  0.67710  0.49160  Biso   1.000  O
  O11      1.0000 0.67710  0.04660  0.24160  Biso   1.000  O
  O12      1.0000 0.32290  0.95340  0.74160  Biso   1.000  O
  O13      1.0000 0.49950  0.36550  0.80424  Biso   1.000  O
  O14      1.0000 0.50050  0.63450  0.30424  Biso   1.000  O
  O15      1.0000 0.63450  0.49950  0.05424  Biso   1.000  O
  O16      1.0000 0.36550  0.50050  0.55424  Biso   1.000  O
  O17      1.0000 0.65980  0.58950  0.80310  Biso   1.000  O
  O18      1.0000 0.34020  0.41050  0.30310  Biso   1.000  O
  O19      1.0000 0.41050  0.65980  0.05310  Biso   1.000  O
  O20      1.0000 0.58950  0.34020  0.55310  Biso   1.000  O
  O21      1.0000 0.59820  0.52770  0.90297  Biso   1.000  O
  O22      1.0000 0.40180  0.47230  0.40297  Biso   1.000  O
  O23      1.0000 0.47230  0.59820  0.15297  Biso   1.000  O
  O24      1.0000 0.52770  0.40180  0.65297  Biso   1.000  O
  N1       1.0000 0.11310  0.47630  0.96360  Biso   1.000  N
  N2       1.0000 0.88690  0.52370  0.46360  Biso   1.000  N
  N3       1.0000 0.52370  0.11310  0.21360  Biso   1.000  N
  N4       1.0000 0.47630  0.88690  0.71360  Biso   1.000  N
  H1       1.0000 0.16100  0.50830  0.94270  Biso   1.000  H
  H2       1.0000 0.83900  0.49170  0.44270  Biso   1.000  H
  H3       1.0000 0.49170  0.16100  0.19270  Biso   1.000  H
  H4       1.0000 0.50830  0.83900  0.69270  Biso   1.000  H
  N5       1.0000 0.27070  0.37990  0.89890  Biso   1.000  N
  N6       1.0000 0.72930  0.62010  0.39890  Biso   1.000  N
  N7       1.0000 0.62010  0.27070  0.14890  Biso   1.000  N
  N8       1.0000 0.37990  0.72930  0.64890  Biso   1.000  N
  N9       1.0000 0.41400  0.49970  0.84470  Biso   1.000  N
  N10      1.0000 0.58600  0.50030  0.34470  Biso   1.000  N
  N11      1.0000 0.50030  0.41400  0.09470  Biso   1.000  N
  N12      1.0000 0.49970  0.58600  0.59470  Biso   1.000  N
  H5       1.0000 0.36370  0.52150  0.86880  Biso   1.000  H
  H6       1.0000 0.63630  0.47850  0.36880  Biso   1.000  H
  H7       1.0000 0.47850  0.36370  0.11880  Biso   1.000  H
  H8       1.0000 0.52150  0.63630  0.61880  Biso   1.000  H
  N13      1.0000 0.72600  0.67380  0.96200  Biso   1.000  N
  N14      1.0000 0.27400  0.32620  0.46200  Biso   1.000  N
  N15      1.0000 0.32620  0.72600  0.21200  Biso   1.000  N
  N16      1.0000 0.67380  0.27400  0.71200  Biso   1.000  N
  N17      1.0000 0.72720  0.36670  0.93770  Biso   1.000  N
  N18      1.0000 0.27280  0.63330  0.43770  Biso   1.000  N
  N19      1.0000 0.63330  0.72720  0.18770  Biso   1.000  N
  N20      1.0000 0.36670  0.27280  0.68770  Biso   1.000  N
  C1       1.0000 0.93740  0.52050  0.95800  Biso   1.000  C
  C2       1.0000 0.06260  0.47950  0.45800  Biso   1.000  C
  C3       1.0000 0.47950  0.93740  0.20800  Biso   1.000  C
  C4       1.0000 0.52050  0.06260  0.70800  Biso   1.000  C
  C5       1.0000 0.03380  0.53120  0.99760  Biso   1.000  C
  C6       1.0000 0.96620  0.46880  0.49760  Biso   1.000  C
  C7       1.0000 0.46880  0.03380  0.24760  Biso   1.000  C
  C8       1.0000 0.53120  0.96620  0.74760  Biso   1.000  C
  H9       1.0000 0.02450  0.50450  0.04530  Biso   1.000  H
  H10      1.0000 0.97550  0.49550  0.54530  Biso   1.000  H
  H11      1.0000 0.49550  0.02450  0.29530  Biso   1.000  H
  H12      1.0000 0.50450  0.97550  0.79530  Biso   1.000  H
  C9       1.0000 0.06360  0.64470  0.00250  Biso   1.000  C
  C10      1.0000 0.93640  0.35530  0.50250  Biso   1.000  C
  C11      1.0000 0.35530  0.06360  0.25250  Biso   1.000  C
  C12      1.0000 0.64470  0.93640  0.75250  Biso   1.000  C
  H13      1.0000 0.01050  0.68160  0.02520  Biso   1.000  H
  H14      1.0000 0.98950  0.31840  0.52520  Biso   1.000  H
  H15      1.0000 0.31840  0.01050  0.27520  Biso   1.000  H
  H16      1.0000 0.68160  0.98950  0.77520  Biso   1.000  H
  H17      1.0000 0.12470  0.65130  0.02920  Biso   1.000  H
  H18      1.0000 0.87530  0.34870  0.52920  Biso   1.000  H
  H19      1.0000 0.34870  0.12470  0.27920  Biso   1.000  H
  H20      1.0000 0.65130  0.87530  0.77920  Biso   1.000  H
  H21      1.0000 0.07400  0.67100  0.95600  Biso   1.000  H
  H22      1.0000 0.92600  0.32900  0.45600  Biso   1.000  H
  H23      1.0000 0.32900  0.07400  0.20600  Biso   1.000  H
  H24      1.0000 0.67100  0.92600  0.70600  Biso   1.000  H
  C13      1.0000 0.11290  0.37960  0.96440  Biso   1.000  C
  C14      1.0000 0.88710  0.62040  0.46440  Biso   1.000  C
  C15      1.0000 0.62040  0.11290  0.21440  Biso   1.000  C
  C16      1.0000 0.37960  0.88710  0.71440  Biso   1.000  C
  C17      1.0000 0.20060  0.32300  0.92640  Biso   1.000  C
  C18      1.0000 0.79940  0.67700  0.42640  Biso   1.000  C
  C19      1.0000 0.67700  0.20060  0.17640  Biso   1.000  C
  C20      1.0000 0.32300  0.79940  0.67640  Biso   1.000  C
  C21      1.0000 0.20370  0.22260  0.92350  Biso   1.000  C
  C22      1.0000 0.79630  0.77740  0.42350  Biso   1.000  C
  C23      1.0000 0.77740  0.20370  0.17350  Biso   1.000  C
  C24      1.0000 0.22260  0.79630  0.67350  Biso   1.000  C
  H25      1.0000 0.15170  0.18470  0.94300  Biso   1.000  H
  H26      1.0000 0.84830  0.81530  0.44300  Biso   1.000  H
  H27      1.0000 0.81530  0.15170  0.19300  Biso   1.000  H
  H28      1.0000 0.18470  0.84830  0.69300  Biso   1.000  H
  C25      1.0000 0.28190  0.17620  0.89240  Biso   1.000  C
  C26      1.0000 0.71810  0.82380  0.39240  Biso   1.000  C
  C27      1.0000 0.82380  0.28190  0.14240  Biso   1.000  C
  C28      1.0000 0.17620  0.71810  0.64240  Biso   1.000  C
  H29      1.0000 0.28390  0.10620  0.89120  Biso   1.000  H
  H30      1.0000 0.71610  0.89380  0.39120  Biso   1.000  H
  H31      1.0000 0.89380  0.28390  0.14120  Biso   1.000  H
  H32      1.0000 0.10620  0.71610  0.64120  Biso   1.000  H
  C29      1.0000 0.35950  0.23040  0.86210  Biso   1.000  C
  C30      1.0000 0.64050  0.76960  0.36210  Biso   1.000  C
  C31      1.0000 0.76960  0.35950  0.11210  Biso   1.000  C
  C32      1.0000 0.23040  0.64050  0.61210  Biso   1.000  C
  H33      1.0000 0.41390  0.19970  0.83970  Biso   1.000  H
  H34      1.0000 0.58610  0.80030  0.33970  Biso   1.000  H
  H35      1.0000 0.80030  0.41390  0.08970  Biso   1.000  H
  H36      1.0000 0.19970  0.58610  0.58970  Biso   1.000  H
  C33      1.0000 0.34980  0.33440  0.86790  Biso   1.000  C
  C34      1.0000 0.65020  0.66560  0.36790  Biso   1.000  C
  C35      1.0000 0.66560  0.34980  0.11790  Biso   1.000  C
  C36      1.0000 0.33440  0.65020  0.61790  Biso   1.000  C
  C37      1.0000 0.42640  0.40090  0.83650  Biso   1.000  C
  C38      1.0000 0.57360  0.59910  0.33650  Biso   1.000  C
  C39      1.0000 0.59910  0.42640  0.08650  Biso   1.000  C
  C40      1.0000 0.40090  0.57360  0.58650  Biso   1.000  C
  C41      1.0000 0.48370  0.57150  0.81370  Biso   1.000  C
  C42      1.0000 0.51630  0.42850  0.31370  Biso   1.000  C
  C43      1.0000 0.42850  0.48370  0.06370  Biso   1.000  C
  C44      1.0000 0.57150  0.51630  0.56370  Biso   1.000  C
  H37      1.0000 0.48440  0.56210  0.76250  Biso   1.000  H
  H38      1.0000 0.51560  0.43790  0.26250  Biso   1.000  H
  H39      1.0000 0.43790  0.48440  0.01250  Biso   1.000  H
  H40      1.0000 0.56210  0.51560  0.51250  Biso   1.000  H
  C45      1.0000 0.44840  0.67890  0.83020  Biso   1.000  C
  C46      1.0000 0.55160  0.32110  0.33020  Biso   1.000  C
  C47      1.0000 0.32110  0.44840  0.08020  Biso   1.000  C
  C48      1.0000 0.67890  0.55160  0.58020  Biso   1.000  C
  H41      1.0000 0.49450  0.72650  0.80980  Biso   1.000  H
  H42      1.0000 0.50550  0.27350  0.30980  Biso   1.000  H
  H43      1.0000 0.27350  0.49450  0.05980  Biso   1.000  H
  H44      1.0000 0.72650  0.50550  0.55980  Biso   1.000  H
  H45      1.0000 0.38230  0.68920  0.81100  Biso   1.000  H
  H46      1.0000 0.61770  0.31080  0.31100  Biso   1.000  H
  H47      1.0000 0.31080  0.38230  0.06100  Biso   1.000  H
  H48      1.0000 0.68920  0.61770  0.56100  Biso   1.000  H
  H49      1.0000 0.44640  0.68840  0.88030  Biso   1.000  H
  H50      1.0000 0.55360  0.31160  0.38030  Biso   1.000  H
  H51      1.0000 0.31160  0.44640  0.13030  Biso   1.000  H
  H52      1.0000 0.68840  0.55360  0.63030  Biso   1.000  H
  C49      1.0000 0.59100  0.56070  0.84160  Biso   1.000  C
  C50      1.0000 0.40900  0.43930  0.34160  Biso   1.000  C
  C51      1.0000 0.43930  0.59100  0.09160  Biso   1.000  C
  C52      1.0000 0.56070  0.40900  0.59160  Biso   1.000  C
  C53      1.0000 0.80150  0.73030  0.94270  Biso   1.000  C
  C54      1.0000 0.19850  0.26970  0.44270  Biso   1.000  C
  C55      1.0000 0.26970  0.80150  0.19270  Biso   1.000  C
  C56      1.0000 0.73030  0.19850  0.69270  Biso   1.000  C
  H53      1.0000 0.85560  0.70080  0.91930  Biso   1.000  H
  H54      1.0000 0.14440  0.29920  0.41930  Biso   1.000  H
  H55      1.0000 0.29920  0.85560  0.16930  Biso   1.000  H
  H56      1.0000 0.70080  0.14440  0.66930  Biso   1.000  H
  C57      1.0000 0.64810  0.71850  0.99050  Biso   1.000  C
  C58      1.0000 0.35190  0.28150  0.49050  Biso   1.000  C
  C59      1.0000 0.28150  0.64810  0.24050  Biso   1.000  C
  C60      1.0000 0.71850  0.35190  0.74050  Biso   1.000  C
  H57      1.0000 0.59330  0.67920  0.00400  Biso   1.000  H
  H58      1.0000 0.40670  0.32080  0.50400  Biso   1.000  H
  H59      1.0000 0.32080  0.59330  0.25400  Biso   1.000  H
  H60      1.0000 0.67920  0.40670  0.75400  Biso   1.000  H
  C61      1.0000 0.80350  0.83260  0.95610  Biso   1.000  C
  C62      1.0000 0.19650  0.16740  0.45610  Biso   1.000  C
  C63      1.0000 0.16740  0.80350  0.20610  Biso   1.000  C
  C64      1.0000 0.83260  0.19650  0.70610  Biso   1.000  C
  H61      1.0000 0.86020  0.87000  0.94380  Biso   1.000  H
  H62      1.0000 0.13980  0.13000  0.44380  Biso   1.000  H
  H63      1.0000 0.13000  0.86020  0.19380  Biso   1.000  H
  H64      1.0000 0.87000  0.13980  0.69380  Biso   1.000  H
  C65      1.0000 0.64330  0.82140  0.00160  Biso   1.000  C
  C66      1.0000 0.35670  0.17860  0.50160  Biso   1.000  C
  C67      1.0000 0.17860  0.64330  0.25160  Biso   1.000  C
  C68      1.0000 0.82140  0.35670  0.75160  Biso   1.000  C
  H65      1.0000 0.58460  0.85030  0.01910  Biso   1.000  H
  H66      1.0000 0.41540  0.14970  0.51910  Biso   1.000  H
  H67      1.0000 0.14970  0.58460  0.26910  Biso   1.000  H
  H68      1.0000 0.85030  0.41540  0.76910  Biso   1.000  H
  C69      1.0000 0.72340  0.87970  0.98720  Biso   1.000  C
  C70      1.0000 0.27660  0.12030  0.48720  Biso   1.000  C
  C71      1.0000 0.12030  0.72340  0.23720  Biso   1.000  C
  C72      1.0000 0.87970  0.27660  0.73720  Biso   1.000  C
  C73      1.0000 0.72330  0.99190  0.99570  Biso   1.000  C
  C74      1.0000 0.27670  0.00810  0.49570  Biso   1.000  C
  C75      1.0000 0.00810  0.72330  0.24570  Biso   1.000  C
  C76      1.0000 0.99190  0.27670  0.74570  Biso   1.000  C
  H69      1.0000 0.66790  0.01120  0.02630  Biso   1.000  H
  H70      1.0000 0.33210  0.98880  0.52630  Biso   1.000  H
  H71      1.0000 0.98880  0.66790  0.27630  Biso   1.000  H
  H72      1.0000 0.01120  0.33210  0.77630  Biso   1.000  H
  H73      1.0000 0.78560  0.01250  0.01830  Biso   1.000  H
  H74      1.0000 0.21440  0.98750  0.51830  Biso   1.000  H
  H75      1.0000 0.98750  0.78560  0.26830  Biso   1.000  H
  H76      1.0000 0.01250  0.21440  0.76830  Biso   1.000  H
  C77      1.0000 0.71330  0.04530  0.92820  Biso   1.000  C
  C78      1.0000 0.28670  0.95470  0.42820  Biso   1.000  C
  C79      1.0000 0.95470  0.71330  0.17820  Biso   1.000  C
  C80      1.0000 0.04530  0.28670  0.67820  Biso   1.000  C
  H77      1.0000 0.65050  0.02470  0.90630  Biso   1.000  H
  H78      1.0000 0.34950  0.97530  0.40630  Biso   1.000  H
  H79      1.0000 0.97530  0.65050  0.15630  Biso   1.000  H
  H80      1.0000 0.02470  0.34950  0.65630  Biso   1.000  H
  H81      1.0000 0.76780  0.02390  0.89760  Biso   1.000  H
  H82      1.0000 0.23220  0.97610  0.39760  Biso   1.000  H
  H83      1.0000 0.97610  0.76780  0.14760  Biso   1.000  H
  H84      1.0000 0.02390  0.23220  0.64760  Biso   1.000  H
  C81      1.0000 0.71470  0.15770  0.93270  Biso   1.000  C
  C82      1.0000 0.28530  0.84230  0.43270  Biso   1.000  C
  C83      1.0000 0.84230  0.71470  0.18270  Biso   1.000  C
  C84      1.0000 0.15770  0.28530  0.68270  Biso   1.000  C
  C85      1.0000 0.80820  0.20810  0.93440  Biso   1.000  C
  C86      1.0000 0.19180  0.79190  0.43440  Biso   1.000  C
  C87      1.0000 0.79190  0.80820  0.18440  Biso   1.000  C
  C88      1.0000 0.20810  0.19180  0.68440  Biso   1.000  C
  H85      1.0000 0.86760  0.17100  0.93290  Biso   1.000  H
  H86      1.0000 0.13240  0.82900  0.43290  Biso   1.000  H
  H87      1.0000 0.82900  0.86760  0.18290  Biso   1.000  H
  H88      1.0000 0.17100  0.13240  0.68290  Biso   1.000  H
  C89      1.0000 0.63360  0.21570  0.93610  Biso   1.000  C
  C90      1.0000 0.36640  0.78430  0.43610  Biso   1.000  C
  C91      1.0000 0.78430  0.63360  0.18610  Biso   1.000  C
  C92      1.0000 0.21570  0.36640  0.68610  Biso   1.000  C
  H89      1.0000 0.57030  0.18540  0.93720  Biso   1.000  H
  H90      1.0000 0.42970  0.81460  0.43720  Biso   1.000  H
  H91      1.0000 0.81460  0.57030  0.18720  Biso   1.000  H
  H92      1.0000 0.18540  0.42970  0.68720  Biso   1.000  H
  C93      1.0000 0.81250  0.31140  0.93820  Biso   1.000  C
  C94      1.0000 0.18750  0.68860  0.43820  Biso   1.000  C
  C95      1.0000 0.68860  0.81250  0.18820  Biso   1.000  C
  C96      1.0000 0.31140  0.18750  0.68820  Biso   1.000  C
  H93      1.0000 0.87480  0.34340  0.94120  Biso   1.000  H
  H94      1.0000 0.12520  0.65660  0.44120  Biso   1.000  H
  H95      1.0000 0.65660  0.87480  0.19120  Biso   1.000  H
  H96      1.0000 0.34340  0.12520  0.69120  Biso   1.000  H
  C97      1.0000 0.63970  0.31990  0.93800  Biso   1.000  C
  C98      1.0000 0.36030  0.68010  0.43800  Biso   1.000  C
  C99      1.0000 0.68010  0.63970  0.18800  Biso   1.000  C
  C100     1.0000 0.31990  0.36030  0.68800  Biso   1.000  C
  H97      1.0000 0.58060  0.35770  0.93950  Biso   1.000  H
  H98      1.0000 0.41940  0.64230  0.43950  Biso   1.000  H
  H99      1.0000 0.64230  0.58060  0.18950  Biso   1.000  H
  H100     1.0000 0.35770  0.41940  0.68950  Biso   1.000  H
