data_image0
_cell_length_a       7.9358
_cell_length_b       7.9358
_cell_length_c       49.349
_cell_angle_alpha    90
_cell_angle_beta     90
_cell_angle_gamma    90

_symmetry_space_group_name_H-M    "P 1"
_symmetry_int_tables_number       1

loop_
  _symmetry_equiv_pos_as_xyz
  'x, y, z'

loop_
  _atom_site_label
  _atom_site_occupancy
  _atom_site_fract_x
  _atom_site_fract_y
  _atom_site_fract_z
  _atom_site_thermal_displace_type
  _atom_site_B_iso_or_equiv
  _atom_site_type_symbol
  Cu1      1.0000 0.44086  0.44086  0.12500  Biso   1.000  Cu
  Cu2      1.0000 0.55914  0.44086  0.87500  Biso   1.000  Cu
  Cu3      1.0000 0.55914  0.55914  0.62500  Biso   1.000  Cu
  Cu4      1.0000 0.44086  0.55914  0.37500  Biso   1.000  Cu
  O1       1.0000 0.57930  0.30700  0.10030  Biso   1.000  O
  O2       1.0000 0.69300  0.57930  0.85030  Biso   1.000  O
  O3       1.0000 0.42070  0.69300  0.60030  Biso   1.000  O
  O4       1.0000 0.30700  0.42070  0.35030  Biso   1.000  O
  O5       1.0000 0.57930  0.69300  0.39970  Biso   1.000  O
  O6       1.0000 0.30700  0.57930  0.14970  Biso   1.000  O
  O7       1.0000 0.42070  0.30700  0.89970  Biso   1.000  O
  O8       1.0000 0.69300  0.42070  0.64970  Biso   1.000  O
  O9       1.0000 0.41800  0.28410  0.06335  Biso   1.000  O
  O10      1.0000 0.71590  0.41800  0.81335  Biso   1.000  O
  O11      1.0000 0.58200  0.71590  0.56335  Biso   1.000  O
  O12      1.0000 0.28410  0.58200  0.31335  Biso   1.000  O
  O13      1.0000 0.41800  0.71590  0.43665  Biso   1.000  O
  O14      1.0000 0.28410  0.41800  0.18665  Biso   1.000  O
  O15      1.0000 0.58200  0.28410  0.93665  Biso   1.000  O
  O16      1.0000 0.71590  0.58200  0.68665  Biso   1.000  O
  O17      1.0000 0.52350  0.82850  0.07054  Biso   1.000  O
  O18      1.0000 0.17150  0.52350  0.82054  Biso   1.000  O
  O19      1.0000 0.47650  0.17150  0.57054  Biso   1.000  O
  O20      1.0000 0.82850  0.47650  0.32054  Biso   1.000  O
  O21      1.0000 0.52350  0.17150  0.42946  Biso   1.000  O
  O22      1.0000 0.82850  0.52350  0.17946  Biso   1.000  O
  O23      1.0000 0.47650  0.82850  0.92946  Biso   1.000  O
  O24      1.0000 0.17150  0.47650  0.67946  Biso   1.000  O
  O25      1.0000 0.28730  0.58050  0.08644  Biso   1.000  O
  O26      1.0000 0.41950  0.28730  0.83644  Biso   1.000  O
  O27      1.0000 0.71270  0.41950  0.58644  Biso   1.000  O
  O28      1.0000 0.58050  0.71270  0.33644  Biso   1.000  O
  O29      1.0000 0.28730  0.41950  0.41356  Biso   1.000  O
  O30      1.0000 0.58050  0.28730  0.16356  Biso   1.000  O
  O31      1.0000 0.71270  0.58050  0.91356  Biso   1.000  O
  O32      1.0000 0.41950  0.71270  0.66356  Biso   1.000  O
  H1       1.0000 0.29600  0.49600  0.07580  Biso   1.000  H
  H2       1.0000 0.50400  0.29600  0.82580  Biso   1.000  H
  H3       1.0000 0.70400  0.50400  0.57580  Biso   1.000  H
  H4       1.0000 0.49600  0.70400  0.32580  Biso   1.000  H
  H5       1.0000 0.29600  0.50400  0.42420  Biso   1.000  H
  H6       1.0000 0.49600  0.29600  0.17420  Biso   1.000  H
  H7       1.0000 0.70400  0.49600  0.92420  Biso   1.000  H
  H8       1.0000 0.50400  0.70400  0.67420  Biso   1.000  H
  H9       1.0000 0.35200  0.65100  0.07820  Biso   1.000  H
  H10      1.0000 0.34900  0.35200  0.82820  Biso   1.000  H
  H11      1.0000 0.64800  0.34900  0.57820  Biso   1.000  H
  H12      1.0000 0.65100  0.64800  0.32820  Biso   1.000  H
  H13      1.0000 0.35200  0.34900  0.42180  Biso   1.000  H
  H14      1.0000 0.65100  0.35200  0.17180  Biso   1.000  H
  H15      1.0000 0.64800  0.65100  0.92180  Biso   1.000  H
  H16      1.0000 0.34900  0.64800  0.67180  Biso   1.000  H
  N1       1.0000 0.62740  0.03310  0.04328  Biso   1.000  N
  N2       1.0000 0.96690  0.62740  0.79328  Biso   1.000  N
  N3       1.0000 0.37260  0.96690  0.54328  Biso   1.000  N
  N4       1.0000 0.03310  0.37260  0.29328  Biso   1.000  N
  N5       1.0000 0.62740  0.96690  0.45672  Biso   1.000  N
  N6       1.0000 0.03310  0.62740  0.20672  Biso   1.000  N
  N7       1.0000 0.37260  0.03310  0.95672  Biso   1.000  N
  N8       1.0000 0.96690  0.37260  0.70672  Biso   1.000  N
  H17      1.0000 0.63950  0.06810  0.02690  Biso   1.000  H
  H18      1.0000 0.93190  0.63950  0.77690  Biso   1.000  H
  H19      1.0000 0.36050  0.93190  0.52690  Biso   1.000  H
  H20      1.0000 0.06810  0.36050  0.27690  Biso   1.000  H
  H21      1.0000 0.63950  0.93190  0.47310  Biso   1.000  H
  H22      1.0000 0.06810  0.63950  0.22310  Biso   1.000  H
  H23      1.0000 0.36050  0.06810  0.97310  Biso   1.000  H
  H24      1.0000 0.93190  0.36050  0.72310  Biso   1.000  H
  N9       1.0000 0.50000  0.86960  0.00000  Biso   1.000  N
  N10      1.0000 0.13040  0.50000  0.75000  Biso   1.000  N
  N11      1.0000 0.50000  0.13040  0.50000  Biso   1.000  N
  N12      1.0000 0.86960  0.50000  0.25000  Biso   1.000  N
  N13      1.0000 0.25870  0.25870  0.12500  Biso   1.000  N
  N14      1.0000 0.74130  0.25870  0.87500  Biso   1.000  N
  N15      1.0000 0.74130  0.74130  0.62500  Biso   1.000  N
  N16      1.0000 0.25870  0.74130  0.37500  Biso   1.000  N
  C1       1.0000 0.54450  0.25150  0.07675  Biso   1.000  C
  C2       1.0000 0.74850  0.54450  0.82675  Biso   1.000  C
  C3       1.0000 0.45550  0.74850  0.57675  Biso   1.000  C
  C4       1.0000 0.25150  0.45550  0.32675  Biso   1.000  C
  C5       1.0000 0.54450  0.74850  0.42325  Biso   1.000  C
  C6       1.0000 0.25150  0.54450  0.17325  Biso   1.000  C
  C7       1.0000 0.45550  0.25150  0.92325  Biso   1.000  C
  C8       1.0000 0.74850  0.45550  0.67325  Biso   1.000  C
  C9       1.0000 0.68450  0.13770  0.06550  Biso   1.000  C
  C10      1.0000 0.86230  0.68450  0.81550  Biso   1.000  C
  C11      1.0000 0.31550  0.86230  0.56550  Biso   1.000  C
  C12      1.0000 0.13770  0.31550  0.31550  Biso   1.000  C
  C13      1.0000 0.68450  0.86230  0.43450  Biso   1.000  C
  C14      1.0000 0.13770  0.68450  0.18450  Biso   1.000  C
  C15      1.0000 0.31550  0.13770  0.93450  Biso   1.000  C
  C16      1.0000 0.86230  0.31550  0.68450  Biso   1.000  C
  H25      1.0000 0.72280  0.06360  0.08010  Biso   1.000  H
  H26      1.0000 0.93640  0.72280  0.83010  Biso   1.000  H
  H27      1.0000 0.27720  0.93640  0.58010  Biso   1.000  H
  H28      1.0000 0.06360  0.27720  0.33010  Biso   1.000  H
  H29      1.0000 0.72280  0.93640  0.41990  Biso   1.000  H
  H30      1.0000 0.06360  0.72280  0.16990  Biso   1.000  H
  H31      1.0000 0.27720  0.06360  0.91990  Biso   1.000  H
  H32      1.0000 0.93640  0.27720  0.66990  Biso   1.000  H
  C17      1.0000 0.83330  0.24450  0.05640  Biso   1.000  C
  C18      1.0000 0.75550  0.83330  0.80640  Biso   1.000  C
  C19      1.0000 0.16670  0.75550  0.55640  Biso   1.000  C
  C20      1.0000 0.24450  0.16670  0.30640  Biso   1.000  C
  C21      1.0000 0.83330  0.75550  0.44360  Biso   1.000  C
  C22      1.0000 0.24450  0.83330  0.19360  Biso   1.000  C
  C23      1.0000 0.16670  0.24450  0.94360  Biso   1.000  C
  C24      1.0000 0.75550  0.16670  0.69360  Biso   1.000  C
  H33      1.0000 0.87070  0.31360  0.07120  Biso   1.000  H
  H34      1.0000 0.68640  0.87070  0.82120  Biso   1.000  H
  H35      1.0000 0.12930  0.68640  0.57120  Biso   1.000  H
  H36      1.0000 0.31360  0.12930  0.32120  Biso   1.000  H
  H37      1.0000 0.87070  0.68640  0.42880  Biso   1.000  H
  H38      1.0000 0.31360  0.87070  0.17880  Biso   1.000  H
  H39      1.0000 0.12930  0.31360  0.92880  Biso   1.000  H
  H40      1.0000 0.68640  0.12930  0.67880  Biso   1.000  H
  H41      1.0000 0.92360  0.17230  0.05070  Biso   1.000  H
  H42      1.0000 0.82770  0.92360  0.80070  Biso   1.000  H
  H43      1.0000 0.07640  0.82770  0.55070  Biso   1.000  H
  H44      1.0000 0.17230  0.07640  0.30070  Biso   1.000  H
  H45      1.0000 0.92360  0.82770  0.44930  Biso   1.000  H
  H46      1.0000 0.17230  0.92360  0.19930  Biso   1.000  H
  H47      1.0000 0.07640  0.17230  0.94930  Biso   1.000  H
  H48      1.0000 0.82770  0.07640  0.69930  Biso   1.000  H
  H49      1.0000 0.79950  0.31510  0.04160  Biso   1.000  H
  H50      1.0000 0.68490  0.79950  0.79160  Biso   1.000  H
  H51      1.0000 0.20050  0.68490  0.54160  Biso   1.000  H
  H52      1.0000 0.31510  0.20050  0.29160  Biso   1.000  H
  H53      1.0000 0.79950  0.68490  0.45840  Biso   1.000  H
  H54      1.0000 0.31510  0.79950  0.20840  Biso   1.000  H
  H55      1.0000 0.20050  0.31510  0.95840  Biso   1.000  H
  H56      1.0000 0.68490  0.20050  0.70840  Biso   1.000  H
  C25      1.0000 0.55670  0.88420  0.04777  Biso   1.000  C
  C26      1.0000 0.11580  0.55670  0.79777  Biso   1.000  C
  C27      1.0000 0.44330  0.11580  0.54777  Biso   1.000  C
  C28      1.0000 0.88420  0.44330  0.29777  Biso   1.000  C
  C29      1.0000 0.55670  0.11580  0.45223  Biso   1.000  C
  C30      1.0000 0.88420  0.55670  0.20223  Biso   1.000  C
  C31      1.0000 0.44330  0.88420  0.95223  Biso   1.000  C
  C32      1.0000 0.11580  0.44330  0.70223  Biso   1.000  C
  C33      1.0000 0.52340  0.78220  0.02278  Biso   1.000  C
  C34      1.0000 0.21780  0.52340  0.77278  Biso   1.000  C
  C35      1.0000 0.47660  0.21780  0.52278  Biso   1.000  C
  C36      1.0000 0.78220  0.47660  0.27278  Biso   1.000  C
  C37      1.0000 0.52340  0.21780  0.47722  Biso   1.000  C
  C38      1.0000 0.78220  0.52340  0.22722  Biso   1.000  C
  C39      1.0000 0.47660  0.78220  0.97722  Biso   1.000  C
  C40      1.0000 0.21780  0.47660  0.72722  Biso   1.000  C
  C41      1.0000 0.52290  0.60740  0.02376  Biso   1.000  C
  C42      1.0000 0.39260  0.52290  0.77376  Biso   1.000  C
  C43      1.0000 0.47710  0.39260  0.52376  Biso   1.000  C
  C44      1.0000 0.60740  0.47710  0.27376  Biso   1.000  C
  C45      1.0000 0.52290  0.39260  0.47624  Biso   1.000  C
  C46      1.0000 0.60740  0.52290  0.22624  Biso   1.000  C
  C47      1.0000 0.47710  0.60740  0.97624  Biso   1.000  C
  C48      1.0000 0.39260  0.47710  0.72624  Biso   1.000  C
  H57      1.0000 0.53770  0.55100  0.04010  Biso   1.000  H
  H58      1.0000 0.44900  0.53770  0.79010  Biso   1.000  H
  H59      1.0000 0.46230  0.44900  0.54010  Biso   1.000  H
  H60      1.0000 0.55100  0.46230  0.29010  Biso   1.000  H
  H61      1.0000 0.53770  0.44900  0.45990  Biso   1.000  H
  H62      1.0000 0.55100  0.53770  0.20990  Biso   1.000  H
  H63      1.0000 0.46230  0.55100  0.95990  Biso   1.000  H
  H64      1.0000 0.44900  0.46230  0.70990  Biso   1.000  H
  C49      1.0000 0.50000  0.51910  0.00000  Biso   1.000  C
  C50      1.0000 0.48090  0.50000  0.75000  Biso   1.000  C
  C51      1.0000 0.50000  0.48090  0.50000  Biso   1.000  C
  C52      1.0000 0.51910  0.50000  0.25000  Biso   1.000  C
  H65      1.0000 0.50000  0.40190  0.00000  Biso   1.000  H
  H66      1.0000 0.59810  0.50000  0.75000  Biso   1.000  H
  H67      1.0000 0.50000  0.59810  0.50000  Biso   1.000  H
  H68      1.0000 0.40190  0.50000  0.25000  Biso   1.000  H
  C53      1.0000 0.29660  0.09530  0.12177  Biso   1.000  C
  C54      1.0000 0.90470  0.29660  0.87177  Biso   1.000  C
  C55      1.0000 0.70340  0.90470  0.62177  Biso   1.000  C
  C56      1.0000 0.09530  0.70340  0.37177  Biso   1.000  C
  C57      1.0000 0.29660  0.90470  0.37823  Biso   1.000  C
  C58      1.0000 0.09530  0.29660  0.12823  Biso   1.000  C
  C59      1.0000 0.70340  0.09530  0.87823  Biso   1.000  C
  C60      1.0000 0.90470  0.70340  0.62823  Biso   1.000  C
  H69      1.0000 0.40920  0.06600  0.11950  Biso   1.000  H
  H70      1.0000 0.93400  0.40920  0.86950  Biso   1.000  H
  H71      1.0000 0.59080  0.93400  0.61950  Biso   1.000  H
  H72      1.0000 0.06600  0.59080  0.36950  Biso   1.000  H
  H73      1.0000 0.40920  0.93400  0.38050  Biso   1.000  H
  H74      1.0000 0.06600  0.40920  0.13050  Biso   1.000  H
  H75      1.0000 0.59080  0.06600  0.88050  Biso   1.000  H
  H76      1.0000 0.93400  0.59080  0.63050  Biso   1.000  H
  C61      1.0000 0.17840  0.96850  0.12155  Biso   1.000  C
  C62      1.0000 0.03150  0.17840  0.87155  Biso   1.000  C
  C63      1.0000 0.82160  0.03150  0.62155  Biso   1.000  C
  C64      1.0000 0.96850  0.82160  0.37155  Biso   1.000  C
  C65      1.0000 0.17840  0.03150  0.37845  Biso   1.000  C
  C66      1.0000 0.96850  0.17840  0.12845  Biso   1.000  C
  C67      1.0000 0.82160  0.96850  0.87845  Biso   1.000  C
  C68      1.0000 0.03150  0.82160  0.62845  Biso   1.000  C
  H77      1.0000 0.21110  0.85690  0.11910  Biso   1.000  H
  H78      1.0000 0.14310  0.21110  0.86910  Biso   1.000  H
  H79      1.0000 0.78890  0.14310  0.61910  Biso   1.000  H
  H80      1.0000 0.85690  0.78890  0.36910  Biso   1.000  H
  H81      1.0000 0.21110  0.14310  0.38090  Biso   1.000  H
  H82      1.0000 0.85690  0.21110  0.13090  Biso   1.000  H
  H83      1.0000 0.78890  0.85690  0.88090  Biso   1.000  H
  H84      1.0000 0.14310  0.78890  0.63090  Biso   1.000  H
  C69      1.0000 0.00960  0.00960  0.12500  Biso   1.000  C
  C70      1.0000 0.99040  0.00960  0.87500  Biso   1.000  C
  C71      1.0000 0.99040  0.99040  0.62500  Biso   1.000  C
  C72      1.0000 0.00960  0.99040  0.37500  Biso   1.000  C
  C73      1.0000 0.87710  0.87710  0.12500  Biso   1.000  C
  C74      1.0000 0.12290  0.87710  0.87500  Biso   1.000  C
  C75      1.0000 0.12290  0.12290  0.62500  Biso   1.000  C
  C76      1.0000 0.87710  0.12290  0.37500  Biso   1.000  C
  C77      1.0000 0.89830  0.72590  0.11128  Biso   1.000  C
  C78      1.0000 0.27410  0.89830  0.86128  Biso   1.000  C
  C79      1.0000 0.10170  0.27410  0.61128  Biso   1.000  C
  C80      1.0000 0.72590  0.10170  0.36128  Biso   1.000  C
  C81      1.0000 0.89830  0.27410  0.38872  Biso   1.000  C
  C82      1.0000 0.72590  0.89830  0.13872  Biso   1.000  C
  C83      1.0000 0.10170  0.72590  0.88872  Biso   1.000  C
  C84      1.0000 0.27410  0.10170  0.63872  Biso   1.000  C
  H85      1.0000 0.99720  0.70500  0.10180  Biso   1.000  H
  H86      1.0000 0.29500  0.99720  0.85180  Biso   1.000  H
  H87      1.0000 0.00280  0.29500  0.60180  Biso   1.000  H
  H88      1.0000 0.70500  0.00280  0.35180  Biso   1.000  H
  H89      1.0000 0.99720  0.29500  0.39820  Biso   1.000  H
  H90      1.0000 0.70500  0.99720  0.14820  Biso   1.000  H
  H91      1.0000 0.00280  0.70500  0.89820  Biso   1.000  H
  H92      1.0000 0.29500  0.00280  0.64820  Biso   1.000  H
  N17      1.0000 0.62610  0.62610  0.12500  Biso   1.000  N
  N18      1.0000 0.37390  0.62610  0.87500  Biso   1.000  N
  N19      1.0000 0.37390  0.37390  0.62500  Biso   1.000  N
  N20      1.0000 0.62610  0.37390  0.37500  Biso   1.000  N
  C85      1.0000 0.77100  0.60610  0.11188  Biso   1.000  C
  C86      1.0000 0.39390  0.77100  0.86188  Biso   1.000  C
  C87      1.0000 0.22900  0.39390  0.61188  Biso   1.000  C
  C88      1.0000 0.60610  0.22900  0.36188  Biso   1.000  C
  C89      1.0000 0.77100  0.39390  0.38812  Biso   1.000  C
  C90      1.0000 0.60610  0.77100  0.13812  Biso   1.000  C
  C91      1.0000 0.22900  0.60610  0.88812  Biso   1.000  C
  C92      1.0000 0.39390  0.22900  0.63812  Biso   1.000  C
  H93      1.0000 0.78810  0.50580  0.10250  Biso   1.000  H
  H94      1.0000 0.49420  0.78810  0.85250  Biso   1.000  H
  H95      1.0000 0.21190  0.49420  0.60250  Biso   1.000  H
  H96      1.0000 0.50580  0.21190  0.35250  Biso   1.000  H
  H97      1.0000 0.78810  0.49420  0.39750  Biso   1.000  H
  H98      1.0000 0.50580  0.78810  0.14750  Biso   1.000  H
  H99      1.0000 0.21190  0.50580  0.89750  Biso   1.000  H
  H100     1.0000 0.49420  0.21190  0.64750  Biso   1.000  H
