data_image0
_cell_length_a       12.4964
_cell_length_b       10.375
_cell_length_c       13.568
_cell_angle_alpha    90
_cell_angle_beta     90
_cell_angle_gamma    90

_symmetry_space_group_name_H-M    "P 1"
_symmetry_int_tables_number       1

loop_
  _symmetry_equiv_pos_as_xyz
  'x, y, z'

loop_
  _atom_site_label
  _atom_site_occupancy
  _atom_site_fract_x
  _atom_site_fract_y
  _atom_site_fract_z
  _atom_site_thermal_displace_type
  _atom_site_B_iso_or_equiv
  _atom_site_type_symbol
  Cu1      1.0000 0.50000  0.79324  0.74999  Biso   1.000  Cu
  Cu2      1.0000 0.50000  0.20676  0.25001  Biso   1.000  Cu
  Cu3      1.0000 0.00000  0.00000  0.00000  Biso   1.000  Cu
  Cu4      1.0000 0.00000  0.00000  0.50000  Biso   1.000  Cu
  Cl1      1.0000 0.54653  0.84750  0.59430  Biso   1.000  Cl
  Cl2      1.0000 0.45347  0.84750  0.90570  Biso   1.000  Cl
  Cl3      1.0000 0.45347  0.15250  0.40570  Biso   1.000  Cl
  Cl4      1.0000 0.54653  0.15250  0.09430  Biso   1.000  Cl
  Cl5      1.0000 0.95154  0.17950  0.08708  Biso   1.000  Cl
  Cl6      1.0000 0.04846  0.17950  0.41292  Biso   1.000  Cl
  Cl7      1.0000 0.04846  0.82050  0.91292  Biso   1.000  Cl
  Cl8      1.0000 0.95154  0.82050  0.58708  Biso   1.000  Cl
  N1       1.0000 0.18290  0.26330  0.16810  Biso   1.000  N
  N2       1.0000 0.81710  0.26330  0.33190  Biso   1.000  N
  N3       1.0000 0.81710  0.73670  0.83190  Biso   1.000  N
  N4       1.0000 0.18290  0.73670  0.66810  Biso   1.000  N
  N5       1.0000 0.35630  0.25450  0.20510  Biso   1.000  N
  N6       1.0000 0.64370  0.25450  0.29490  Biso   1.000  N
  N7       1.0000 0.64370  0.74550  0.79490  Biso   1.000  N
  N8       1.0000 0.35630  0.74550  0.70510  Biso   1.000  N
  N9       1.0000 0.31270  0.11310  0.99240  Biso   1.000  N
  N10      1.0000 0.68730  0.11310  0.50760  Biso   1.000  N
  N11      1.0000 0.68730  0.88690  0.00760  Biso   1.000  N
  N12      1.0000 0.31270  0.88690  0.49240  Biso   1.000  N
  N13      1.0000 0.14030  0.07470  0.97990  Biso   1.000  N
  N14      1.0000 0.85970  0.07470  0.52010  Biso   1.000  N
  N15      1.0000 0.85970  0.92530  0.02010  Biso   1.000  N
  N16      1.0000 0.14030  0.92530  0.47990  Biso   1.000  N
  C1       1.0000 0.24650  0.06100  0.25140  Biso   1.000  C
  C2       1.0000 0.75350  0.06100  0.24860  Biso   1.000  C
  C3       1.0000 0.75350  0.93900  0.74860  Biso   1.000  C
  C4       1.0000 0.24650  0.93900  0.75140  Biso   1.000  C
  C5       1.0000 0.30080  0.96080  0.19230  Biso   1.000  C
  C6       1.0000 0.69920  0.96080  0.30770  Biso   1.000  C
  C7       1.0000 0.69920  0.03920  0.80770  Biso   1.000  C
  C8       1.0000 0.30080  0.03920  0.69230  Biso   1.000  C
  C9       1.0000 0.24830  0.92830  0.09190  Biso   1.000  C
  C10      1.0000 0.75170  0.92830  0.40810  Biso   1.000  C
  C11      1.0000 0.75170  0.07170  0.90810  Biso   1.000  C
  C12      1.0000 0.24830  0.07170  0.59190  Biso   1.000  C
  C13      1.0000 0.26240  0.19320  0.21040  Biso   1.000  C
  C14      1.0000 0.73760  0.19320  0.28960  Biso   1.000  C
  C15      1.0000 0.73760  0.80680  0.78960  Biso   1.000  C
  C16      1.0000 0.26240  0.80680  0.71040  Biso   1.000  C
  C17      1.0000 0.33550  0.36850  0.15130  Biso   1.000  C
  C18      1.0000 0.66450  0.36850  0.34870  Biso   1.000  C
  C19      1.0000 0.66450  0.63150  0.84870  Biso   1.000  C
  C20      1.0000 0.33550  0.63150  0.65130  Biso   1.000  C
  C21      1.0000 0.22560  0.37460  0.12880  Biso   1.000  C
  C22      1.0000 0.77440  0.37460  0.37120  Biso   1.000  C
  C23      1.0000 0.77440  0.62540  0.87120  Biso   1.000  C
  C24      1.0000 0.22560  0.62540  0.62880  Biso   1.000  C
  C25      1.0000 0.18150  0.47500  0.07450  Biso   1.000  C
  C26      1.0000 0.81850  0.47500  0.42550  Biso   1.000  C
  C27      1.0000 0.81850  0.52500  0.92550  Biso   1.000  C
  C28      1.0000 0.18150  0.52500  0.57450  Biso   1.000  C
  C29      1.0000 0.25010  0.56890  0.04300  Biso   1.000  C
  C30      1.0000 0.74990  0.56890  0.45700  Biso   1.000  C
  C31      1.0000 0.74990  0.43110  0.95700  Biso   1.000  C
  C32      1.0000 0.25010  0.43110  0.54300  Biso   1.000  C
  C33      1.0000 0.36010  0.56420  0.06620  Biso   1.000  C
  C34      1.0000 0.63990  0.56420  0.43380  Biso   1.000  C
  C35      1.0000 0.63990  0.43580  0.93380  Biso   1.000  C
  C36      1.0000 0.36010  0.43580  0.56620  Biso   1.000  C
  C37      1.0000 0.40340  0.46380  0.12060  Biso   1.000  C
  C38      1.0000 0.59660  0.46380  0.37940  Biso   1.000  C
  C39      1.0000 0.59660  0.53620  0.87940  Biso   1.000  C
  C40      1.0000 0.40340  0.53620  0.62060  Biso   1.000  C
  C41      1.0000 0.23230  0.03750  0.02110  Biso   1.000  C
  C42      1.0000 0.76770  0.03750  0.47890  Biso   1.000  C
  C43      1.0000 0.76770  0.96250  0.97890  Biso   1.000  C
  C44      1.0000 0.23230  0.96250  0.52110  Biso   1.000  C
  C45      1.0000 0.16280  0.18070  0.92070  Biso   1.000  C
  C46      1.0000 0.83720  0.18070  0.57930  Biso   1.000  C
  C47      1.0000 0.83720  0.81930  0.07930  Biso   1.000  C
  C48      1.0000 0.16280  0.81930  0.42070  Biso   1.000  C
  C49      1.0000 0.27200  0.20630  0.92900  Biso   1.000  C
  C50      1.0000 0.72800  0.20630  0.57100  Biso   1.000  C
  C51      1.0000 0.72800  0.79370  0.07100  Biso   1.000  C
  C52      1.0000 0.27200  0.79370  0.42900  Biso   1.000  C
  C53      1.0000 0.31980  0.30580  0.87830  Biso   1.000  C
  C54      1.0000 0.68020  0.30580  0.62170  Biso   1.000  C
  C55      1.0000 0.68020  0.69420  0.12170  Biso   1.000  C
  C56      1.0000 0.31980  0.69420  0.37830  Biso   1.000  C
  C57      1.0000 0.25120  0.38170  0.82080  Biso   1.000  C
  C58      1.0000 0.74880  0.38170  0.67920  Biso   1.000  C
  C59      1.0000 0.74880  0.61830  0.17920  Biso   1.000  C
  C60      1.0000 0.25120  0.61830  0.32080  Biso   1.000  C
  C61      1.0000 0.14150  0.35780  0.81390  Biso   1.000  C
  C62      1.0000 0.85850  0.35780  0.68610  Biso   1.000  C
  C63      1.0000 0.85850  0.64220  0.18610  Biso   1.000  C
  C64      1.0000 0.14150  0.64220  0.31390  Biso   1.000  C
  C65      1.0000 0.09530  0.25910  0.86270  Biso   1.000  C
  C66      1.0000 0.90470  0.25910  0.63730  Biso   1.000  C
  C67      1.0000 0.90470  0.74090  0.13730  Biso   1.000  C
  C68      1.0000 0.09530  0.74090  0.36270  Biso   1.000  C
  H1       1.0000 0.27460  0.05830  0.31880  Biso   1.000  H
  H2       1.0000 0.72540  0.05830  0.18120  Biso   1.000  H
  H3       1.0000 0.72540  0.94170  0.68120  Biso   1.000  H
  H4       1.0000 0.27460  0.94170  0.81880  Biso   1.000  H
  H5       1.0000 0.17050  0.04230  0.25250  Biso   1.000  H
  H6       1.0000 0.82950  0.04230  0.24750  Biso   1.000  H
  H7       1.0000 0.82950  0.95770  0.74750  Biso   1.000  H
  H8       1.0000 0.17050  0.95770  0.75250  Biso   1.000  H
  H9       1.0000 0.30500  0.88230  0.23110  Biso   1.000  H
  H10      1.0000 0.69500  0.88230  0.26890  Biso   1.000  H
  H11      1.0000 0.69500  0.11770  0.76890  Biso   1.000  H
  H12      1.0000 0.30500  0.11770  0.73110  Biso   1.000  H
  H13      1.0000 0.37350  0.98910  0.18160  Biso   1.000  H
  H14      1.0000 0.62650  0.98910  0.31840  Biso   1.000  H
  H15      1.0000 0.62650  0.01090  0.81840  Biso   1.000  H
  H16      1.0000 0.37350  0.01090  0.68160  Biso   1.000  H
  H17      1.0000 0.29180  0.86340  0.06060  Biso   1.000  H
  H18      1.0000 0.70820  0.86340  0.43940  Biso   1.000  H
  H19      1.0000 0.70820  0.13660  0.93940  Biso   1.000  H
  H20      1.0000 0.29180  0.13660  0.56060  Biso   1.000  H
  H21      1.0000 0.17900  0.88970  0.10330  Biso   1.000  H
  H22      1.0000 0.82100  0.88970  0.39670  Biso   1.000  H
  H23      1.0000 0.82100  0.11030  0.89670  Biso   1.000  H
  H24      1.0000 0.17900  0.11030  0.60330  Biso   1.000  H
  H25      1.0000 0.11620  0.24240  0.16580  Biso   1.000  H
  H26      1.0000 0.88380  0.24240  0.33420  Biso   1.000  H
  H27      1.0000 0.88380  0.75760  0.83420  Biso   1.000  H
  H28      1.0000 0.11620  0.75760  0.66580  Biso   1.000  H
  H29      1.0000 0.10840  0.47890  0.05990  Biso   1.000  H
  H30      1.0000 0.89160  0.47890  0.44010  Biso   1.000  H
  H31      1.0000 0.89160  0.52110  0.94010  Biso   1.000  H
  H32      1.0000 0.10840  0.52110  0.55990  Biso   1.000  H
  H33      1.0000 0.22290  0.63710  0.00550  Biso   1.000  H
  H34      1.0000 0.77710  0.63710  0.49450  Biso   1.000  H
  H35      1.0000 0.77710  0.36290  0.99450  Biso   1.000  H
  H36      1.0000 0.22290  0.36290  0.50550  Biso   1.000  H
  H37      1.0000 0.40440  0.62970  0.04460  Biso   1.000  H
  H38      1.0000 0.59560  0.62970  0.45540  Biso   1.000  H
  H39      1.0000 0.59560  0.37030  0.95540  Biso   1.000  H
  H40      1.0000 0.40440  0.37030  0.54460  Biso   1.000  H
  H41      1.0000 0.47640  0.46060  0.13600  Biso   1.000  H
  H42      1.0000 0.52360  0.46060  0.36400  Biso   1.000  H
  H43      1.0000 0.52360  0.53940  0.86400  Biso   1.000  H
  H44      1.0000 0.47640  0.53940  0.63600  Biso   1.000  H
  H45      1.0000 0.37890  0.10480  0.01040  Biso   1.000  H
  H46      1.0000 0.62110  0.10480  0.48960  Biso   1.000  H
  H47      1.0000 0.62110  0.89520  0.98960  Biso   1.000  H
  H48      1.0000 0.37890  0.89520  0.51040  Biso   1.000  H
  H49      1.0000 0.39320  0.32090  0.88260  Biso   1.000  H
  H50      1.0000 0.60680  0.32090  0.61740  Biso   1.000  H
  H51      1.0000 0.60680  0.67910  0.11740  Biso   1.000  H
  H52      1.0000 0.39320  0.67910  0.38260  Biso   1.000  H
  H53      1.0000 0.27920  0.45050  0.78590  Biso   1.000  H
  H54      1.0000 0.72080  0.45050  0.71410  Biso   1.000  H
  H55      1.0000 0.72080  0.54950  0.21410  Biso   1.000  H
  H56      1.0000 0.27920  0.54950  0.28590  Biso   1.000  H
  H57      1.0000 0.09860  0.41130  0.77450  Biso   1.000  H
  H58      1.0000 0.90140  0.41130  0.72550  Biso   1.000  H
  H59      1.0000 0.90140  0.58870  0.22550  Biso   1.000  H
  H60      1.0000 0.09860  0.58870  0.27450  Biso   1.000  H
  H61      1.0000 0.02190  0.24430  0.85780  Biso   1.000  H
  H62      1.0000 0.97810  0.24430  0.64220  Biso   1.000  H
  H63      1.0000 0.97810  0.75570  0.14220  Biso   1.000  H
  H64      1.0000 0.02190  0.75570  0.35780  Biso   1.000  H
  C69      1.0000 0.19480  0.95640  0.18890  Biso   1.000  C
  C70      1.0000 0.80520  0.95640  0.31110  Biso   1.000  C
  C71      1.0000 0.80520  0.04360  0.81110  Biso   1.000  C
  C72      1.0000 0.19480  0.04360  0.68890  Biso   1.000  C
  H65      1.0000 0.20420  0.07020  0.30990  Biso   1.000  H
  H66      1.0000 0.79580  0.07020  0.19010  Biso   1.000  H
  H67      1.0000 0.79580  0.92980  0.69010  Biso   1.000  H
  H68      1.0000 0.20420  0.92980  0.80990  Biso   1.000  H
  H69      1.0000 0.31630  0.02950  0.27330  Biso   1.000  H
  H70      1.0000 0.68370  0.02950  0.22670  Biso   1.000  H
  H71      1.0000 0.68370  0.97050  0.72670  Biso   1.000  H
  H72      1.0000 0.31630  0.97050  0.77330  Biso   1.000  H
  H73      1.0000 0.12100  0.98050  0.17460  Biso   1.000  H
  H74      1.0000 0.87900  0.98050  0.32540  Biso   1.000  H
  H75      1.0000 0.87900  0.01950  0.82540  Biso   1.000  H
  H76      1.0000 0.12100  0.01950  0.67460  Biso   1.000  H
  H77      1.0000 0.19390  0.87760  0.22730  Biso   1.000  H
  H78      1.0000 0.80610  0.87760  0.27270  Biso   1.000  H
  H79      1.0000 0.80610  0.12240  0.77270  Biso   1.000  H
  H80      1.0000 0.19390  0.12240  0.72730  Biso   1.000  H
  H81      1.0000 0.32430  0.91450  0.10410  Biso   1.000  H
  H82      1.0000 0.67570  0.91450  0.39590  Biso   1.000  H
  H83      1.0000 0.67570  0.08550  0.89590  Biso   1.000  H
  H84      1.0000 0.32430  0.08550  0.60410  Biso   1.000  H
  H85      1.0000 0.21840  0.85010  0.06320  Biso   1.000  H
  H86      1.0000 0.78160  0.85010  0.43680  Biso   1.000  H
  H87      1.0000 0.78160  0.14990  0.93680  Biso   1.000  H
  H88      1.0000 0.21840  0.14990  0.56320  Biso   1.000  H
