data_image0
_cell_length_a       12.3032
_cell_length_b       11.0287
_cell_length_c       19.618
_cell_angle_alpha    90
_cell_angle_beta     90.411
_cell_angle_gamma    90

_symmetry_space_group_name_H-M    "P 1"
_symmetry_int_tables_number       1

loop_
  _symmetry_equiv_pos_as_xyz
  'x, y, z'

loop_
  _atom_site_label
  _atom_site_occupancy
  _atom_site_fract_x
  _atom_site_fract_y
  _atom_site_fract_z
  _atom_site_thermal_displace_type
  _atom_site_B_iso_or_equiv
  _atom_site_type_symbol
  Cu1      1.0000 0.50000  0.60139  0.75000  Biso   1.000  Cu
  Cu2      1.0000 0.00000  0.10139  0.75000  Biso   1.000  Cu
  Cu3      1.0000 0.50000  0.39861  0.25000  Biso   1.000  Cu
  Cu4      1.0000 0.00000  0.89861  0.25000  Biso   1.000  Cu
  Cl1      1.0000 0.95738  0.59316  0.42177  Biso   1.000  Cl
  Cl2      1.0000 0.04262  0.59316  0.07823  Biso   1.000  Cl
  Cl3      1.0000 0.45738  0.09316  0.42177  Biso   1.000  Cl
  Cl4      1.0000 0.54262  0.09316  0.07823  Biso   1.000  Cl
  Cl5      1.0000 0.04262  0.40684  0.57823  Biso   1.000  Cl
  Cl6      1.0000 0.95738  0.40684  0.92177  Biso   1.000  Cl
  Cl7      1.0000 0.54262  0.90684  0.57823  Biso   1.000  Cl
  Cl8      1.0000 0.45738  0.90684  0.92177  Biso   1.000  Cl
  S1       1.0000 0.76925  0.38793  0.41746  Biso   1.000  S
  S2       1.0000 0.23075  0.38793  0.08254  Biso   1.000  S
  S3       1.0000 0.26925  0.88793  0.41746  Biso   1.000  S
  S4       1.0000 0.73075  0.88793  0.08254  Biso   1.000  S
  S5       1.0000 0.23075  0.61207  0.58254  Biso   1.000  S
  S6       1.0000 0.76925  0.61207  0.91746  Biso   1.000  S
  S7       1.0000 0.73075  0.11207  0.58254  Biso   1.000  S
  S8       1.0000 0.26925  0.11207  0.91746  Biso   1.000  S
  O1       1.0000 0.64107  0.60915  0.69927  Biso   1.000  O
  O2       1.0000 0.35893  0.60915  0.80073  Biso   1.000  O
  O3       1.0000 0.14107  0.10915  0.69927  Biso   1.000  O
  O4       1.0000 0.85893  0.10915  0.80073  Biso   1.000  O
  O5       1.0000 0.35893  0.39085  0.30073  Biso   1.000  O
  O6       1.0000 0.64107  0.39085  0.19927  Biso   1.000  O
  O7       1.0000 0.85893  0.89085  0.30073  Biso   1.000  O
  O8       1.0000 0.14107  0.89085  0.19927  Biso   1.000  O
  O9       1.0000 0.51707  0.56242  0.62049  Biso   1.000  O
  O10      1.0000 0.48293  0.56242  0.87951  Biso   1.000  O
  O11      1.0000 0.01707  0.06242  0.62049  Biso   1.000  O
  O12      1.0000 0.98293  0.06242  0.87951  Biso   1.000  O
  O13      1.0000 0.48293  0.43758  0.37951  Biso   1.000  O
  O14      1.0000 0.51707  0.43758  0.12049  Biso   1.000  O
  O15      1.0000 0.98293  0.93758  0.37951  Biso   1.000  O
  O16      1.0000 0.01707  0.93758  0.12049  Biso   1.000  O
  O17      1.0000 0.76368  0.44318  0.35136  Biso   1.000  O
  O18      1.0000 0.23632  0.44318  0.14864  Biso   1.000  O
  O19      1.0000 0.26368  0.94318  0.35136  Biso   1.000  O
  O20      1.0000 0.73632  0.94318  0.14864  Biso   1.000  O
  O21      1.0000 0.23632  0.55682  0.64864  Biso   1.000  O
  O22      1.0000 0.76368  0.55682  0.85136  Biso   1.000  O
  O23      1.0000 0.73632  0.05682  0.64864  Biso   1.000  O
  O24      1.0000 0.26368  0.05682  0.85136  Biso   1.000  O
  O25      1.0000 0.85927  0.30901  0.43429  Biso   1.000  O
  O26      1.0000 0.14073  0.30901  0.06571  Biso   1.000  O
  O27      1.0000 0.35927  0.80901  0.43429  Biso   1.000  O
  O28      1.0000 0.64073  0.80901  0.06571  Biso   1.000  O
  O29      1.0000 0.14073  0.69099  0.56571  Biso   1.000  O
  O30      1.0000 0.85927  0.69099  0.93429  Biso   1.000  O
  O31      1.0000 0.64073  0.19099  0.56571  Biso   1.000  O
  O32      1.0000 0.35927  0.19099  0.93429  Biso   1.000  O
  N1       1.0000 0.65985  0.31107  0.42752  Biso   1.000  N
  N2       1.0000 0.34015  0.31107  0.07248  Biso   1.000  N
  N3       1.0000 0.15985  0.81107  0.42752  Biso   1.000  N
  N4       1.0000 0.84015  0.81107  0.07248  Biso   1.000  N
  N5       1.0000 0.34015  0.68893  0.57248  Biso   1.000  N
  N6       1.0000 0.65985  0.68893  0.92752  Biso   1.000  N
  N7       1.0000 0.84015  0.18893  0.57248  Biso   1.000  N
  N8       1.0000 0.15985  0.18893  0.92752  Biso   1.000  N
  H1       1.0000 0.65560  0.26800  0.46480  Biso   1.000  H
  H2       1.0000 0.34440  0.26800  0.03520  Biso   1.000  H
  H3       1.0000 0.15560  0.76800  0.46480  Biso   1.000  H
  H4       1.0000 0.84440  0.76800  0.03520  Biso   1.000  H
  H5       1.0000 0.34440  0.73200  0.53520  Biso   1.000  H
  H6       1.0000 0.65560  0.73200  0.96480  Biso   1.000  H
  H7       1.0000 0.84440  0.23200  0.53520  Biso   1.000  H
  H8       1.0000 0.15560  0.23200  0.96480  Biso   1.000  H
  H9       1.0000 0.60150  0.34700  0.41410  Biso   1.000  H
  H10      1.0000 0.39850  0.34700  0.08590  Biso   1.000  H
  H11      1.0000 0.10150  0.84700  0.41410  Biso   1.000  H
  H12      1.0000 0.89850  0.84700  0.08590  Biso   1.000  H
  H13      1.0000 0.39850  0.65300  0.58590  Biso   1.000  H
  H14      1.0000 0.60150  0.65300  0.91410  Biso   1.000  H
  H15      1.0000 0.89850  0.15300  0.58590  Biso   1.000  H
  H16      1.0000 0.10150  0.15300  0.91410  Biso   1.000  H
  N9       1.0000 0.50000  0.78043  0.75000  Biso   1.000  N
  N10      1.0000 0.00000  0.28043  0.75000  Biso   1.000  N
  N11      1.0000 0.50000  0.21957  0.25000  Biso   1.000  N
  N12      1.0000 0.00000  0.71957  0.25000  Biso   1.000  N
  N13      1.0000 0.50000  0.42181  0.75000  Biso   1.000  N
  N14      1.0000 0.00000  0.92181  0.75000  Biso   1.000  N
  N15      1.0000 0.50000  0.57819  0.25000  Biso   1.000  N
  N16      1.0000 0.00000  0.07819  0.25000  Biso   1.000  N
  C1       1.0000 0.69939  0.58985  0.58436  Biso   1.000  C
  C2       1.0000 0.30061  0.58985  0.91564  Biso   1.000  C
  C3       1.0000 0.19939  0.08985  0.58436  Biso   1.000  C
  C4       1.0000 0.80061  0.08985  0.91564  Biso   1.000  C
  C5       1.0000 0.30061  0.41015  0.41564  Biso   1.000  C
  C6       1.0000 0.69939  0.41015  0.08436  Biso   1.000  C
  C7       1.0000 0.80061  0.91015  0.41564  Biso   1.000  C
  C8       1.0000 0.19939  0.91015  0.08436  Biso   1.000  C
  C9       1.0000 0.69215  0.50761  0.53046  Biso   1.000  C
  C10      1.0000 0.30785  0.50761  0.96954  Biso   1.000  C
  C11      1.0000 0.19215  0.00761  0.53046  Biso   1.000  C
  C12      1.0000 0.80785  0.00761  0.96954  Biso   1.000  C
  C13      1.0000 0.30785  0.49239  0.46954  Biso   1.000  C
  C14      1.0000 0.69215  0.49239  0.03046  Biso   1.000  C
  C15      1.0000 0.80785  0.99239  0.46954  Biso   1.000  C
  C16      1.0000 0.19215  0.99239  0.03046  Biso   1.000  C
  H17      1.0000 0.63470  0.45200  0.52840  Biso   1.000  H
  H18      1.0000 0.36530  0.45200  0.97160  Biso   1.000  H
  H19      1.0000 0.13470  0.95200  0.52840  Biso   1.000  H
  H20      1.0000 0.86530  0.95200  0.97160  Biso   1.000  H
  H21      1.0000 0.36530  0.54800  0.47160  Biso   1.000  H
  H22      1.0000 0.63470  0.54800  0.02840  Biso   1.000  H
  H23      1.0000 0.86530  0.04800  0.47160  Biso   1.000  H
  H24      1.0000 0.13470  0.04800  0.02840  Biso   1.000  H
  C17      1.0000 0.77212  0.50494  0.48059  Biso   1.000  C
  C18      1.0000 0.22788  0.50494  0.01941  Biso   1.000  C
  C19      1.0000 0.27212  0.00494  0.48059  Biso   1.000  C
  C20      1.0000 0.72788  0.00494  0.01941  Biso   1.000  C
  C21      1.0000 0.22788  0.49506  0.51941  Biso   1.000  C
  C22      1.0000 0.77212  0.49506  0.98059  Biso   1.000  C
  C23      1.0000 0.72788  0.99506  0.51941  Biso   1.000  C
  C24      1.0000 0.27212  0.99506  0.98059  Biso   1.000  C
  C25      1.0000 0.85740  0.58909  0.48377  Biso   1.000  C
  C26      1.0000 0.14260  0.58909  0.01623  Biso   1.000  C
  C27      1.0000 0.35740  0.08909  0.48377  Biso   1.000  C
  C28      1.0000 0.64260  0.08909  0.01623  Biso   1.000  C
  C29      1.0000 0.14260  0.41091  0.51623  Biso   1.000  C
  C30      1.0000 0.85740  0.41091  0.98377  Biso   1.000  C
  C31      1.0000 0.64260  0.91091  0.51623  Biso   1.000  C
  C32      1.0000 0.35740  0.91091  0.98377  Biso   1.000  C
  C33      1.0000 0.86446  0.67226  0.53693  Biso   1.000  C
  C34      1.0000 0.13554  0.67226  0.96307  Biso   1.000  C
  C35      1.0000 0.36446  0.17226  0.53693  Biso   1.000  C
  C36      1.0000 0.63554  0.17226  0.96307  Biso   1.000  C
  C37      1.0000 0.13554  0.32774  0.46307  Biso   1.000  C
  C38      1.0000 0.86446  0.32774  0.03693  Biso   1.000  C
  C39      1.0000 0.63554  0.82774  0.46307  Biso   1.000  C
  C40      1.0000 0.36446  0.82774  0.03693  Biso   1.000  C
  H25      1.0000 0.92150  0.72910  0.53770  Biso   1.000  H
  H26      1.0000 0.07850  0.72910  0.96230  Biso   1.000  H
  H27      1.0000 0.42150  0.22910  0.53770  Biso   1.000  H
  H28      1.0000 0.57850  0.22910  0.96230  Biso   1.000  H
  H29      1.0000 0.07850  0.27090  0.46230  Biso   1.000  H
  H30      1.0000 0.92150  0.27090  0.03770  Biso   1.000  H
  H31      1.0000 0.57850  0.77090  0.46230  Biso   1.000  H
  H32      1.0000 0.42150  0.77090  0.03770  Biso   1.000  H
  C41      1.0000 0.78575  0.67125  0.58769  Biso   1.000  C
  C42      1.0000 0.21425  0.67125  0.91231  Biso   1.000  C
  C43      1.0000 0.28575  0.17125  0.58769  Biso   1.000  C
  C44      1.0000 0.71425  0.17125  0.91231  Biso   1.000  C
  C45      1.0000 0.21425  0.32875  0.41231  Biso   1.000  C
  C46      1.0000 0.78575  0.32875  0.08769  Biso   1.000  C
  C47      1.0000 0.71425  0.82875  0.41231  Biso   1.000  C
  C48      1.0000 0.28575  0.82875  0.08769  Biso   1.000  C
  H33      1.0000 0.79270  0.72490  0.62430  Biso   1.000  H
  H34      1.0000 0.20730  0.72490  0.87570  Biso   1.000  H
  H35      1.0000 0.29270  0.22490  0.62430  Biso   1.000  H
  H36      1.0000 0.70730  0.22490  0.87570  Biso   1.000  H
  H37      1.0000 0.20730  0.27510  0.37570  Biso   1.000  H
  H38      1.0000 0.79270  0.27510  0.12430  Biso   1.000  H
  H39      1.0000 0.70730  0.77510  0.37570  Biso   1.000  H
  H40      1.0000 0.29270  0.77510  0.12430  Biso   1.000  H
  C49      1.0000 0.61212  0.58727  0.63763  Biso   1.000  C
  C50      1.0000 0.38788  0.58727  0.86237  Biso   1.000  C
  C51      1.0000 0.11212  0.08727  0.63763  Biso   1.000  C
  C52      1.0000 0.88788  0.08727  0.86237  Biso   1.000  C
  C53      1.0000 0.38788  0.41273  0.36237  Biso   1.000  C
  C54      1.0000 0.61212  0.41273  0.13763  Biso   1.000  C
  C55      1.0000 0.88788  0.91273  0.36237  Biso   1.000  C
  C56      1.0000 0.11212  0.91273  0.13763  Biso   1.000  C
  C57      1.0000 0.41209  0.84267  0.72859  Biso   1.000  C
  C58      1.0000 0.58791  0.84267  0.77141  Biso   1.000  C
  C59      1.0000 0.91209  0.34267  0.72859  Biso   1.000  C
  C60      1.0000 0.08791  0.34267  0.77141  Biso   1.000  C
  C61      1.0000 0.58791  0.15733  0.27141  Biso   1.000  C
  C62      1.0000 0.41209  0.15733  0.22859  Biso   1.000  C
  C63      1.0000 0.08791  0.65733  0.27141  Biso   1.000  C
  C64      1.0000 0.91209  0.65733  0.22859  Biso   1.000  C
  H41      1.0000 0.35240  0.79580  0.71160  Biso   1.000  H
  H42      1.0000 0.64760  0.79580  0.78840  Biso   1.000  H
  H43      1.0000 0.85240  0.29580  0.71160  Biso   1.000  H
  H44      1.0000 0.14760  0.29580  0.78840  Biso   1.000  H
  H45      1.0000 0.64760  0.20420  0.28840  Biso   1.000  H
  H46      1.0000 0.35240  0.20420  0.21160  Biso   1.000  H
  H47      1.0000 0.14760  0.70420  0.28840  Biso   1.000  H
  H48      1.0000 0.85240  0.70420  0.21160  Biso   1.000  H
  C65      1.0000 0.40932  0.96841  0.72754  Biso   1.000  C
  C66      1.0000 0.59068  0.96841  0.77246  Biso   1.000  C
  C67      1.0000 0.90932  0.46841  0.72754  Biso   1.000  C
  C68      1.0000 0.09068  0.46841  0.77246  Biso   1.000  C
  C69      1.0000 0.59068  0.03159  0.27246  Biso   1.000  C
  C70      1.0000 0.40932  0.03159  0.22754  Biso   1.000  C
  C71      1.0000 0.09068  0.53159  0.27246  Biso   1.000  C
  C72      1.0000 0.90932  0.53159  0.22754  Biso   1.000  C
  H49      1.0000 0.34610  0.00650  0.71000  Biso   1.000  H
  H50      1.0000 0.65390  0.00650  0.79000  Biso   1.000  H
  H51      1.0000 0.84610  0.50650  0.71000  Biso   1.000  H
  H52      1.0000 0.15390  0.50650  0.79000  Biso   1.000  H
  H53      1.0000 0.65390  0.99350  0.29000  Biso   1.000  H
  H54      1.0000 0.34610  0.99350  0.21000  Biso   1.000  H
  H55      1.0000 0.15390  0.49350  0.29000  Biso   1.000  H
  H56      1.0000 0.84610  0.49350  0.21000  Biso   1.000  H
  C73      1.0000 0.50000  0.03359  0.75000  Biso   1.000  C
  C74      1.0000 0.00000  0.53359  0.75000  Biso   1.000  C
  C75      1.0000 0.50000  0.96641  0.25000  Biso   1.000  C
  C76      1.0000 0.00000  0.46641  0.25000  Biso   1.000  C
  C77      1.0000 0.50000  0.16857  0.75000  Biso   1.000  C
  C78      1.0000 0.00000  0.66857  0.75000  Biso   1.000  C
  C79      1.0000 0.50000  0.83143  0.25000  Biso   1.000  C
  C80      1.0000 0.00000  0.33143  0.25000  Biso   1.000  C
  C81      1.0000 0.59746  0.23370  0.75186  Biso   1.000  C
  C82      1.0000 0.40254  0.23370  0.74814  Biso   1.000  C
  C83      1.0000 0.09746  0.73370  0.75186  Biso   1.000  C
  C84      1.0000 0.90254  0.73370  0.74814  Biso   1.000  C
  C85      1.0000 0.40254  0.76630  0.24814  Biso   1.000  C
  C86      1.0000 0.59746  0.76630  0.25186  Biso   1.000  C
  C87      1.0000 0.90254  0.26630  0.24814  Biso   1.000  C
  C88      1.0000 0.09746  0.26630  0.25186  Biso   1.000  C
  H57      1.0000 0.66740  0.19540  0.75300  Biso   1.000  H
  H58      1.0000 0.33260  0.19540  0.74700  Biso   1.000  H
  H59      1.0000 0.16740  0.69540  0.75300  Biso   1.000  H
  H60      1.0000 0.83260  0.69540  0.74700  Biso   1.000  H
  H61      1.0000 0.33260  0.80460  0.24700  Biso   1.000  H
  H62      1.0000 0.66740  0.80460  0.25300  Biso   1.000  H
  H63      1.0000 0.83260  0.30460  0.24700  Biso   1.000  H
  H64      1.0000 0.16740  0.30460  0.25300  Biso   1.000  H
  C89      1.0000 0.59408  0.35932  0.75290  Biso   1.000  C
  C90      1.0000 0.40592  0.35932  0.74710  Biso   1.000  C
  C91      1.0000 0.09408  0.85932  0.75290  Biso   1.000  C
  C92      1.0000 0.90592  0.85932  0.74710  Biso   1.000  C
  C93      1.0000 0.40592  0.64068  0.24710  Biso   1.000  C
  C94      1.0000 0.59408  0.64068  0.25290  Biso   1.000  C
  C95      1.0000 0.90592  0.14068  0.24710  Biso   1.000  C
  C96      1.0000 0.09408  0.14068  0.25290  Biso   1.000  C
  H65      1.0000 0.65650  0.40650  0.75430  Biso   1.000  H
  H66      1.0000 0.34350  0.40650  0.74570  Biso   1.000  H
  H67      1.0000 0.15650  0.90650  0.75430  Biso   1.000  H
  H68      1.0000 0.84350  0.90650  0.74570  Biso   1.000  H
  H69      1.0000 0.34350  0.59350  0.24570  Biso   1.000  H
  H70      1.0000 0.65650  0.59350  0.25430  Biso   1.000  H
  H71      1.0000 0.84350  0.09350  0.24570  Biso   1.000  H
  H72      1.0000 0.15650  0.09350  0.25430  Biso   1.000  H
