data_image0
_cell_length_a       6.85
_cell_length_b       9.071
_cell_length_c       11.208
_cell_angle_alpha    74.68
_cell_angle_beta     74.46
_cell_angle_gamma    71.13

_symmetry_space_group_name_H-M    "P 1"
_symmetry_int_tables_number       1

loop_
  _symmetry_equiv_pos_as_xyz
  'x, y, z'

loop_
  _atom_site_label
  _atom_site_occupancy
  _atom_site_fract_x
  _atom_site_fract_y
  _atom_site_fract_z
  _atom_site_thermal_displace_type
  _atom_site_B_iso_or_equiv
  _atom_site_type_symbol
  Cu1      1.0000 0.00000  0.00000  0.00000  Biso   1.000  Cu
  O1       1.0000 0.81200  0.03810  0.16292  Biso   1.000  O
  O2       1.0000 0.18800  0.96190  0.83708  Biso   1.000  O
  O3       1.0000 0.12530  0.00740  0.19560  Biso   1.000  O
  O4       1.0000 0.87470  0.99260  0.80440  Biso   1.000  O
  O5       1.0000 0.61050  0.79920  0.82180  Biso   1.000  O
  O6       1.0000 0.38950  0.20080  0.17820  Biso   1.000  O
  N1       1.0000 0.97790  0.22950  0.94360  Biso   1.000  N
  N2       1.0000 0.02210  0.77050  0.05640  Biso   1.000  N
  C1       1.0000 0.80260  0.34370  0.94720  Biso   1.000  C
  C2       1.0000 0.19740  0.65630  0.05280  Biso   1.000  C
  N3       1.0000 0.83200  0.48550  0.88810  Biso   1.000  N
  N4       1.0000 0.16800  0.51450  0.11190  Biso   1.000  N
  C3       1.0000 0.04310  0.46360  0.84180  Biso   1.000  C
  C4       1.0000 0.95690  0.53640  0.15820  Biso   1.000  C
  C5       1.0000 0.15940  0.56870  0.77190  Biso   1.000  C
  C6       1.0000 0.84060  0.43130  0.22810  Biso   1.000  C
  C7       1.0000 0.37120  0.50600  0.73960  Biso   1.000  C
  C8       1.0000 0.62880  0.49400  0.26040  Biso   1.000  C
  C9       1.0000 0.46540  0.34500  0.77500  Biso   1.000  C
  C10      1.0000 0.53460  0.65500  0.22500  Biso   1.000  C
  C11      1.0000 0.35120  0.24100  0.84470  Biso   1.000  C
  C12      1.0000 0.64880  0.75900  0.15530  Biso   1.000  C
  C13      1.0000 0.13510  0.30220  0.87720  Biso   1.000  C
  C14      1.0000 0.86490  0.69780  0.12280  Biso   1.000  C
  C15      1.0000 0.93410  0.02470  0.23560  Biso   1.000  C
  C16      1.0000 0.06590  0.97530  0.76440  Biso   1.000  C
  C17      1.0000 0.83530  0.02690  0.37140  Biso   1.000  C
  C18      1.0000 0.16470  0.97310  0.62860  Biso   1.000  C
  C19      1.0000 0.77730  0.87220  0.43890  Biso   1.000  C
  C20      1.0000 0.22270  0.12780  0.56110  Biso   1.000  C
  C21      1.0000 0.96230  0.72580  0.43170  Biso   1.000  C
  C22      1.0000 0.03770  0.27420  0.56830  Biso   1.000  C
  C23      1.0000 0.90800  0.57270  0.50490  Biso   1.000  C
  C24      1.0000 0.09200  0.42730  0.49510  Biso   1.000  C
  H1       1.0000 0.67000  0.32500  0.98600  Biso   1.000  H
  H2       1.0000 0.33000  0.67500  0.01400  Biso   1.000  H
  H3       1.0000 0.75200  0.56000  0.88200  Biso   1.000  H
  H4       1.0000 0.24800  0.44000  0.11800  Biso   1.000  H
  H5       1.0000 0.10200  0.67500  0.75100  Biso   1.000  H
  H6       1.0000 0.89800  0.32500  0.24900  Biso   1.000  H
  H7       1.0000 0.44500  0.57100  0.70700  Biso   1.000  H
  H8       1.0000 0.55500  0.42900  0.29300  Biso   1.000  H
  H9       1.0000 0.61400  0.30300  0.74800  Biso   1.000  H
  H10      1.0000 0.38600  0.69700  0.25200  Biso   1.000  H
  H11      1.0000 0.40800  0.13900  0.86400  Biso   1.000  H
  H12      1.0000 0.59200  0.86100  0.13600  Biso   1.000  H
  H13      1.0000 0.70600  0.11100  0.38000  Biso   1.000  H
  H14      1.0000 0.29400  0.88900  0.62000  Biso   1.000  H
  H15      1.0000 0.92700  0.03700  0.41300  Biso   1.000  H
  H16      1.0000 0.07300  0.96300  0.58700  Biso   1.000  H
  H17      1.0000 0.66600  0.85900  0.39800  Biso   1.000  H
  H18      1.0000 0.33400  0.14100  0.60200  Biso   1.000  H
  H19      1.0000 0.71700  0.87900  0.52100  Biso   1.000  H
  H20      1.0000 0.28300  0.12100  0.47900  Biso   1.000  H
  H21      1.0000 0.01600  0.71700  0.34400  Biso   1.000  H
  H22      1.0000 0.98400  0.28300  0.65600  Biso   1.000  H
  H23      1.0000 0.06300  0.74200  0.46000  Biso   1.000  H
  H24      1.0000 0.93700  0.25800  0.54000  Biso   1.000  H
  H25      1.0000 0.79500  0.55900  0.47400  Biso   1.000  H
  H26      1.0000 0.20500  0.44100  0.52600  Biso   1.000  H
  H27      1.0000 0.85300  0.58400  0.58900  Biso   1.000  H
  H28      1.0000 0.14700  0.41600  0.41100  Biso   1.000  H
  H29      1.0000 0.51100  0.84500  0.81700  Biso   1.000  H
  H30      1.0000 0.48900  0.15500  0.18300  Biso   1.000  H
  H31      1.0000 0.68400  0.86100  0.81000  Biso   1.000  H
  H32      1.0000 0.31600  0.13900  0.19000  Biso   1.000  H
