data_image0
_cell_length_a       7.338
_cell_length_b       8.6269
_cell_length_c       8.877
_cell_angle_alpha    80.98
_cell_angle_beta     84.62
_cell_angle_gamma    72.65

_symmetry_space_group_name_H-M    "P 1"
_symmetry_int_tables_number       1

loop_
  _symmetry_equiv_pos_as_xyz
  'x, y, z'

loop_
  _atom_site_label
  _atom_site_occupancy
  _atom_site_fract_x
  _atom_site_fract_y
  _atom_site_fract_z
  _atom_site_thermal_displace_type
  _atom_site_B_iso_or_equiv
  _atom_site_type_symbol
  Cu1      1.0000 0.00000  0.00000  0.00000  Biso   1.000  Cu
  O1       1.0000 0.99945  0.95214  0.22482  Biso   1.000  O
  O2       1.0000 0.00055  0.04786  0.77518  Biso   1.000  O
  O3       1.0000 0.90056  0.75293  0.16635  Biso   1.000  O
  O4       1.0000 0.09944  0.24707  0.83365  Biso   1.000  O
  N1       1.0000 0.26635  0.85855  0.98959  Biso   1.000  N
  N2       1.0000 0.73365  0.14145  0.01041  Biso   1.000  N
  C1       1.0000 0.39990  0.85920  0.07840  Biso   1.000  C
  C2       1.0000 0.60010  0.14080  0.92160  Biso   1.000  C
  N3       1.0000 0.57140  0.76040  0.04150  Biso   1.000  N
  N4       1.0000 0.42860  0.23960  0.95850  Biso   1.000  N
  C3       1.0000 0.55060  0.68650  0.92140  Biso   1.000  C
  C4       1.0000 0.44940  0.31350  0.07860  Biso   1.000  C
  C5       1.0000 0.67910  0.56880  0.84020  Biso   1.000  C
  C6       1.0000 0.32090  0.43120  0.15980  Biso   1.000  C
  C7       1.0000 0.60570  0.51700  0.72880  Biso   1.000  C
  C8       1.0000 0.39430  0.48300  0.27120  Biso   1.000  C
  C9       1.0000 0.41350  0.57640  0.69540  Biso   1.000  C
  C10      1.0000 0.58650  0.42360  0.30460  Biso   1.000  C
  C11      1.0000 0.28570  0.69320  0.77450  Biso   1.000  C
  C12      1.0000 0.71430  0.30680  0.22550  Biso   1.000  C
  C13      1.0000 0.35800  0.74830  0.88790  Biso   1.000  C
  C14      1.0000 0.64200  0.25170  0.11210  Biso   1.000  C
  C15      1.0000 0.94120  0.82630  0.26210  Biso   1.000  C
  C16      1.0000 0.05880  0.17370  0.73790  Biso   1.000  C
  C17      1.0000 0.92240  0.76880  0.43130  Biso   1.000  C
  C18      1.0000 0.07760  0.23120  0.56870  Biso   1.000  C
  C19      1.0000 0.77400  0.89650  0.51500  Biso   1.000  C
  C20      1.0000 0.22600  0.10350  0.48500  Biso   1.000  C
  C21      1.0000 0.57420  0.93970  0.45530  Biso   1.000  C
  C22      1.0000 0.42580  0.06030  0.54470  Biso   1.000  C
  H1       1.0000 0.38300  0.92100  0.14600  Biso   1.000  H
  H2       1.0000 0.61700  0.07900  0.85400  Biso   1.000  H
  H3       1.0000 0.65300  0.75000  0.08200  Biso   1.000  H
  H4       1.0000 0.34700  0.25000  0.91800  Biso   1.000  H
  H5       1.0000 0.79900  0.52700  0.86600  Biso   1.000  H
  H6       1.0000 0.20100  0.47300  0.13400  Biso   1.000  H
  H7       1.0000 0.68100  0.43200  0.67100  Biso   1.000  H
  H8       1.0000 0.31900  0.56800  0.32900  Biso   1.000  H
  H9       1.0000 0.38200  0.52600  0.62000  Biso   1.000  H
  H10      1.0000 0.61800  0.47400  0.38000  Biso   1.000  H
  H11      1.0000 0.16300  0.73400  0.75600  Biso   1.000  H
  H12      1.0000 0.83700  0.26600  0.24400  Biso   1.000  H
  H13      1.0000 0.05100  0.74900  0.47700  Biso   1.000  H
  H14      1.0000 0.94900  0.25100  0.52300  Biso   1.000  H
  H15      1.0000 0.89800  0.66200  0.43900  Biso   1.000  H
  H16      1.0000 0.10200  0.33800  0.56100  Biso   1.000  H
  H17      1.0000 0.81000  0.99800  0.50800  Biso   1.000  H
  H18      1.0000 0.19000  0.00200  0.49200  Biso   1.000  H
  H19      1.0000 0.77200  0.85200  0.61300  Biso   1.000  H
  H20      1.0000 0.22800  0.14800  0.38700  Biso   1.000  H
  H21      1.0000 0.57600  0.98900  0.35200  Biso   1.000  H
  H22      1.0000 0.42400  0.01100  0.64800  Biso   1.000  H
  H23      1.0000 0.53600  0.84300  0.45700  Biso   1.000  H
  H24      1.0000 0.46400  0.15700  0.54300  Biso   1.000  H
