data_image0
_cell_length_a       6.794
_cell_length_b       6.794
_cell_length_c       11.9557
_cell_angle_alpha    90
_cell_angle_beta     90
_cell_angle_gamma    90

_symmetry_space_group_name_H-M    "P 1"
_symmetry_int_tables_number       1

loop_
  _symmetry_equiv_pos_as_xyz
  'x, y, z'

loop_
  _atom_site_label
  _atom_site_occupancy
  _atom_site_fract_x
  _atom_site_fract_y
  _atom_site_fract_z
  _atom_site_thermal_displace_type
  _atom_site_B_iso_or_equiv
  _atom_site_type_symbol
  Cu1      1.0000 0.26906  0.73094  0.25000  Biso   1.000  Cu
  Cu2      1.0000 0.73094  0.26906  0.75000  Biso   1.000  Cu
  Cu3      1.0000 0.76906  0.76906  0.50000  Biso   1.000  Cu
  Cu4      1.0000 0.23094  0.23094  0.00000  Biso   1.000  Cu
  O1       1.0000 0.47270  0.25980  0.08576  Biso   1.000  O
  O2       1.0000 0.52730  0.74020  0.58576  Biso   1.000  O
  O3       1.0000 0.24020  0.97270  0.33576  Biso   1.000  O
  O4       1.0000 0.75980  0.02730  0.83576  Biso   1.000  O
  O5       1.0000 0.02730  0.75980  0.16424  Biso   1.000  O
  O6       1.0000 0.97270  0.24020  0.66424  Biso   1.000  O
  O7       1.0000 0.25980  0.47270  0.91424  Biso   1.000  O
  O8       1.0000 0.74020  0.52730  0.41424  Biso   1.000  O
  O9       1.0000 0.29950  0.48240  0.17479  Biso   1.000  O
  O10      1.0000 0.70050  0.51760  0.67479  Biso   1.000  O
  O11      1.0000 0.01760  0.79950  0.42479  Biso   1.000  O
  O12      1.0000 0.98240  0.20050  0.92479  Biso   1.000  O
  O13      1.0000 0.20050  0.98240  0.07521  Biso   1.000  O
  O14      1.0000 0.79950  0.01760  0.57521  Biso   1.000  O
  O15      1.0000 0.48240  0.29950  0.82521  Biso   1.000  O
  O16      1.0000 0.51760  0.70050  0.32521  Biso   1.000  O
  C1       1.0000 0.45410  0.37820  0.16531  Biso   1.000  C
  C2       1.0000 0.54590  0.62180  0.66531  Biso   1.000  C
  C3       1.0000 0.12180  0.95410  0.41531  Biso   1.000  C
  C4       1.0000 0.87820  0.04590  0.91531  Biso   1.000  C
  C5       1.0000 0.04590  0.87820  0.08469  Biso   1.000  C
  C6       1.0000 0.95410  0.12180  0.58469  Biso   1.000  C
  C7       1.0000 0.37820  0.45410  0.83469  Biso   1.000  C
  C8       1.0000 0.62180  0.54590  0.33469  Biso   1.000  C
  C9       1.0000 0.81640  0.30710  0.21310  Biso   1.000  C
  C10      1.0000 0.18360  0.69290  0.71310  Biso   1.000  C
  C11      1.0000 0.19290  0.31640  0.46310  Biso   1.000  C
  C12      1.0000 0.80710  0.68360  0.96310  Biso   1.000  C
  C13      1.0000 0.68360  0.80710  0.03690  Biso   1.000  C
  C14      1.0000 0.31640  0.19290  0.53690  Biso   1.000  C
  C15      1.0000 0.30710  0.81640  0.78690  Biso   1.000  C
  C16      1.0000 0.69290  0.18360  0.28690  Biso   1.000  C
  H1       1.0000 0.83090  0.26620  0.13580  Biso   1.000  H
  H2       1.0000 0.16910  0.73380  0.63580  Biso   1.000  H
  H3       1.0000 0.23380  0.33090  0.38580  Biso   1.000  H
  H4       1.0000 0.76620  0.66910  0.88580  Biso   1.000  H
  H5       1.0000 0.66910  0.76620  0.11420  Biso   1.000  H
  H6       1.0000 0.33090  0.23380  0.61420  Biso   1.000  H
  H7       1.0000 0.26620  0.83090  0.86420  Biso   1.000  H
  H8       1.0000 0.73380  0.16910  0.36420  Biso   1.000  H
  H9       1.0000 0.93240  0.36770  0.24540  Biso   1.000  H
  H10      1.0000 0.06760  0.63230  0.74540  Biso   1.000  H
  H11      1.0000 0.13230  0.43240  0.49540  Biso   1.000  H
  H12      1.0000 0.86770  0.56760  0.99540  Biso   1.000  H
  H13      1.0000 0.56760  0.86770  0.00460  Biso   1.000  H
  H14      1.0000 0.43240  0.13230  0.50460  Biso   1.000  H
  H15      1.0000 0.36770  0.93240  0.75460  Biso   1.000  H
  H16      1.0000 0.63230  0.06760  0.25460  Biso   1.000  H
  C17      1.0000 0.61440  0.38560  0.25000  Biso   1.000  C
  C18      1.0000 0.38560  0.61440  0.75000  Biso   1.000  C
  C19      1.0000 0.11440  0.11440  0.50000  Biso   1.000  C
  C20      1.0000 0.88560  0.88560  0.00000  Biso   1.000  C
