data_image0
_cell_length_a       5.958
_cell_length_b       6.191
_cell_length_c       9.16
_cell_angle_alpha    91.56
_cell_angle_beta     97.19
_cell_angle_gamma    111.4

_symmetry_space_group_name_H-M    "P 1"
_symmetry_int_tables_number       1

loop_
  _symmetry_equiv_pos_as_xyz
  'x, y, z'

loop_
  _atom_site_label
  _atom_site_occupancy
  _atom_site_fract_x
  _atom_site_fract_y
  _atom_site_fract_z
  _atom_site_thermal_displace_type
  _atom_site_B_iso_or_equiv
  _atom_site_type_symbol
  Cu1      1.0000 0.15488  0.09830  0.37719  Biso   1.000  Cu
  Cu2      1.0000 0.84512  0.90170  0.62281  Biso   1.000  Cu
  P1       1.0000 0.60950  0.00270  0.29771  Biso   1.000  P
  P2       1.0000 0.39050  0.99730  0.70229  Biso   1.000  P
  N1       1.0000 0.00770  0.07340  0.15790  Biso   1.000  N
  N2       1.0000 0.99230  0.92660  0.84210  Biso   1.000  N
  O1       1.0000 0.81060  0.98730  0.41750  Biso   1.000  O
  O2       1.0000 0.18940  0.01270  0.58250  Biso   1.000  O
  O3       1.0000 0.43400  0.77020  0.23160  Biso   1.000  O
  O4       1.0000 0.56600  0.22980  0.76840  Biso   1.000  O
  O5       1.0000 0.49090  0.16490  0.35020  Biso   1.000  O
  O6       1.0000 0.50910  0.83510  0.64980  Biso   1.000  O
  O7       1.0000 0.20400  0.46670  0.41770  Biso   1.000  O
  O8       1.0000 0.79600  0.53330  0.58230  Biso   1.000  O
  H1       1.0000 0.30910  0.56290  0.36950  Biso   1.000  H
  H2       1.0000 0.69090  0.43710  0.63050  Biso   1.000  H
  H3       1.0000 0.24480  0.51530  0.50840  Biso   1.000  H
  H4       1.0000 0.75520  0.48470  0.49160  Biso   1.000  H
  C1       1.0000 0.79830  0.15530  0.16170  Biso   1.000  C
  C2       1.0000 0.20170  0.84470  0.83830  Biso   1.000  C
  H5       1.0000 0.86100  0.32170  0.18760  Biso   1.000  H
  H6       1.0000 0.13900  0.67830  0.81240  Biso   1.000  H
  H7       1.0000 0.70070  0.12450  0.06490  Biso   1.000  H
  H8       1.0000 0.29930  0.87550  0.93510  Biso   1.000  H
  C3       1.0000 0.92500  0.82320  0.10050  Biso   1.000  C
  C4       1.0000 0.07500  0.17680  0.89950  Biso   1.000  C
  H9       1.0000 0.80330  0.72880  0.15740  Biso   1.000  H
  H10      1.0000 0.19670  0.27120  0.84260  Biso   1.000  H
  H11      1.0000 0.06260  0.77380  0.11500  Biso   1.000  H
  H12      1.0000 0.93740  0.22620  0.88500  Biso   1.000  H
  C5       1.0000 0.18180  0.22000  0.06200  Biso   1.000  C
  C6       1.0000 0.81820  0.78000  0.93800  Biso   1.000  C
  H13      1.0000 0.32950  0.18630  0.07540  Biso   1.000  H
  H14      1.0000 0.67050  0.81370  0.92460  Biso   1.000  H
  H15      1.0000 0.22540  0.38300  0.09290  Biso   1.000  H
  H16      1.0000 0.77460  0.61700  0.90710  Biso   1.000  H
