data_image0
_cell_length_a       6.7244
_cell_length_b       7.1883
_cell_length_c       18.571
_cell_angle_alpha    90
_cell_angle_beta     90
_cell_angle_gamma    90

_symmetry_space_group_name_H-M    "P 1"
_symmetry_int_tables_number       1

loop_
  _symmetry_equiv_pos_as_xyz
  'x, y, z'

loop_
  _atom_site_label
  _atom_site_occupancy
  _atom_site_fract_x
  _atom_site_fract_y
  _atom_site_fract_z
  _atom_site_thermal_displace_type
  _atom_site_B_iso_or_equiv
  _atom_site_type_symbol
  Cu1      1.0000 0.25000  0.76978  0.50000  Biso   1.000  Cu
  Cu2      1.0000 0.25000  0.23022  0.00000  Biso   1.000  Cu
  Cu3      1.0000 0.75000  0.26978  0.00000  Biso   1.000  Cu
  Cu4      1.0000 0.75000  0.73022  0.50000  Biso   1.000  Cu
  Cl1      1.0000 0.00760  0.51479  0.45480  Biso   1.000  Cl
  Cl2      1.0000 0.49240  0.48521  0.95480  Biso   1.000  Cl
  Cl3      1.0000 0.99240  0.01479  0.04520  Biso   1.000  Cl
  Cl4      1.0000 0.50760  0.98521  0.54520  Biso   1.000  Cl
  Cl5      1.0000 0.50760  0.01479  0.95480  Biso   1.000  Cl
  Cl6      1.0000 0.99240  0.98521  0.45480  Biso   1.000  Cl
  Cl7      1.0000 0.49240  0.51479  0.54520  Biso   1.000  Cl
  Cl8      1.0000 0.00760  0.48521  0.04520  Biso   1.000  Cl
  N1       1.0000 0.91150  0.78430  0.88490  Biso   1.000  N
  N2       1.0000 0.58850  0.21570  0.38490  Biso   1.000  N
  N3       1.0000 0.08850  0.28430  0.61510  Biso   1.000  N
  N4       1.0000 0.41150  0.71570  0.11510  Biso   1.000  N
  N5       1.0000 0.41150  0.28430  0.38490  Biso   1.000  N
  N6       1.0000 0.08850  0.71570  0.88490  Biso   1.000  N
  N7       1.0000 0.58850  0.78430  0.11510  Biso   1.000  N
  N8       1.0000 0.91150  0.21570  0.61510  Biso   1.000  N
  N9       1.0000 0.00000  0.75000  0.77950  Biso   1.000  N
  N10      1.0000 0.50000  0.25000  0.27950  Biso   1.000  N
  N11      1.0000 0.00000  0.25000  0.72050  Biso   1.000  N
  N12      1.0000 0.50000  0.75000  0.22050  Biso   1.000  N
  N13      1.0000 0.10070  0.76740  0.59243  Biso   1.000  N
  N14      1.0000 0.39930  0.23260  0.09243  Biso   1.000  N
  N15      1.0000 0.89930  0.26740  0.90757  Biso   1.000  N
  N16      1.0000 0.60070  0.73260  0.40757  Biso   1.000  N
  N17      1.0000 0.60070  0.26740  0.09243  Biso   1.000  N
  N18      1.0000 0.89930  0.73260  0.59243  Biso   1.000  N
  N19      1.0000 0.39930  0.76740  0.40757  Biso   1.000  N
  N20      1.0000 0.10070  0.23260  0.90757  Biso   1.000  N
  N21      1.0000 0.00000  0.75000  0.70290  Biso   1.000  N
  N22      1.0000 0.50000  0.25000  0.20290  Biso   1.000  N
  N23      1.0000 0.00000  0.25000  0.79710  Biso   1.000  N
  N24      1.0000 0.50000  0.75000  0.29710  Biso   1.000  N
  C1       1.0000 0.84730  0.80880  0.81669  Biso   1.000  C
  C2       1.0000 0.65270  0.19120  0.31669  Biso   1.000  C
  C3       1.0000 0.15270  0.30880  0.68331  Biso   1.000  C
  C4       1.0000 0.34730  0.69120  0.18331  Biso   1.000  C
  C5       1.0000 0.34730  0.30880  0.31669  Biso   1.000  C
  C6       1.0000 0.15270  0.69120  0.81669  Biso   1.000  C
  C7       1.0000 0.65270  0.80880  0.18331  Biso   1.000  C
  C8       1.0000 0.84730  0.19120  0.68331  Biso   1.000  C
  H1       1.0000 0.72630  0.85520  0.80040  Biso   1.000  H
  H2       1.0000 0.77370  0.14480  0.30040  Biso   1.000  H
  H3       1.0000 0.27370  0.35520  0.69960  Biso   1.000  H
  H4       1.0000 0.22630  0.64480  0.19960  Biso   1.000  H
  H5       1.0000 0.22630  0.35520  0.30040  Biso   1.000  H
  H6       1.0000 0.27370  0.64480  0.80040  Biso   1.000  H
  H7       1.0000 0.77370  0.85520  0.19960  Biso   1.000  H
  H8       1.0000 0.72630  0.14480  0.69960  Biso   1.000  H
  C9       1.0000 0.15920  0.77700  0.65901  Biso   1.000  C
  C10      1.0000 0.34080  0.22300  0.15901  Biso   1.000  C
  C11      1.0000 0.84080  0.27700  0.84099  Biso   1.000  C
  C12      1.0000 0.65920  0.72300  0.34099  Biso   1.000  C
  C13      1.0000 0.65920  0.27700  0.15901  Biso   1.000  C
  C14      1.0000 0.84080  0.72300  0.65901  Biso   1.000  C
  C15      1.0000 0.34080  0.77700  0.34099  Biso   1.000  C
  C16      1.0000 0.15920  0.22300  0.84099  Biso   1.000  C
  H9       1.0000 0.28890  0.79880  0.67420  Biso   1.000  H
  H10      1.0000 0.21110  0.20120  0.17420  Biso   1.000  H
  H11      1.0000 0.71110  0.29880  0.82580  Biso   1.000  H
  H12      1.0000 0.78890  0.70120  0.32580  Biso   1.000  H
  H13      1.0000 0.78890  0.29880  0.17420  Biso   1.000  H
  H14      1.0000 0.71110  0.70120  0.67420  Biso   1.000  H
  H15      1.0000 0.21110  0.79880  0.32580  Biso   1.000  H
  H16      1.0000 0.28890  0.20120  0.82580  Biso   1.000  H
  O1       1.0000 0.48390  0.00000  0.75000  Biso   1.000  O
  O2       1.0000 0.01610  0.00000  0.25000  Biso   1.000  O
  O3       1.0000 0.51610  0.50000  0.75000  Biso   1.000  O
  O4       1.0000 0.98390  0.50000  0.25000  Biso   1.000  O
