data_image0
_cell_length_a       6.021
_cell_length_b       14.6702
_cell_length_c       10.1601
_cell_angle_alpha    90
_cell_angle_beta     100.072
_cell_angle_gamma    90

_symmetry_space_group_name_H-M    "P 1"
_symmetry_int_tables_number       1

loop_
  _symmetry_equiv_pos_as_xyz
  'x, y, z'

loop_
  _atom_site_label
  _atom_site_occupancy
  _atom_site_fract_x
  _atom_site_fract_y
  _atom_site_fract_z
  _atom_site_thermal_displace_type
  _atom_site_B_iso_or_equiv
  _atom_site_type_symbol
  Cu1      1.0000 0.00000  0.50000  0.00000  Biso   1.000  Cu
  Cu2      1.0000 0.00000  0.00000  0.50000  Biso   1.000  Cu
  N1       1.0000 0.08900  0.37660  0.95920  Biso   1.000  N
  N2       1.0000 0.91100  0.87660  0.54080  Biso   1.000  N
  N3       1.0000 0.91100  0.62340  0.04080  Biso   1.000  N
  N4       1.0000 0.08900  0.12340  0.45920  Biso   1.000  N
  N5       1.0000 0.24630  0.36390  0.88020  Biso   1.000  N
  N6       1.0000 0.75370  0.86390  0.61980  Biso   1.000  N
  N7       1.0000 0.75370  0.63610  0.11980  Biso   1.000  N
  N8       1.0000 0.24630  0.13610  0.38020  Biso   1.000  N
  H1       1.0000 0.33060  0.40640  0.85770  Biso   1.000  H
  H2       1.0000 0.66940  0.90640  0.64230  Biso   1.000  H
  H3       1.0000 0.66940  0.59360  0.14230  Biso   1.000  H
  H4       1.0000 0.33060  0.09360  0.35770  Biso   1.000  H
  O1       1.0000 0.08670  0.47990  0.19540  Biso   1.000  O
  O2       1.0000 0.91330  0.97990  0.30460  Biso   1.000  O
  O3       1.0000 0.91330  0.52010  0.80460  Biso   1.000  O
  O4       1.0000 0.08670  0.02010  0.69540  Biso   1.000  O
  O5       1.0000 0.40530  0.51810  0.13490  Biso   1.000  O
  O6       1.0000 0.59470  0.01810  0.36510  Biso   1.000  O
  O7       1.0000 0.59470  0.48190  0.86510  Biso   1.000  O
  O8       1.0000 0.40530  0.98190  0.63490  Biso   1.000  O
  C1       1.0000 0.81730  0.28500  0.05240  Biso   1.000  C
  C2       1.0000 0.18270  0.78500  0.44760  Biso   1.000  C
  C3       1.0000 0.18270  0.71500  0.94760  Biso   1.000  C
  C4       1.0000 0.81730  0.21500  0.55240  Biso   1.000  C
  H5       1.0000 0.88360  0.26600  0.14100  Biso   1.000  H
  H6       1.0000 0.11640  0.76600  0.35900  Biso   1.000  H
  H7       1.0000 0.11640  0.73400  0.85900  Biso   1.000  H
  H8       1.0000 0.88360  0.23400  0.64100  Biso   1.000  H
  H9       1.0000 0.71140  0.23970  0.01240  Biso   1.000  H
  H10      1.0000 0.28860  0.73970  0.48760  Biso   1.000  H
  H11      1.0000 0.28860  0.76030  0.98760  Biso   1.000  H
  H12      1.0000 0.71140  0.26030  0.51240  Biso   1.000  H
  H13      1.0000 0.74060  0.34200  0.05690  Biso   1.000  H
  H14      1.0000 0.25940  0.84200  0.44310  Biso   1.000  H
  H15      1.0000 0.25940  0.65800  0.94310  Biso   1.000  H
  H16      1.0000 0.74060  0.15800  0.55690  Biso   1.000  H
  C5       1.0000 0.99820  0.29620  0.97000  Biso   1.000  C
  C6       1.0000 0.00180  0.79620  0.53000  Biso   1.000  C
  C7       1.0000 0.00180  0.70380  0.03000  Biso   1.000  C
  C8       1.0000 0.99820  0.20380  0.47000  Biso   1.000  C
  C9       1.0000 0.09650  0.23280  0.89710  Biso   1.000  C
  C10      1.0000 0.90350  0.73280  0.60290  Biso   1.000  C
  C11      1.0000 0.90350  0.76720  0.10290  Biso   1.000  C
  C12      1.0000 0.09650  0.26720  0.39710  Biso   1.000  C
  H17      1.0000 0.06110  0.17110  0.88780  Biso   1.000  H
  H18      1.0000 0.93890  0.67110  0.61220  Biso   1.000  H
  H19      1.0000 0.93890  0.82890  0.11220  Biso   1.000  H
  H20      1.0000 0.06110  0.32890  0.38780  Biso   1.000  H
  C13      1.0000 0.25360  0.27750  0.84200  Biso   1.000  C
  C14      1.0000 0.74640  0.77750  0.65800  Biso   1.000  C
  C15      1.0000 0.74640  0.72250  0.15800  Biso   1.000  C
  C16      1.0000 0.25360  0.22250  0.34200  Biso   1.000  C
  C17      1.0000 0.41090  0.24730  0.75370  Biso   1.000  C
  C18      1.0000 0.58910  0.74730  0.74630  Biso   1.000  C
  C19      1.0000 0.58910  0.75270  0.24630  Biso   1.000  C
  C20      1.0000 0.41090  0.25270  0.25370  Biso   1.000  C
  H21      1.0000 0.46140  0.29920  0.70960  Biso   1.000  H
  H22      1.0000 0.53860  0.79920  0.79040  Biso   1.000  H
  H23      1.0000 0.53860  0.70080  0.29040  Biso   1.000  H
  H24      1.0000 0.46140  0.20080  0.20960  Biso   1.000  H
  H25      1.0000 0.33490  0.20560  0.68810  Biso   1.000  H
  H26      1.0000 0.66510  0.70560  0.81190  Biso   1.000  H
  H27      1.0000 0.66510  0.79440  0.31190  Biso   1.000  H
  H28      1.0000 0.33490  0.29440  0.18810  Biso   1.000  H
  H29      1.0000 0.53840  0.21750  0.80620  Biso   1.000  H
  H30      1.0000 0.46160  0.71750  0.69380  Biso   1.000  H
  H31      1.0000 0.46160  0.78250  0.19380  Biso   1.000  H
  H32      1.0000 0.53840  0.28250  0.30620  Biso   1.000  H
  C21      1.0000 0.29240  0.49970  0.22080  Biso   1.000  C
  C22      1.0000 0.70760  0.99970  0.27920  Biso   1.000  C
  C23      1.0000 0.70760  0.50030  0.77920  Biso   1.000  C
  C24      1.0000 0.29240  0.00030  0.72080  Biso   1.000  C
  C25      1.0000 0.40140  0.49990  0.36620  Biso   1.000  C
  C26      1.0000 0.59860  0.99990  0.13380  Biso   1.000  C
  C27      1.0000 0.59860  0.50010  0.63380  Biso   1.000  C
  C28      1.0000 0.40140  0.00010  0.86620  Biso   1.000  C
  C29      1.0000 0.27530  0.51620  0.46340  Biso   1.000  C
  C30      1.0000 0.72470  0.01620  0.03660  Biso   1.000  C
  C31      1.0000 0.72470  0.48380  0.53660  Biso   1.000  C
  C32      1.0000 0.27530  0.98380  0.96340  Biso   1.000  C
  H33      1.0000 0.12170  0.52750  0.43870  Biso   1.000  H
  H34      1.0000 0.87830  0.02750  0.06130  Biso   1.000  H
  H35      1.0000 0.87830  0.47250  0.56130  Biso   1.000  H
  H36      1.0000 0.12170  0.97250  0.93870  Biso   1.000  H
  C33      1.0000 0.62970  0.48380  0.40270  Biso   1.000  C
  C34      1.0000 0.37030  0.98380  0.09730  Biso   1.000  C
  C35      1.0000 0.37030  0.51620  0.59730  Biso   1.000  C
  C36      1.0000 0.62970  0.01620  0.90270  Biso   1.000  C
  H37      1.0000 0.71830  0.47300  0.33790  Biso   1.000  H
  H38      1.0000 0.28170  0.97300  0.16210  Biso   1.000  H
  H39      1.0000 0.28170  0.52700  0.66210  Biso   1.000  H
  H40      1.0000 0.71830  0.02700  0.83790  Biso   1.000  H
