data_image0
_cell_length_a       13.054
_cell_length_b       13.568
_cell_length_c       8.713
_cell_angle_alpha    90
_cell_angle_beta     90.184
_cell_angle_gamma    90

_symmetry_space_group_name_H-M    "P 1"
_symmetry_int_tables_number       1

loop_
  _symmetry_equiv_pos_as_xyz
  'x, y, z'

loop_
  _atom_site_label
  _atom_site_occupancy
  _atom_site_fract_x
  _atom_site_fract_y
  _atom_site_fract_z
  _atom_site_thermal_displace_type
  _atom_site_B_iso_or_equiv
  _atom_site_type_symbol
  Cu1      1.0000 0.58762  0.04017  0.04517  Biso   1.000  Cu
  Cu2      1.0000 0.41238  0.54017  0.45483  Biso   1.000  Cu
  Cu3      1.0000 0.41238  0.95983  0.95483  Biso   1.000  Cu
  Cu4      1.0000 0.58762  0.45983  0.54517  Biso   1.000  Cu
  O1       1.0000 0.63549  0.01053  0.83570  Biso   1.000  O
  O2       1.0000 0.36451  0.51053  0.66430  Biso   1.000  O
  O3       1.0000 0.36451  0.98947  0.16430  Biso   1.000  O
  O4       1.0000 0.63549  0.48947  0.33570  Biso   1.000  O
  O5       1.0000 0.88449  0.71938  0.08830  Biso   1.000  O
  O6       1.0000 0.11551  0.21938  0.41170  Biso   1.000  O
  O7       1.0000 0.11551  0.28062  0.91170  Biso   1.000  O
  O8       1.0000 0.88449  0.78062  0.58830  Biso   1.000  O
  H1       1.0000 0.86700  0.69400  0.17200  Biso   1.000  H
  H2       1.0000 0.13300  0.19400  0.32800  Biso   1.000  H
  H3       1.0000 0.13300  0.30600  0.82800  Biso   1.000  H
  H4       1.0000 0.86700  0.80600  0.67200  Biso   1.000  H
  H5       1.0000 0.92700  0.68100  0.04500  Biso   1.000  H
  H6       1.0000 0.07300  0.18100  0.45500  Biso   1.000  H
  H7       1.0000 0.07300  0.31900  0.95500  Biso   1.000  H
  H8       1.0000 0.92700  0.81900  0.54500  Biso   1.000  H
  O9       1.0000 0.48498  0.95061  0.75790  Biso   1.000  O
  O10      1.0000 0.51502  0.45061  0.74210  Biso   1.000  O
  O11      1.0000 0.51502  0.04939  0.24210  Biso   1.000  O
  O12      1.0000 0.48498  0.54939  0.25790  Biso   1.000  O
  O13      1.0000 0.82980  0.86720  0.87910  Biso   1.000  O
  O14      1.0000 0.17020  0.36720  0.62090  Biso   1.000  O
  O15      1.0000 0.17020  0.13280  0.12090  Biso   1.000  O
  O16      1.0000 0.82980  0.63280  0.37910  Biso   1.000  O
  H9       1.0000 0.84000  0.82900  0.95400  Biso   1.000  H
  H10      1.0000 0.16000  0.32900  0.54600  Biso   1.000  H
  H11      1.0000 0.16000  0.17100  0.04600  Biso   1.000  H
  H12      1.0000 0.84000  0.67100  0.45400  Biso   1.000  H
  H13      1.0000 0.77530  0.89700  0.89200  Biso   1.000  H
  H14      1.0000 0.22470  0.39700  0.60800  Biso   1.000  H
  H15      1.0000 0.22470  0.10300  0.10800  Biso   1.000  H
  H16      1.0000 0.77530  0.60300  0.39200  Biso   1.000  H
  O17      1.0000 0.63522  0.59209  0.60000  Biso   1.000  O
  O18      1.0000 0.36478  0.09209  0.90000  Biso   1.000  O
  O19      1.0000 0.36478  0.40791  0.40000  Biso   1.000  O
  O20      1.0000 0.63522  0.90791  0.10000  Biso   1.000  O
  O21      1.0000 0.48633  0.65874  0.52840  Biso   1.000  O
  O22      1.0000 0.51367  0.15874  0.97160  Biso   1.000  O
  O23      1.0000 0.51367  0.34126  0.47160  Biso   1.000  O
  O24      1.0000 0.48633  0.84126  0.02840  Biso   1.000  O
  N1       1.0000 0.71506  0.13226  0.12030  Biso   1.000  N
  N2       1.0000 0.28494  0.63226  0.37970  Biso   1.000  N
  N3       1.0000 0.28494  0.86774  0.87970  Biso   1.000  N
  N4       1.0000 0.71506  0.36774  0.62030  Biso   1.000  N
  N5       1.0000 0.98154  0.40763  0.08010  Biso   1.000  N
  N6       1.0000 0.01846  0.90763  0.41990  Biso   1.000  N
  N7       1.0000 0.01846  0.59237  0.91990  Biso   1.000  N
  N8       1.0000 0.98154  0.09237  0.58010  Biso   1.000  N
  C1       1.0000 0.69000  0.21770  0.18700  Biso   1.000  C
  C2       1.0000 0.31000  0.71770  0.31300  Biso   1.000  C
  C3       1.0000 0.31000  0.78230  0.81300  Biso   1.000  C
  C4       1.0000 0.69000  0.28230  0.68700  Biso   1.000  C
  H17      1.0000 0.62190  0.22790  0.21430  Biso   1.000  H
  H18      1.0000 0.37810  0.72790  0.28570  Biso   1.000  H
  H19      1.0000 0.37810  0.77210  0.78570  Biso   1.000  H
  H20      1.0000 0.62190  0.27210  0.71430  Biso   1.000  H
  C5       1.0000 0.75950  0.29140  0.21730  Biso   1.000  C
  C6       1.0000 0.24050  0.79140  0.28270  Biso   1.000  C
  C7       1.0000 0.24050  0.70860  0.78270  Biso   1.000  C
  C8       1.0000 0.75950  0.20860  0.71730  Biso   1.000  C
  H21      1.0000 0.73800  0.34980  0.26290  Biso   1.000  H
  H22      1.0000 0.26200  0.84980  0.23710  Biso   1.000  H
  H23      1.0000 0.26200  0.65020  0.73710  Biso   1.000  H
  H24      1.0000 0.73800  0.15020  0.76290  Biso   1.000  H
  C9       1.0000 0.86180  0.27833  0.17980  Biso   1.000  C
  C10      1.0000 0.13820  0.77833  0.32020  Biso   1.000  C
  C11      1.0000 0.13820  0.72167  0.82020  Biso   1.000  C
  C12      1.0000 0.86180  0.22167  0.67980  Biso   1.000  C
  C13      1.0000 0.88860  0.18941  0.11250  Biso   1.000  C
  C14      1.0000 0.11140  0.68941  0.38750  Biso   1.000  C
  C15      1.0000 0.11140  0.81059  0.88750  Biso   1.000  C
  C16      1.0000 0.88860  0.31059  0.61250  Biso   1.000  C
  H25      1.0000 0.95630  0.17710  0.08600  Biso   1.000  H
  H26      1.0000 0.04370  0.67710  0.41400  Biso   1.000  H
  H27      1.0000 0.04370  0.82290  0.91400  Biso   1.000  H
  H28      1.0000 0.95630  0.32290  0.58600  Biso   1.000  H
  C17      1.0000 0.81420  0.11939  0.08520  Biso   1.000  C
  C18      1.0000 0.18580  0.61939  0.41480  Biso   1.000  C
  C19      1.0000 0.18580  0.88061  0.91480  Biso   1.000  C
  C20      1.0000 0.81420  0.38061  0.58520  Biso   1.000  C
  H29      1.0000 0.83370  0.06020  0.04020  Biso   1.000  H
  H30      1.0000 0.16630  0.56020  0.45980  Biso   1.000  H
  H31      1.0000 0.16630  0.93980  0.95980  Biso   1.000  H
  H32      1.0000 0.83370  0.43980  0.54020  Biso   1.000  H
  C21      1.0000 0.94000  0.35710  0.21680  Biso   1.000  C
  C22      1.0000 0.06000  0.85710  0.28320  Biso   1.000  C
  C23      1.0000 0.06000  0.64290  0.78320  Biso   1.000  C
  C24      1.0000 0.94000  0.14290  0.71680  Biso   1.000  C
  H33      1.0000 0.90870  0.40580  0.28330  Biso   1.000  H
  H34      1.0000 0.09130  0.90580  0.21670  Biso   1.000  H
  H35      1.0000 0.09130  0.59420  0.71670  Biso   1.000  H
  H36      1.0000 0.90870  0.09420  0.78330  Biso   1.000  H
  H37      1.0000 0.99630  0.32720  0.27300  Biso   1.000  H
  H38      1.0000 0.00370  0.82720  0.22700  Biso   1.000  H
  H39      1.0000 0.00370  0.67280  0.72700  Biso   1.000  H
  H40      1.0000 0.99630  0.17280  0.77300  Biso   1.000  H
  C25      1.0000 0.05730  0.48080  0.13420  Biso   1.000  C
  C26      1.0000 0.94270  0.98080  0.36580  Biso   1.000  C
  C27      1.0000 0.94270  0.51920  0.86580  Biso   1.000  C
  C28      1.0000 0.05730  0.01920  0.63420  Biso   1.000  C
  H41      1.0000 0.11270  0.44710  0.18700  Biso   1.000  H
  H42      1.0000 0.88730  0.94710  0.31300  Biso   1.000  H
  H43      1.0000 0.88730  0.55290  0.81300  Biso   1.000  H
  H44      1.0000 0.11270  0.05290  0.68700  Biso   1.000  H
  H45      1.0000 0.02490  0.52510  0.20660  Biso   1.000  H
  H46      1.0000 0.97510  0.02510  0.29340  Biso   1.000  H
  H47      1.0000 0.97510  0.47490  0.79340  Biso   1.000  H
  H48      1.0000 0.02490  0.97490  0.70660  Biso   1.000  H
  C29      1.0000 0.89972  0.46050  0.99740  Biso   1.000  C
  C30      1.0000 0.10028  0.96050  0.50260  Biso   1.000  C
  C31      1.0000 0.10028  0.53950  0.00260  Biso   1.000  C
  C32      1.0000 0.89972  0.03950  0.49740  Biso   1.000  C
  H49      1.0000 0.86480  0.50450  0.06770  Biso   1.000  H
  H50      1.0000 0.13520  0.00450  0.43230  Biso   1.000  H
  H51      1.0000 0.13520  0.49550  0.93230  Biso   1.000  H
  H52      1.0000 0.86480  0.99550  0.56770  Biso   1.000  H
  H53      1.0000 0.85010  0.41350  0.95860  Biso   1.000  H
  H54      1.0000 0.14990  0.91350  0.54140  Biso   1.000  H
  H55      1.0000 0.14990  0.58650  0.04140  Biso   1.000  H
  H56      1.0000 0.85010  0.08650  0.45860  Biso   1.000  H
  C33      1.0000 0.57740  0.97183  0.73720  Biso   1.000  C
  C34      1.0000 0.42260  0.47183  0.76280  Biso   1.000  C
  C35      1.0000 0.42260  0.02817  0.26280  Biso   1.000  C
  C36      1.0000 0.57740  0.52817  0.23720  Biso   1.000  C
  C37      1.0000 0.62240  0.94719  0.58190  Biso   1.000  C
  C38      1.0000 0.37760  0.44719  0.91810  Biso   1.000  C
  C39      1.0000 0.37760  0.05281  0.41810  Biso   1.000  C
  C40      1.0000 0.62240  0.55281  0.08190  Biso   1.000  C
  H57      1.0000 0.69660  0.94630  0.59030  Biso   1.000  H
  H58      1.0000 0.30340  0.44630  0.90970  Biso   1.000  H
  H59      1.0000 0.30340  0.05370  0.40970  Biso   1.000  H
  H60      1.0000 0.69660  0.55370  0.09030  Biso   1.000  H
  H61      1.0000 0.60380  0.99850  0.50950  Biso   1.000  H
  H62      1.0000 0.39620  0.49850  0.99050  Biso   1.000  H
  H63      1.0000 0.39620  0.00150  0.49050  Biso   1.000  H
  H64      1.0000 0.60380  0.50150  0.00950  Biso   1.000  H
  C41      1.0000 0.58620  0.84838  0.52000  Biso   1.000  C
  C42      1.0000 0.41380  0.34838  0.98000  Biso   1.000  C
  C43      1.0000 0.41380  0.15162  0.48000  Biso   1.000  C
  C44      1.0000 0.58620  0.65162  0.02000  Biso   1.000  C
  H65      1.0000 0.61750  0.83640  0.42100  Biso   1.000  H
  H66      1.0000 0.38250  0.33640  0.07900  Biso   1.000  H
  H67      1.0000 0.38250  0.16360  0.57900  Biso   1.000  H
  H68      1.0000 0.61750  0.66360  0.92100  Biso   1.000  H
  H69      1.0000 0.51250  0.85010  0.50560  Biso   1.000  H
  H70      1.0000 0.48750  0.35010  0.99440  Biso   1.000  H
  H71      1.0000 0.48750  0.14990  0.49440  Biso   1.000  H
  H72      1.0000 0.51250  0.64990  0.00560  Biso   1.000  H
  C45      1.0000 0.61400  0.76480  0.62980  Biso   1.000  C
  C46      1.0000 0.38600  0.26480  0.87020  Biso   1.000  C
  C47      1.0000 0.38600  0.23520  0.37020  Biso   1.000  C
  C48      1.0000 0.61400  0.73520  0.12980  Biso   1.000  C
  H73      1.0000 0.68800  0.76200  0.63970  Biso   1.000  H
  H74      1.0000 0.31200  0.26200  0.86030  Biso   1.000  H
  H75      1.0000 0.31200  0.23800  0.36030  Biso   1.000  H
  H76      1.0000 0.68800  0.73800  0.13970  Biso   1.000  H
  H77      1.0000 0.58630  0.78000  0.73020  Biso   1.000  H
  H78      1.0000 0.41370  0.28000  0.76980  Biso   1.000  H
  H79      1.0000 0.41370  0.22000  0.26980  Biso   1.000  H
  H80      1.0000 0.58630  0.72000  0.23020  Biso   1.000  H
  C49      1.0000 0.57570  0.66461  0.58140  Biso   1.000  C
  C50      1.0000 0.42430  0.16461  0.91860  Biso   1.000  C
  C51      1.0000 0.42430  0.33539  0.41860  Biso   1.000  C
  C52      1.0000 0.57570  0.83539  0.08140  Biso   1.000  C
