data_image0
_cell_length_a       10.4488
_cell_length_b       10.4744
_cell_length_c       12.705
_cell_angle_alpha    68.694
_cell_angle_beta     76.439
_cell_angle_gamma    74.924

_symmetry_space_group_name_H-M    "P 1"
_symmetry_int_tables_number       1

loop_
  _symmetry_equiv_pos_as_xyz
  'x, y, z'

loop_
  _atom_site_label
  _atom_site_occupancy
  _atom_site_fract_x
  _atom_site_fract_y
  _atom_site_fract_z
  _atom_site_thermal_displace_type
  _atom_site_B_iso_or_equiv
  _atom_site_type_symbol
  Cu1      1.0000 0.00000  0.00000  0.00000  Biso   1.000  Cu
  S1       1.0000 0.61534  0.33125  0.50986  Biso   1.000  S
  S2       1.0000 0.38466  0.66875  0.49014  Biso   1.000  S
  S3       1.0000 0.67736  0.09341  0.41740  Biso   1.000  S
  S4       1.0000 0.32264  0.90659  0.58260  Biso   1.000  S
  S5       1.0000 0.82393  0.65602  0.44402  Biso   1.000  S
  S6       1.0000 0.17607  0.34398  0.55598  Biso   1.000  S
  S7       1.0000 0.06875  0.58437  0.27990  Biso   1.000  S
  S8       1.0000 0.93125  0.41563  0.72010  Biso   1.000  S
  S9       1.0000 0.02592  0.18570  0.26490  Biso   1.000  S
  S10      1.0000 0.97408  0.81430  0.73510  Biso   1.000  S
  S11      1.0000 0.81586  0.44541  0.20059  Biso   1.000  S
  S12      1.0000 0.18414  0.55459  0.79941  Biso   1.000  S
  S13      1.0000 0.55753  0.71366  0.13943  Biso   1.000  S
  S14      1.0000 0.44247  0.28634  0.86057  Biso   1.000  S
  S15      1.0000 0.53560  0.99375  0.16515  Biso   1.000  S
  S16      1.0000 0.46440  0.00625  0.83485  Biso   1.000  S
  N1       1.0000 0.77960  0.19650  0.64770  Biso   1.000  N
  N2       1.0000 0.22040  0.80350  0.35230  Biso   1.000  N
  N3       1.0000 0.78390  0.10990  0.58580  Biso   1.000  N
  N4       1.0000 0.21610  0.89010  0.41420  Biso   1.000  N
  N5       1.0000 0.90910  0.82200  0.23230  Biso   1.000  N
  N6       1.0000 0.09090  0.17800  0.76770  Biso   1.000  N
  N7       1.0000 0.00870  0.82490  0.13880  Biso   1.000  N
  N8       1.0000 0.99130  0.17510  0.86120  Biso   1.000  N
  N9       1.0000 0.98520  0.11420  0.10830  Biso   1.000  N
  N10      1.0000 0.01480  0.88580  0.89170  Biso   1.000  N
  N11      1.0000 0.90020  0.24190  0.09910  Biso   1.000  N
  N12      1.0000 0.09980  0.75810  0.90090  Biso   1.000  N
  N13      1.0000 0.75860  0.01510  0.03420  Biso   1.000  N
  N14      1.0000 0.24140  0.98490  0.96580  Biso   1.000  N
  N15      1.0000 0.73220  0.88890  0.04020  Biso   1.000  N
  N16      1.0000 0.26780  0.11110  0.95980  Biso   1.000  N
  C1       1.0000 0.69650  0.31170  0.61750  Biso   1.000  C
  C2       1.0000 0.30350  0.68830  0.38250  Biso   1.000  C
  H1       1.0000 0.68160  0.37990  0.65200  Biso   1.000  H
  H2       1.0000 0.31840  0.62010  0.34800  Biso   1.000  H
  C3       1.0000 0.70340  0.16700  0.51120  Biso   1.000  C
  C4       1.0000 0.29660  0.83300  0.48880  Biso   1.000  C
  C5       1.0000 0.77950  0.91930  0.46320  Biso   1.000  C
  C6       1.0000 0.22050  0.08070  0.53680  Biso   1.000  C
  H3       1.0000 0.87070  0.91890  0.42310  Biso   1.000  H
  H4       1.0000 0.12930  0.08110  0.57690  Biso   1.000  H
  H5       1.0000 0.78140  0.88900  0.54470  Biso   1.000  H
  H6       1.0000 0.21860  0.11100  0.45530  Biso   1.000  H
  C7       1.0000 0.71610  0.82380  0.43560  Biso   1.000  C
  C8       1.0000 0.28390  0.17620  0.56440  Biso   1.000  C
  H7       1.0000 0.69350  0.86850  0.35900  Biso   1.000  H
  H8       1.0000 0.30650  0.13150  0.64100  Biso   1.000  H
  H9       1.0000 0.63340  0.80980  0.48830  Biso   1.000  H
  H10      1.0000 0.36660  0.19020  0.51170  Biso   1.000  H
  C9       1.0000 0.92770  0.70160  0.31210  Biso   1.000  C
  C10      1.0000 0.07230  0.29840  0.68790  Biso   1.000  C
  C11      1.0000 0.09700  0.71030  0.15190  Biso   1.000  C
  C12      1.0000 0.90300  0.28970  0.84810  Biso   1.000  C
  H11      1.0000 0.17000  0.69780  0.09590  Biso   1.000  H
  H12      1.0000 0.83000  0.30220  0.90410  Biso   1.000  H
  C13      1.0000 0.05500  0.07330  0.19000  Biso   1.000  C
  C14      1.0000 0.94500  0.92670  0.81000  Biso   1.000  C
  H13      1.0000 0.11610  0.98910  0.20650  Biso   1.000  H
  H14      1.0000 0.88390  0.01090  0.79350  Biso   1.000  H
  C15      1.0000 0.91030  0.29170  0.17600  Biso   1.000  C
  C16      1.0000 0.08970  0.70830  0.82400  Biso   1.000  C
  C17      1.0000 0.80260  0.56510  0.05900  Biso   1.000  C
  C18      1.0000 0.19740  0.43490  0.94100  Biso   1.000  C
  H15      1.0000 0.85380  0.63650  0.04450  Biso   1.000  H
  H16      1.0000 0.14620  0.36350  0.95550  Biso   1.000  H
  H17      1.0000 0.84350  0.51500  0.00480  Biso   1.000  H
  H18      1.0000 0.15650  0.48500  0.99520  Biso   1.000  H
  C19      1.0000 0.66290  0.63520  0.03710  Biso   1.000  C
  C20      1.0000 0.33710  0.36480  0.96290  Biso   1.000  C
  H19      1.0000 0.61930  0.56670  0.03230  Biso   1.000  H
  H20      1.0000 0.38070  0.43330  0.96770  Biso   1.000  H
  H21      1.0000 0.66840  0.70710  0.96290  Biso   1.000  H
  H22      1.0000 0.33160  0.29290  0.03710  Biso   1.000  H
  C21      1.0000 0.62090  0.86410  0.10640  Biso   1.000  C
  C22      1.0000 0.37910  0.13590  0.89360  Biso   1.000  C
  C23      1.0000 0.66650  0.07860  0.09410  Biso   1.000  C
  C24      1.0000 0.33350  0.92140  0.90590  Biso   1.000  C
  H23      1.0000 0.67030  0.16400  0.09890  Biso   1.000  H
  H24      1.0000 0.32970  0.83600  0.90110  Biso   1.000  H
  Cl1      1.0000 0.40443  0.36835  0.23363  Biso   1.000  Cl
  Cl2      1.0000 0.59557  0.63165  0.76637  Biso   1.000  Cl
  O1       1.0000 0.52830  0.32520  0.17370  Biso   1.000  O
  O2       1.0000 0.47170  0.67480  0.82630  Biso   1.000  O
  O3       1.0000 0.32550  0.26990  0.26350  Biso   1.000  O
  O4       1.0000 0.67450  0.73010  0.73650  Biso   1.000  O
  O5       1.0000 0.42110  0.38890  0.33380  Biso   1.000  O
  O6       1.0000 0.57890  0.61110  0.66620  Biso   1.000  O
  O7       1.0000 0.34670  0.49730  0.16090  Biso   1.000  O
  O8       1.0000 0.65330  0.50270  0.83910  Biso   1.000  O
