data_image0
_cell_length_a       11.2015
_cell_length_b       14.9693
_cell_length_c       21.4585
_cell_angle_alpha    90
_cell_angle_beta     92.098
_cell_angle_gamma    90

_symmetry_space_group_name_H-M    "P 1"
_symmetry_int_tables_number       1

loop_
  _symmetry_equiv_pos_as_xyz
  'x, y, z'

loop_
  _atom_site_label
  _atom_site_occupancy
  _atom_site_fract_x
  _atom_site_fract_y
  _atom_site_fract_z
  _atom_site_thermal_displace_type
  _atom_site_B_iso_or_equiv
  _atom_site_type_symbol
  Si1      1.0000 0.00000  0.50000  0.50000  Biso   1.000  Si
  Si2      1.0000 0.50000  0.00000  0.00000  Biso   1.000  Si
  W1       1.0000 0.77629  0.42501  0.39470  Biso   1.000  W
  W2       1.0000 0.72371  0.92501  0.10530  Biso   1.000  W
  W3       1.0000 0.22371  0.57499  0.60530  Biso   1.000  W
  W4       1.0000 0.27629  0.07499  0.89470  Biso   1.000  W
  W5       1.0000 0.07526  0.35630  0.37584  Biso   1.000  W
  W6       1.0000 0.42474  0.85630  0.12416  Biso   1.000  W
  W7       1.0000 0.92474  0.64370  0.62416  Biso   1.000  W
  W8       1.0000 0.57526  0.14370  0.87584  Biso   1.000  W
  W9       1.0000 0.09490  0.27996  0.53173  Biso   1.000  W
  W10      1.0000 0.40510  0.77996  0.96827  Biso   1.000  W
  W11      1.0000 0.90510  0.72004  0.46827  Biso   1.000  W
  W12      1.0000 0.59490  0.22004  0.03173  Biso   1.000  W
  W13      1.0000 0.79191  0.33791  0.54726  Biso   1.000  W
  W14      1.0000 0.70809  0.83791  0.95274  Biso   1.000  W
  W15      1.0000 0.20809  0.66209  0.45274  Biso   1.000  W
  W16      1.0000 0.29191  0.16209  0.04726  Biso   1.000  W
  W17      1.0000 0.69870  0.56153  0.52048  Biso   1.000  W
  W18      1.0000 0.80130  0.06153  0.97952  Biso   1.000  W
  W19      1.0000 0.30130  0.43847  0.47952  Biso   1.000  W
  W20      1.0000 0.19870  0.93847  0.02048  Biso   1.000  W
  W21      1.0000 0.99021  0.57922  0.34522  Biso   1.000  W
  W22      1.0000 0.50979  0.07922  0.15478  Biso   1.000  W
  W23      1.0000 0.00979  0.42078  0.65478  Biso   1.000  W
  W24      1.0000 0.49021  0.92078  0.84522  Biso   1.000  W
  O1       1.0000 0.96810  0.47550  0.42500  Biso   1.000  O
  O2       1.0000 0.53190  0.97550  0.07500  Biso   1.000  O
  O3       1.0000 0.03190  0.52450  0.57500  Biso   1.000  O
  O4       1.0000 0.46810  0.02450  0.92500  Biso   1.000  O
  O5       1.0000 0.86320  0.46510  0.49540  Biso   1.000  O
  O6       1.0000 0.63680  0.96510  0.00460  Biso   1.000  O
  O7       1.0000 0.13680  0.53490  0.50460  Biso   1.000  O
  O8       1.0000 0.36320  0.03490  0.99540  Biso   1.000  O
  O9       1.0000 0.09060  0.42180  0.48410  Biso   1.000  O
  O10      1.0000 0.40940  0.92180  0.01590  Biso   1.000  O
  O11      1.0000 0.90940  0.57820  0.51590  Biso   1.000  O
  O12      1.0000 0.59060  0.07820  0.98410  Biso   1.000  O
  O13      1.0000 0.02330  0.58820  0.45980  Biso   1.000  O
  O14      1.0000 0.47670  0.08820  0.04020  Biso   1.000  O
  O15      1.0000 0.97670  0.41180  0.54020  Biso   1.000  O
  O16      1.0000 0.52330  0.91180  0.95980  Biso   1.000  O
  O17      1.0000 0.84170  0.51800  0.34750  Biso   1.000  O
  O18      1.0000 0.65830  0.01800  0.15250  Biso   1.000  O
  O19      1.0000 0.15830  0.48200  0.65250  Biso   1.000  O
  O20      1.0000 0.34170  0.98200  0.84750  Biso   1.000  O
  O21      1.0000 0.70300  0.44500  0.55470  Biso   1.000  O
  O22      1.0000 0.79700  0.94500  0.94530  Biso   1.000  O
  O23      1.0000 0.29700  0.55500  0.44530  Biso   1.000  O
  O24      1.0000 0.20300  0.05500  0.05470  Biso   1.000  O
  O25      1.0000 0.90730  0.35090  0.37020  Biso   1.000  O
  O26      1.0000 0.59270  0.85090  0.12980  Biso   1.000  O
  O27      1.0000 0.09270  0.64910  0.62980  Biso   1.000  O
  O28      1.0000 0.40730  0.14910  0.87020  Biso   1.000  O
  O29      1.0000 0.86490  0.37150  0.62590  Biso   1.000  O
  O30      1.0000 0.63510  0.87150  0.87410  Biso   1.000  O
  O31      1.0000 0.13510  0.62850  0.37410  Biso   1.000  O
  O32      1.0000 0.36490  0.12850  0.12590  Biso   1.000  O
  O33      1.0000 0.92610  0.26770  0.53320  Biso   1.000  O
  O34      1.0000 0.57390  0.76770  0.96680  Biso   1.000  O
  O35      1.0000 0.07390  0.73230  0.46680  Biso   1.000  O
  O36      1.0000 0.42610  0.23230  0.03320  Biso   1.000  O
  O37      1.0000 0.06230  0.46710  0.33230  Biso   1.000  O
  O38      1.0000 0.43770  0.96710  0.16770  Biso   1.000  O
  O39      1.0000 0.93770  0.53290  0.66770  Biso   1.000  O
  O40      1.0000 0.56230  0.03290  0.83230  Biso   1.000  O
  O41      1.0000 0.23070  0.39430  0.40530  Biso   1.000  O
  O42      1.0000 0.26930  0.89430  0.09470  Biso   1.000  O
  O43      1.0000 0.76930  0.60570  0.59470  Biso   1.000  O
  O44      1.0000 0.73070  0.10570  0.90530  Biso   1.000  O
  O45      1.0000 0.09030  0.32820  0.61410  Biso   1.000  O
  O46      1.0000 0.40970  0.82820  0.88590  Biso   1.000  O
  O47      1.0000 0.90970  0.67180  0.38590  Biso   1.000  O
  O48      1.0000 0.59030  0.17180  0.11410  Biso   1.000  O
  O49      1.0000 0.13660  0.17640  0.54750  Biso   1.000  O
  O50      1.0000 0.36340  0.67640  0.95250  Biso   1.000  O
  O51      1.0000 0.86340  0.82360  0.45250  Biso   1.000  O
  O52      1.0000 0.63660  0.32360  0.04750  Biso   1.000  O
  O53      1.0000 0.24350  0.33510  0.51980  Biso   1.000  O
  O54      1.0000 0.25650  0.83510  0.98020  Biso   1.000  O
  O55      1.0000 0.75650  0.66490  0.48020  Biso   1.000  O
  O56      1.0000 0.74350  0.16490  0.01980  Biso   1.000  O
  O57      1.0000 0.66890  0.38210  0.34510  Biso   1.000  O
  O58      1.0000 0.83110  0.88210  0.15490  Biso   1.000  O
  O59      1.0000 0.33110  0.61790  0.65490  Biso   1.000  O
  O60      1.0000 0.16890  0.11790  0.84510  Biso   1.000  O
  O61      1.0000 0.76100  0.34190  0.45940  Biso   1.000  O
  O62      1.0000 0.73900  0.84190  0.04060  Biso   1.000  O
  O63      1.0000 0.23900  0.65810  0.54060  Biso   1.000  O
  O64      1.0000 0.26100  0.15810  0.95940  Biso   1.000  O
  O65      1.0000 0.07500  0.27620  0.44160  Biso   1.000  O
  O66      1.0000 0.42500  0.77620  0.05840  Biso   1.000  O
  O67      1.0000 0.92500  0.72380  0.55840  Biso   1.000  O
  O68      1.0000 0.57500  0.22380  0.94160  Biso   1.000  O
  O69      1.0000 0.69370  0.26010  0.56810  Biso   1.000  O
  O70      1.0000 0.80630  0.76010  0.93190  Biso   1.000  O
  O71      1.0000 0.30630  0.73990  0.43190  Biso   1.000  O
  O72      1.0000 0.19370  0.23990  0.06810  Biso   1.000  O
  O73      1.0000 0.69000  0.50860  0.43870  Biso   1.000  O
  O74      1.0000 0.81000  0.00860  0.06130  Biso   1.000  O
  O75      1.0000 0.31000  0.49140  0.56130  Biso   1.000  O
  O76      1.0000 0.19000  0.99140  0.93870  Biso   1.000  O
  O77      1.0000 0.11150  0.28730  0.31770  Biso   1.000  O
  O78      1.0000 0.38850  0.78730  0.18230  Biso   1.000  O
  O79      1.0000 0.88850  0.71270  0.68230  Biso   1.000  O
  O80      1.0000 0.61150  0.21270  0.81770  Biso   1.000  O
  O81      1.0000 0.55820  0.59260  0.53080  Biso   1.000  O
  O82      1.0000 0.94180  0.09260  0.96920  Biso   1.000  O
  O83      1.0000 0.44180  0.40740  0.46920  Biso   1.000  O
  O84      1.0000 0.05820  0.90740  0.03080  Biso   1.000  O
  O85      1.0000 0.98150  0.61910  0.27230  Biso   1.000  O
  O86      1.0000 0.51850  0.11910  0.22770  Biso   1.000  O
  O87      1.0000 0.01850  0.38090  0.72770  Biso   1.000  O
  O88      1.0000 0.48150  0.88090  0.77230  Biso   1.000  O
  Cu1      1.0000 0.59755  0.23778  0.30033  Biso   1.000  Cu
  Cu2      1.0000 0.90245  0.73778  0.19967  Biso   1.000  Cu
  Cu3      1.0000 0.40245  0.76222  0.69967  Biso   1.000  Cu
  Cu4      1.0000 0.09755  0.26222  0.80033  Biso   1.000  Cu
  C1       1.0000 0.42690  0.38540  0.29170  Biso   1.000  C
  C2       1.0000 0.07310  0.88540  0.20830  Biso   1.000  C
  C3       1.0000 0.57310  0.61460  0.70830  Biso   1.000  C
  C4       1.0000 0.92690  0.11460  0.79170  Biso   1.000  C
  H1       1.0000 0.41890  0.38470  0.33470  Biso   1.000  H
  H2       1.0000 0.08110  0.88470  0.16530  Biso   1.000  H
  H3       1.0000 0.58110  0.61530  0.66530  Biso   1.000  H
  H4       1.0000 0.91890  0.11530  0.83470  Biso   1.000  H
  C5       1.0000 0.47500  0.35300  0.19920  Biso   1.000  C
  C6       1.0000 0.02500  0.85300  0.30080  Biso   1.000  C
  C7       1.0000 0.52500  0.64700  0.80080  Biso   1.000  C
  C8       1.0000 0.97500  0.14700  0.69920  Biso   1.000  C
  H5       1.0000 0.50900  0.32360  0.16600  Biso   1.000  H
  H6       1.0000 0.99100  0.82360  0.33400  Biso   1.000  H
  H7       1.0000 0.49100  0.67640  0.83400  Biso   1.000  H
  H8       1.0000 0.00900  0.17640  0.66600  Biso   1.000  H
  C9       1.0000 0.31760  0.53160  0.27110  Biso   1.000  C
  C10      1.0000 0.18240  0.03160  0.22890  Biso   1.000  C
  C11      1.0000 0.68240  0.46840  0.72890  Biso   1.000  C
  C12      1.0000 0.81760  0.96840  0.77110  Biso   1.000  C
  H9       1.0000 0.25570  0.54570  0.24000  Biso   1.000  H
  H10      1.0000 0.24430  0.04570  0.26000  Biso   1.000  H
  H11      1.0000 0.74430  0.45430  0.76000  Biso   1.000  H
  H12      1.0000 0.75570  0.95430  0.74000  Biso   1.000  H
  H13      1.0000 0.27940  0.52110  0.31030  Biso   1.000  H
  H14      1.0000 0.22060  0.02110  0.18970  Biso   1.000  H
  H15      1.0000 0.72060  0.47890  0.68970  Biso   1.000  H
  H16      1.0000 0.77940  0.97890  0.81030  Biso   1.000  H
  C13      1.0000 0.40000  0.60990  0.27850  Biso   1.000  C
  C14      1.0000 0.10000  0.10990  0.22150  Biso   1.000  C
  C15      1.0000 0.60000  0.39010  0.72150  Biso   1.000  C
  C16      1.0000 0.90000  0.89010  0.77850  Biso   1.000  C
  H17      1.0000 0.44390  0.61700  0.24070  Biso   1.000  H
  H18      1.0000 0.05610  0.11700  0.25930  Biso   1.000  H
  H19      1.0000 0.55610  0.38300  0.75930  Biso   1.000  H
  H20      1.0000 0.94390  0.88300  0.74070  Biso   1.000  H
  H21      1.0000 0.35320  0.66350  0.28410  Biso   1.000  H
  H22      1.0000 0.14680  0.16350  0.21590  Biso   1.000  H
  H23      1.0000 0.64680  0.33650  0.71590  Biso   1.000  H
  H24      1.0000 0.85320  0.83650  0.78410  Biso   1.000  H
  C17      1.0000 0.48940  0.59980  0.33400  Biso   1.000  C
  C18      1.0000 0.01060  0.09980  0.16600  Biso   1.000  C
  C19      1.0000 0.51060  0.40020  0.66600  Biso   1.000  C
  C20      1.0000 0.98940  0.90020  0.83400  Biso   1.000  C
  H25      1.0000 0.55570  0.56320  0.32130  Biso   1.000  H
  H26      1.0000 0.94430  0.06320  0.17870  Biso   1.000  H
  H27      1.0000 0.44430  0.43680  0.67870  Biso   1.000  H
  H28      1.0000 0.05570  0.93680  0.82130  Biso   1.000  H
  H29      1.0000 0.45050  0.56860  0.36730  Biso   1.000  H
  H30      1.0000 0.04950  0.06860  0.13270  Biso   1.000  H
  H31      1.0000 0.54950  0.43140  0.63270  Biso   1.000  H
  H32      1.0000 0.95050  0.93140  0.86730  Biso   1.000  H
  C21      1.0000 0.53800  0.68730  0.35900  Biso   1.000  C
  C22      1.0000 0.96200  0.18730  0.14100  Biso   1.000  C
  C23      1.0000 0.46200  0.31270  0.64100  Biso   1.000  C
  C24      1.0000 0.03800  0.81270  0.85900  Biso   1.000  C
  H33      1.0000 0.57690  0.67710  0.39940  Biso   1.000  H
  H34      1.0000 0.92310  0.17710  0.10060  Biso   1.000  H
  H35      1.0000 0.42310  0.32290  0.60060  Biso   1.000  H
  H36      1.0000 0.07690  0.82290  0.89940  Biso   1.000  H
  H37      1.0000 0.47160  0.72800  0.36490  Biso   1.000  H
  H38      1.0000 0.02840  0.22800  0.13510  Biso   1.000  H
  H39      1.0000 0.52840  0.27200  0.63510  Biso   1.000  H
  H40      1.0000 0.97160  0.77200  0.86490  Biso   1.000  H
  C25      1.0000 0.70970  0.69410  0.28620  Biso   1.000  C
  C26      1.0000 0.79030  0.19410  0.21380  Biso   1.000  C
  C27      1.0000 0.29030  0.30590  0.71380  Biso   1.000  C
  C28      1.0000 0.20970  0.80590  0.78620  Biso   1.000  C
  H41      1.0000 0.72420  0.63330  0.28210  Biso   1.000  H
  H42      1.0000 0.77580  0.13330  0.21790  Biso   1.000  H
  H43      1.0000 0.27580  0.36670  0.71790  Biso   1.000  H
  H44      1.0000 0.22420  0.86670  0.78210  Biso   1.000  H
  C29      1.0000 0.72500  0.83300  0.28140  Biso   1.000  C
  C30      1.0000 0.77500  0.33300  0.21860  Biso   1.000  C
  C31      1.0000 0.27500  0.16700  0.71860  Biso   1.000  C
  C32      1.0000 0.22500  0.66700  0.78140  Biso   1.000  C
  H45      1.0000 0.75390  0.88960  0.27220  Biso   1.000  H
  H46      1.0000 0.74610  0.38960  0.22780  Biso   1.000  H
  H47      1.0000 0.24610  0.11040  0.72780  Biso   1.000  H
  H48      1.0000 0.25390  0.61040  0.77220  Biso   1.000  H
  C33      1.0000 0.36770  0.17520  0.35920  Biso   1.000  C
  C34      1.0000 0.13230  0.67520  0.14080  Biso   1.000  C
  C35      1.0000 0.63230  0.82480  0.64080  Biso   1.000  C
  C36      1.0000 0.86770  0.32480  0.85920  Biso   1.000  C
  H49      1.0000 0.32180  0.17460  0.32220  Biso   1.000  H
  H50      1.0000 0.17820  0.67460  0.17780  Biso   1.000  H
  H51      1.0000 0.67820  0.82540  0.67780  Biso   1.000  H
  H52      1.0000 0.82180  0.32540  0.82220  Biso   1.000  H
  C37      1.0000 0.51080  0.19850  0.42780  Biso   1.000  C
  C38      1.0000 0.98920  0.69850  0.07220  Biso   1.000  C
  C39      1.0000 0.48920  0.80150  0.57220  Biso   1.000  C
  C40      1.0000 0.01080  0.30150  0.92780  Biso   1.000  C
  H53      1.0000 0.58150  0.21590  0.44840  Biso   1.000  H
  H54      1.0000 0.91850  0.71590  0.05160  Biso   1.000  H
  H55      1.0000 0.41850  0.78410  0.55160  Biso   1.000  H
  H56      1.0000 0.08150  0.28410  0.94840  Biso   1.000  H
  C41      1.0000 0.42200  0.11550  0.51770  Biso   1.000  C
  C42      1.0000 0.07800  0.61550  0.98230  Biso   1.000  C
  C43      1.0000 0.57800  0.88450  0.48230  Biso   1.000  C
  C44      1.0000 0.92200  0.38450  0.01770  Biso   1.000  C
  H57      1.0000 0.34550  0.12630  0.53560  Biso   1.000  H
  H58      1.0000 0.15450  0.62630  0.96440  Biso   1.000  H
  H59      1.0000 0.65450  0.87370  0.46440  Biso   1.000  H
  H60      1.0000 0.84550  0.37370  0.03560  Biso   1.000  H
  H61      1.0000 0.48320  0.14420  0.54420  Biso   1.000  H
  H62      1.0000 0.01680  0.64420  0.95580  Biso   1.000  H
  H63      1.0000 0.51680  0.85580  0.45580  Biso   1.000  H
  H64      1.0000 0.98320  0.35580  0.04420  Biso   1.000  H
  C45      1.0000 0.44600  0.01620  0.51560  Biso   1.000  C
  C46      1.0000 0.05400  0.51620  0.98440  Biso   1.000  C
  C47      1.0000 0.55400  0.98380  0.48440  Biso   1.000  C
  C48      1.0000 0.94600  0.48380  0.01560  Biso   1.000  C
  H65      1.0000 0.37710  0.98810  0.49520  Biso   1.000  H
  H66      1.0000 0.12290  0.48810  0.00480  Biso   1.000  H
  H67      1.0000 0.62290  0.01190  0.50480  Biso   1.000  H
  H68      1.0000 0.87710  0.51190  0.99520  Biso   1.000  H
  H69      1.0000 0.45040  0.99460  0.55820  Biso   1.000  H
  H70      1.0000 0.04960  0.49460  0.94180  Biso   1.000  H
  H71      1.0000 0.54960  0.00540  0.44180  Biso   1.000  H
  H72      1.0000 0.95040  0.50540  0.05820  Biso   1.000  H
  C49      1.0000 0.69390  0.05790  0.33750  Biso   1.000  C
  C50      1.0000 0.80610  0.55790  0.16250  Biso   1.000  C
  C51      1.0000 0.30610  0.94210  0.66250  Biso   1.000  C
  C52      1.0000 0.19390  0.44210  0.83750  Biso   1.000  C
  H73      1.0000 0.62820  0.03100  0.31740  Biso   1.000  H
  H74      1.0000 0.87180  0.53100  0.18260  Biso   1.000  H
  H75      1.0000 0.37180  0.96900  0.68260  Biso   1.000  H
  H76      1.0000 0.12820  0.46900  0.81740  Biso   1.000  H
  C53      1.0000 0.81080  0.15570  0.37300  Biso   1.000  C
  C54      1.0000 0.68920  0.65570  0.12700  Biso   1.000  C
  C55      1.0000 0.18920  0.84430  0.62700  Biso   1.000  C
  C56      1.0000 0.31080  0.34430  0.87300  Biso   1.000  C
  H77      1.0000 0.84660  0.20980  0.38390  Biso   1.000  H
  H78      1.0000 0.65340  0.70980  0.11610  Biso   1.000  H
  H79      1.0000 0.15340  0.79020  0.61610  Biso   1.000  H
  H80      1.0000 0.34660  0.29020  0.88390  Biso   1.000  H
  C57      1.0000 0.96650  0.05530  0.42110  Biso   1.000  C
  C58      1.0000 0.53350  0.55530  0.07890  Biso   1.000  C
  C59      1.0000 0.03350  0.94470  0.57890  Biso   1.000  C
  C60      1.0000 0.46650  0.44470  0.92110  Biso   1.000  C
  H81      1.0000 0.00890  0.01010  0.39820  Biso   1.000  H
  H82      1.0000 0.49110  0.51010  0.10180  Biso   1.000  H
  H83      1.0000 0.99110  0.98990  0.60180  Biso   1.000  H
  H84      1.0000 0.50890  0.48990  0.89820  Biso   1.000  H
  H85      1.0000 0.01750  0.10760  0.42490  Biso   1.000  H
  H86      1.0000 0.48250  0.60760  0.07510  Biso   1.000  H
  H87      1.0000 0.98250  0.89240  0.57510  Biso   1.000  H
  H88      1.0000 0.51750  0.39240  0.92490  Biso   1.000  H
  C61      1.0000 0.94200  0.02070  0.48480  Biso   1.000  C
  C62      1.0000 0.55800  0.52070  0.01520  Biso   1.000  C
  C63      1.0000 0.05800  0.97930  0.51520  Biso   1.000  C
  C64      1.0000 0.44200  0.47930  0.98480  Biso   1.000  C
  H89      1.0000 0.91400  0.06910  0.51060  Biso   1.000  H
  H90      1.0000 0.58600  0.56910  0.98940  Biso   1.000  H
  H91      1.0000 0.08600  0.93090  0.48940  Biso   1.000  H
  H92      1.0000 0.41400  0.43090  0.01060  Biso   1.000  H
  H93      1.0000 0.87960  0.97570  0.48180  Biso   1.000  H
  H94      1.0000 0.62040  0.47570  0.01820  Biso   1.000  H
  H95      1.0000 0.12040  0.02430  0.51820  Biso   1.000  H
  H96      1.0000 0.37960  0.52430  0.98180  Biso   1.000  H
  N1       1.0000 0.48540  0.32600  0.25980  Biso   1.000  N
  N2       1.0000 0.01460  0.82600  0.24020  Biso   1.000  N
  N3       1.0000 0.51460  0.67400  0.74020  Biso   1.000  N
  N4       1.0000 0.98540  0.17400  0.75980  Biso   1.000  N
  N5       1.0000 0.40700  0.42830  0.19410  Biso   1.000  N
  N6       1.0000 0.09300  0.92830  0.30590  Biso   1.000  N
  N7       1.0000 0.59300  0.57170  0.80590  Biso   1.000  N
  N8       1.0000 0.90700  0.07170  0.69410  Biso   1.000  N
  N9       1.0000 0.38000  0.44780  0.25220  Biso   1.000  N
  N10      1.0000 0.12000  0.94780  0.24780  Biso   1.000  N
  N11      1.0000 0.62000  0.55220  0.74780  Biso   1.000  N
  N12      1.0000 0.88000  0.05220  0.75220  Biso   1.000  N
  N13      1.0000 0.63130  0.82010  0.31640  Biso   1.000  N
  N14      1.0000 0.86870  0.32010  0.18360  Biso   1.000  N
  N15      1.0000 0.36870  0.17990  0.68360  Biso   1.000  N
  N16      1.0000 0.13130  0.67990  0.81640  Biso   1.000  N
  N17      1.0000 0.62090  0.72830  0.31870  Biso   1.000  N
  N18      1.0000 0.87910  0.22830  0.18130  Biso   1.000  N
  N19      1.0000 0.37910  0.27170  0.68130  Biso   1.000  N
  N20      1.0000 0.12090  0.77170  0.81870  Biso   1.000  N
  N21      1.0000 0.77520  0.75790  0.26040  Biso   1.000  N
  N22      1.0000 0.72480  0.25790  0.23960  Biso   1.000  N
  N23      1.0000 0.22480  0.24210  0.73960  Biso   1.000  N
  N24      1.0000 0.27520  0.74210  0.76040  Biso   1.000  N
  N25      1.0000 0.48090  0.21380  0.36650  Biso   1.000  N
  N26      1.0000 0.01910  0.71380  0.13350  Biso   1.000  N
  N27      1.0000 0.51910  0.78620  0.63350  Biso   1.000  N
  N28      1.0000 0.98090  0.28620  0.86650  Biso   1.000  N
  N29      1.0000 0.42340  0.15560  0.45270  Biso   1.000  N
  N30      1.0000 0.07660  0.65560  0.04730  Biso   1.000  N
  N31      1.0000 0.57660  0.84440  0.54730  Biso   1.000  N
  N32      1.0000 0.92340  0.34440  0.95270  Biso   1.000  N
  N33      1.0000 0.33600  0.14030  0.41130  Biso   1.000  N
  N34      1.0000 0.16400  0.64030  0.08870  Biso   1.000  N
  N35      1.0000 0.66400  0.85970  0.58870  Biso   1.000  N
  N36      1.0000 0.83600  0.35970  0.91130  Biso   1.000  N
  N37      1.0000 0.70830  0.14890  0.34250  Biso   1.000  N
  N38      1.0000 0.79170  0.64890  0.15750  Biso   1.000  N
  N39      1.0000 0.29170  0.85110  0.65750  Biso   1.000  N
  N40      1.0000 0.20830  0.35110  0.84250  Biso   1.000  N
  N41      1.0000 0.78270  0.01290  0.36400  Biso   1.000  N
  N42      1.0000 0.71730  0.51290  0.13600  Biso   1.000  N
  N43      1.0000 0.21730  0.98710  0.63600  Biso   1.000  N
  N44      1.0000 0.28270  0.48710  0.86400  Biso   1.000  N
  N45      1.0000 0.85650  0.07900  0.38630  Biso   1.000  N
  N46      1.0000 0.64350  0.57900  0.11370  Biso   1.000  N
  N47      1.0000 0.14350  0.92100  0.61370  Biso   1.000  N
  N48      1.0000 0.35650  0.42100  0.88630  Biso   1.000  N
  O89      1.0000 0.59100  0.06300  0.66600  Biso   1.000  O
  O90      1.0000 0.90900  0.56300  0.83400  Biso   1.000  O
  O91      1.0000 0.40900  0.93700  0.33400  Biso   1.000  O
  O92      1.0000 0.09100  0.43700  0.16600  Biso   1.000  O
