data_image0
_cell_length_a       13.46
_cell_length_b       16.745
_cell_length_c       15.169
_cell_angle_alpha    90
_cell_angle_beta     109.66
_cell_angle_gamma    90

_symmetry_space_group_name_H-M    "P 1"
_symmetry_int_tables_number       1

loop_
  _symmetry_equiv_pos_as_xyz
  'x, y, z'

loop_
  _atom_site_label
  _atom_site_occupancy
  _atom_site_fract_x
  _atom_site_fract_y
  _atom_site_fract_z
  _atom_site_thermal_displace_type
  _atom_site_B_iso_or_equiv
  _atom_site_type_symbol
  Si1      1.0000 0.00000  0.50000  0.50000  Biso   1.000  Si
  Si2      1.0000 0.50000  0.00000  0.00000  Biso   1.000  Si
  W1       1.0000 0.17886  0.43471  0.71620  Biso   1.000  W
  W2       1.0000 0.32114  0.93471  0.78380  Biso   1.000  W
  W3       1.0000 0.82114  0.56529  0.28380  Biso   1.000  W
  W4       1.0000 0.67886  0.06529  0.21620  Biso   1.000  W
  W5       1.0000 0.91113  0.46436  0.68982  Biso   1.000  W
  W6       1.0000 0.58887  0.96436  0.81018  Biso   1.000  W
  W7       1.0000 0.08887  0.53564  0.31018  Biso   1.000  W
  W8       1.0000 0.41113  0.03564  0.18982  Biso   1.000  W
  W9       1.0000 0.98443  0.30297  0.57545  Biso   1.000  W
  W10      1.0000 0.51557  0.80297  0.92455  Biso   1.000  W
  W11      1.0000 0.01557  0.69703  0.42455  Biso   1.000  W
  W12      1.0000 0.48443  0.19703  0.07545  Biso   1.000  W
  W13      1.0000 0.81598  0.36594  0.35422  Biso   1.000  W
  W14      1.0000 0.68402  0.86594  0.14578  Biso   1.000  W
  W15      1.0000 0.18402  0.63406  0.64578  Biso   1.000  W
  W16      1.0000 0.31598  0.13406  0.85422  Biso   1.000  W
  W17      1.0000 0.73016  0.51921  0.47009  Biso   1.000  W
  W18      1.0000 0.76984  0.01921  0.02991  Biso   1.000  W
  W19      1.0000 0.26984  0.48079  0.52991  Biso   1.000  W
  W20      1.0000 0.23016  0.98079  0.97009  Biso   1.000  W
  W21      1.0000 0.08562  0.33993  0.39505  Biso   1.000  W
  W22      1.0000 0.41438  0.83993  0.10495  Biso   1.000  W
  W23      1.0000 0.91438  0.66007  0.60495  Biso   1.000  W
  W24      1.0000 0.58562  0.16007  0.89505  Biso   1.000  W
  Cu1      1.0000 0.33220  0.49750  0.16007  Biso   1.000  Cu
  Cu2      1.0000 0.16780  0.99750  0.33993  Biso   1.000  Cu
  Cu3      1.0000 0.66780  0.50250  0.83993  Biso   1.000  Cu
  Cu4      1.0000 0.83220  0.00250  0.66007  Biso   1.000  Cu
  O1       1.0000 0.47080  0.46830  0.11470  Biso   1.000  O
  O2       1.0000 0.02920  0.96830  0.38530  Biso   1.000  O
  O3       1.0000 0.52920  0.53170  0.88530  Biso   1.000  O
  O4       1.0000 0.97080  0.03170  0.61470  Biso   1.000  O
  O5       1.0000 0.97570  0.40310  0.46900  Biso   1.000  O
  O6       1.0000 0.52430  0.90310  0.03100  Biso   1.000  O
  O7       1.0000 0.02430  0.59690  0.53100  Biso   1.000  O
  O8       1.0000 0.47570  0.09690  0.96900  Biso   1.000  O
  O9       1.0000 0.91390  0.51940  0.55400  Biso   1.000  O
  O10      1.0000 0.58610  0.01940  0.94600  Biso   1.000  O
  O11      1.0000 0.08610  0.48060  0.44600  Biso   1.000  O
  O12      1.0000 0.41390  0.98060  0.05400  Biso   1.000  O
  O13      1.0000 0.11560  0.50430  0.57780  Biso   1.000  O
  O14      1.0000 0.38440  0.00430  0.92220  Biso   1.000  O
  O15      1.0000 0.88440  0.49570  0.42220  Biso   1.000  O
  O16      1.0000 0.61560  0.99570  0.07780  Biso   1.000  O
  O17      1.0000 0.98320  0.54830  0.41230  Biso   1.000  O
  O18      1.0000 0.51680  0.04830  0.08770  Biso   1.000  O
  O19      1.0000 0.01680  0.45170  0.58770  Biso   1.000  O
  O20      1.0000 0.48320  0.95170  0.91230  Biso   1.000  O
  O21      1.0000 0.53900  0.60870  0.05940  Biso   1.000  O
  O22      1.0000 0.96100  0.10870  0.44060  Biso   1.000  O
  O23      1.0000 0.46100  0.39130  0.94060  Biso   1.000  O
  O24      1.0000 0.03900  0.89130  0.55940  Biso   1.000  O
  O25      1.0000 0.93440  0.33400  0.33210  Biso   1.000  O
  O26      1.0000 0.56560  0.83400  0.16790  Biso   1.000  O
  O27      1.0000 0.06560  0.66600  0.66790  Biso   1.000  O
  O28      1.0000 0.43440  0.16600  0.83210  Biso   1.000  O
  O29      1.0000 0.86250  0.30300  0.46820  Biso   1.000  O
  O30      1.0000 0.63750  0.80300  0.03180  Biso   1.000  O
  O31      1.0000 0.13750  0.69700  0.53180  Biso   1.000  O
  O32      1.0000 0.36250  0.19700  0.96820  Biso   1.000  O
  O33      1.0000 0.06730  0.28800  0.49710  Biso   1.000  O
  O34      1.0000 0.43270  0.78800  0.00290  Biso   1.000  O
  O35      1.0000 0.93270  0.71200  0.50290  Biso   1.000  O
  O36      1.0000 0.56730  0.21200  0.99710  Biso   1.000  O
  O37      1.0000 0.79100  0.62070  0.52860  Biso   1.000  O
  O38      1.0000 0.70900  0.12070  0.97140  Biso   1.000  O
  O39      1.0000 0.20900  0.37930  0.47140  Biso   1.000  O
  O40      1.0000 0.29100  0.87930  0.02860  Biso   1.000  O
  O41      1.0000 0.26130  0.40480  0.81980  Biso   1.000  O
  O42      1.0000 0.23870  0.90480  0.68020  Biso   1.000  O
  O43      1.0000 0.73870  0.59520  0.18020  Biso   1.000  O
  O44      1.0000 0.76130  0.09520  0.31980  Biso   1.000  O
  O45      1.0000 0.78180  0.47210  0.58770  Biso   1.000  O
  O46      1.0000 0.71820  0.97210  0.91230  Biso   1.000  O
  O47      1.0000 0.21820  0.52790  0.41230  Biso   1.000  O
  O48      1.0000 0.28180  0.02790  0.08770  Biso   1.000  O
  O49      1.0000 0.26440  0.43180  0.64340  Biso   1.000  O
  O50      1.0000 0.23560  0.93180  0.85660  Biso   1.000  O
  O51      1.0000 0.73560  0.56820  0.35660  Biso   1.000  O
  O52      1.0000 0.76440  0.06820  0.14340  Biso   1.000  O
  O53      1.0000 0.92100  0.57740  0.68870  Biso   1.000  O
  O54      1.0000 0.57900  0.07740  0.81130  Biso   1.000  O
  O55      1.0000 0.07900  0.42260  0.31130  Biso   1.000  O
  O56      1.0000 0.42100  0.92260  0.18870  Biso   1.000  O
  O57      1.0000 0.97980  0.21080  0.61250  Biso   1.000  O
  O58      1.0000 0.52020  0.71080  0.88750  Biso   1.000  O
  O59      1.0000 0.02020  0.78920  0.38750  Biso   1.000  O
  O60      1.0000 0.47980  0.28920  0.11250  Biso   1.000  O
  O61      1.0000 0.20110  0.54790  0.72700  Biso   1.000  O
  O62      1.0000 0.29890  0.04790  0.77300  Biso   1.000  O
  O63      1.0000 0.79890  0.45210  0.27300  Biso   1.000  O
  O64      1.0000 0.70110  0.95210  0.22700  Biso   1.000  O
  O65      1.0000 0.73020  0.42320  0.41310  Biso   1.000  O
  O66      1.0000 0.76980  0.92320  0.08690  Biso   1.000  O
  O67      1.0000 0.26980  0.57680  0.58690  Biso   1.000  O
  O68      1.0000 0.23020  0.07680  0.91310  Biso   1.000  O
  O69      1.0000 0.12730  0.26730  0.34230  Biso   1.000  O
  O70      1.0000 0.37270  0.76730  0.15770  Biso   1.000  O
  O71      1.0000 0.87270  0.73270  0.65770  Biso   1.000  O
  O72      1.0000 0.62730  0.23270  0.84230  Biso   1.000  O
  O73      1.0000 0.60240  0.53070  0.45340  Biso   1.000  O
  O74      1.0000 0.89760  0.03070  0.04660  Biso   1.000  O
  O75      1.0000 0.39760  0.46930  0.54660  Biso   1.000  O
  O76      1.0000 0.10240  0.96930  0.95340  Biso   1.000  O
  O77      1.0000 0.11460  0.34030  0.66320  Biso   1.000  O
  O78      1.0000 0.38540  0.84030  0.83680  Biso   1.000  O
  O79      1.0000 0.88540  0.65970  0.33680  Biso   1.000  O
  O80      1.0000 0.61460  0.15970  0.16320  Biso   1.000  O
  O81      1.0000 0.72830  0.30210  0.28790  Biso   1.000  O
  O82      1.0000 0.77170  0.80210  0.21210  Biso   1.000  O
  O83      1.0000 0.27170  0.69790  0.71210  Biso   1.000  O
  O84      1.0000 0.22830  0.19790  0.78790  Biso   1.000  O
  O85      1.0000 0.86610  0.44770  0.77790  Biso   1.000  O
  O86      1.0000 0.63390  0.94770  0.72210  Biso   1.000  O
  O87      1.0000 0.13390  0.55230  0.22210  Biso   1.000  O
  O88      1.0000 0.36610  0.05230  0.27790  Biso   1.000  O
  O89      1.0000 0.05690  0.45650  0.74950  Biso   1.000  O
  O90      1.0000 0.44310  0.95650  0.75050  Biso   1.000  O
  O91      1.0000 0.94310  0.54350  0.25050  Biso   1.000  O
  O92      1.0000 0.55690  0.04350  0.24950  Biso   1.000  O
  O93      1.0000 0.91510  0.35950  0.64210  Biso   1.000  O
  O94      1.0000 0.58490  0.85950  0.85790  Biso   1.000  O
  O95      1.0000 0.08490  0.64050  0.35790  Biso   1.000  O
  O96      1.0000 0.41510  0.14050  0.14210  Biso   1.000  O
  C1       1.0000 0.21790  0.64070  0.05390  Biso   1.000  C
  C2       1.0000 0.28210  0.14070  0.44610  Biso   1.000  C
  C3       1.0000 0.78210  0.35930  0.94610  Biso   1.000  C
  C4       1.0000 0.71790  0.85930  0.55390  Biso   1.000  C
  H1       1.0000 0.19660  0.65940  0.10240  Biso   1.000  H
  H2       1.0000 0.30340  0.15940  0.39760  Biso   1.000  H
  H3       1.0000 0.80340  0.34060  0.89760  Biso   1.000  H
  H4       1.0000 0.69660  0.84060  0.60240  Biso   1.000  H
  C5       1.0000 0.28600  0.57860  0.97230  Biso   1.000  C
  C6       1.0000 0.21400  0.07860  0.52770  Biso   1.000  C
  C7       1.0000 0.71400  0.42140  0.02770  Biso   1.000  C
  C8       1.0000 0.78600  0.92140  0.47230  Biso   1.000  C
  H5       1.0000 0.32850  0.54320  0.95350  Biso   1.000  H
  H6       1.0000 0.17150  0.04320  0.54650  Biso   1.000  H
  H7       1.0000 0.67150  0.45680  0.04650  Biso   1.000  H
  H8       1.0000 0.82850  0.95680  0.45350  Biso   1.000  H
  C9       1.0000 0.12500  0.74500  0.94500  Biso   1.000  C
  C10      1.0000 0.37500  0.24500  0.55500  Biso   1.000  C
  C11      1.0000 0.87500  0.25500  0.05500  Biso   1.000  C
  C12      1.0000 0.62500  0.75500  0.44500  Biso   1.000  C
  H9       1.0000 0.16680  0.79020  0.97700  Biso   1.000  H
  H10      1.0000 0.33320  0.29020  0.52300  Biso   1.000  H
  H11      1.0000 0.83320  0.20980  0.02300  Biso   1.000  H
  H12      1.0000 0.66680  0.70980  0.47700  Biso   1.000  H
  H13      1.0000 0.06600  0.73940  0.96720  Biso   1.000  H
  H14      1.0000 0.43400  0.23940  0.53280  Biso   1.000  H
  H15      1.0000 0.93400  0.26060  0.03280  Biso   1.000  H
  H16      1.0000 0.56600  0.76060  0.46720  Biso   1.000  H
  C13      1.0000 0.09000  0.75900  0.85800  Biso   1.000  C
  C14      1.0000 0.41000  0.25900  0.64200  Biso   1.000  C
  C15      1.0000 0.91000  0.24100  0.14200  Biso   1.000  C
  C16      1.0000 0.59000  0.74100  0.35800  Biso   1.000  C
  H17      1.0000 0.14980  0.77440  0.83840  Biso   1.000  H
  H18      1.0000 0.35020  0.27440  0.66160  Biso   1.000  H
  H19      1.0000 0.85020  0.22560  0.16160  Biso   1.000  H
  H20      1.0000 0.64980  0.72560  0.33840  Biso   1.000  H
  H21      1.0000 0.06170  0.71020  0.82530  Biso   1.000  H
  H22      1.0000 0.43830  0.21020  0.67470  Biso   1.000  H
  H23      1.0000 0.93830  0.28980  0.17470  Biso   1.000  H
  H24      1.0000 0.56170  0.78980  0.32530  Biso   1.000  H
  C17      1.0000 0.47100  0.38940  0.30130  Biso   1.000  C
  C18      1.0000 0.02900  0.88940  0.19870  Biso   1.000  C
  C19      1.0000 0.52900  0.61060  0.69870  Biso   1.000  C
  C20      1.0000 0.97100  0.11060  0.80130  Biso   1.000  C
  H25      1.0000 0.53130  0.41590  0.30020  Biso   1.000  H
  H26      1.0000 0.96870  0.91590  0.19980  Biso   1.000  H
  H27      1.0000 0.46870  0.58410  0.69980  Biso   1.000  H
  H28      1.0000 0.03130  0.08410  0.80020  Biso   1.000  H
  C21      1.0000 0.32030  0.35300  0.28050  Biso   1.000  C
  C22      1.0000 0.17970  0.85300  0.21950  Biso   1.000  C
  C23      1.0000 0.67970  0.64700  0.71950  Biso   1.000  C
  C24      1.0000 0.82030  0.14700  0.78050  Biso   1.000  C
  H29      1.0000 0.24700  0.35410  0.26000  Biso   1.000  H
  H30      1.0000 0.25300  0.85410  0.24000  Biso   1.000  H
  H31      1.0000 0.75300  0.64590  0.74000  Biso   1.000  H
  H32      1.0000 0.74700  0.14590  0.76000  Biso   1.000  H
  C25      1.0000 0.57000  0.27900  0.42900  Biso   1.000  C
  C26      1.0000 0.93000  0.77900  0.07100  Biso   1.000  C
  C27      1.0000 0.43000  0.72100  0.57100  Biso   1.000  C
  C28      1.0000 0.07000  0.22100  0.92900  Biso   1.000  C
  H33      1.0000 0.55450  0.26820  0.48560  Biso   1.000  H
  H34      1.0000 0.94550  0.76820  0.01440  Biso   1.000  H
  H35      1.0000 0.44550  0.73180  0.51440  Biso   1.000  H
  H36      1.0000 0.05450  0.23180  0.98560  Biso   1.000  H
  H37      1.0000 0.63530  0.30880  0.44380  Biso   1.000  H
  H38      1.0000 0.86470  0.80880  0.05620  Biso   1.000  H
  H39      1.0000 0.36470  0.69120  0.55620  Biso   1.000  H
  H40      1.0000 0.13530  0.19120  0.94380  Biso   1.000  H
  C29      1.0000 0.57300  0.21260  0.38190  Biso   1.000  C
  C30      1.0000 0.92700  0.71260  0.11810  Biso   1.000  C
  C31      1.0000 0.42700  0.78740  0.61810  Biso   1.000  C
  C32      1.0000 0.07300  0.28740  0.88190  Biso   1.000  C
  H41      1.0000 0.50270  0.19450  0.34430  Biso   1.000  H
  H42      1.0000 0.99730  0.69450  0.15570  Biso   1.000  H
  H43      1.0000 0.49730  0.80550  0.65570  Biso   1.000  H
  H44      1.0000 0.00270  0.30550  0.84430  Biso   1.000  H
  H45      1.0000 0.61660  0.21780  0.34310  Biso   1.000  H
  H46      1.0000 0.88340  0.71780  0.15690  Biso   1.000  H
  H47      1.0000 0.38340  0.78220  0.65690  Biso   1.000  H
  H48      1.0000 0.11660  0.28220  0.84310  Biso   1.000  H
  C33      1.0000 0.61440  0.06580  0.55720  Biso   1.000  C
  C34      1.0000 0.88560  0.56580  0.94280  Biso   1.000  C
  C35      1.0000 0.38560  0.93420  0.44280  Biso   1.000  C
  C36      1.0000 0.11440  0.43420  0.05720  Biso   1.000  C
  H49      1.0000 0.58700  0.02630  0.58550  Biso   1.000  H
  H50      1.0000 0.91300  0.52630  0.91450  Biso   1.000  H
  H51      1.0000 0.41300  0.97370  0.41450  Biso   1.000  H
  H52      1.0000 0.08700  0.47370  0.08550  Biso   1.000  H
  C37      1.0000 0.72210  0.13430  0.51920  Biso   1.000  C
  C38      1.0000 0.77790  0.63430  0.98080  Biso   1.000  C
  C39      1.0000 0.27790  0.86570  0.48080  Biso   1.000  C
  C40      1.0000 0.22210  0.36570  0.01920  Biso   1.000  C
  H53      1.0000 0.78310  0.15630  0.51330  Biso   1.000  H
  H54      1.0000 0.71690  0.65630  0.98670  Biso   1.000  H
  H55      1.0000 0.21690  0.84370  0.48670  Biso   1.000  H
  H56      1.0000 0.28310  0.34370  0.01330  Biso   1.000  H
  N1       1.0000 0.27930  0.57840  0.05970  Biso   1.000  N
  N2       1.0000 0.22070  0.07840  0.44030  Biso   1.000  N
  N3       1.0000 0.72070  0.42160  0.94030  Biso   1.000  N
  N4       1.0000 0.77930  0.92160  0.55970  Biso   1.000  N
  N5       1.0000 0.19110  0.67240  0.97120  Biso   1.000  N
  N6       1.0000 0.30890  0.17240  0.52880  Biso   1.000  N
  N7       1.0000 0.80890  0.32760  0.02880  Biso   1.000  N
  N8       1.0000 0.69110  0.82760  0.47120  Biso   1.000  N
  N9       1.0000 0.22900  0.63160  0.91860  Biso   1.000  N
  N10      1.0000 0.27100  0.13160  0.58140  Biso   1.000  N
  N11      1.0000 0.77100  0.36840  0.08140  Biso   1.000  N
  N12      1.0000 0.72900  0.86840  0.41860  Biso   1.000  N
  N13      1.0000 0.00920  0.82190  0.82480  Biso   1.000  N
  N14      1.0000 0.49080  0.32190  0.67520  Biso   1.000  N
  N15      1.0000 0.99080  0.17810  0.17520  Biso   1.000  N
  N16      1.0000 0.50920  0.67810  0.32480  Biso   1.000  N
  N17      1.0000 0.93740  0.83360  0.86510  Biso   1.000  N
  N18      1.0000 0.56260  0.33360  0.63490  Biso   1.000  N
  N19      1.0000 0.06260  0.16640  0.13490  Biso   1.000  N
  N20      1.0000 0.43740  0.66640  0.36510  Biso   1.000  N
  C41      1.0000 0.87610  0.89320  0.82130  Biso   1.000  C
  C42      1.0000 0.62390  0.39320  0.67870  Biso   1.000  C
  C43      1.0000 0.12390  0.10680  0.17870  Biso   1.000  C
  C44      1.0000 0.37610  0.60680  0.32130  Biso   1.000  C
  H57      1.0000 0.81910  0.91380  0.83540  Biso   1.000  H
  H58      1.0000 0.68090  0.41380  0.66460  Biso   1.000  H
  H59      1.0000 0.18090  0.08620  0.16460  Biso   1.000  H
  H60      1.0000 0.31910  0.58620  0.33540  Biso   1.000  H
  N21      1.0000 0.91010  0.91830  0.75380  Biso   1.000  N
  N22      1.0000 0.58990  0.41830  0.74620  Biso   1.000  N
  N23      1.0000 0.08990  0.08170  0.24620  Biso   1.000  N
  N24      1.0000 0.41010  0.58170  0.25380  Biso   1.000  N
  C45      1.0000 0.99240  0.87430  0.75600  Biso   1.000  C
  C46      1.0000 0.50760  0.37430  0.74400  Biso   1.000  C
  C47      1.0000 0.00760  0.12570  0.24400  Biso   1.000  C
  C48      1.0000 0.49240  0.62570  0.25600  Biso   1.000  C
  H61      1.0000 0.03160  0.87920  0.71610  Biso   1.000  H
  H62      1.0000 0.46840  0.37920  0.78390  Biso   1.000  H
  H63      1.0000 0.96840  0.12080  0.28390  Biso   1.000  H
  H64      1.0000 0.53160  0.62080  0.21610  Biso   1.000  H
  N25      1.0000 0.37710  0.41100  0.25510  Biso   1.000  N
  N26      1.0000 0.12290  0.91100  0.24490  Biso   1.000  N
  N27      1.0000 0.62290  0.58900  0.74490  Biso   1.000  N
  N28      1.0000 0.87710  0.08900  0.75510  Biso   1.000  N
  N29      1.0000 0.47150  0.32570  0.35010  Biso   1.000  N
  N30      1.0000 0.02850  0.82570  0.14990  Biso   1.000  N
  N31      1.0000 0.52850  0.67430  0.64990  Biso   1.000  N
  N32      1.0000 0.97150  0.17430  0.85010  Biso   1.000  N
  N33      1.0000 0.37280  0.29730  0.33380  Biso   1.000  N
  N34      1.0000 0.12720  0.79730  0.16620  Biso   1.000  N
  N35      1.0000 0.62720  0.70270  0.66620  Biso   1.000  N
  N36      1.0000 0.87280  0.20270  0.83380  Biso   1.000  N
  N37      1.0000 0.62570  0.15640  0.47230  Biso   1.000  N
  N38      1.0000 0.87430  0.65640  0.02770  Biso   1.000  N
  N39      1.0000 0.37430  0.84360  0.52770  Biso   1.000  N
  N40      1.0000 0.12570  0.34360  0.97230  Biso   1.000  N
  N41      1.0000 0.55510  0.11450  0.49710  Biso   1.000  N
  N42      1.0000 0.94490  0.61450  0.00290  Biso   1.000  N
  N43      1.0000 0.44490  0.88550  0.50290  Biso   1.000  N
  N44      1.0000 0.05510  0.38550  0.99710  Biso   1.000  N
  N45      1.0000 0.71890  0.07550  0.57660  Biso   1.000  N
  N46      1.0000 0.78110  0.57550  0.92340  Biso   1.000  N
  N47      1.0000 0.28110  0.92450  0.42340  Biso   1.000  N
  N48      1.0000 0.21890  0.42450  0.07660  Biso   1.000  N
