data_image0
_cell_length_a       10.2074
_cell_length_b       12.367
_cell_length_c       13.4551
_cell_angle_alpha    90
_cell_angle_beta     131.169
_cell_angle_gamma    90

_symmetry_space_group_name_H-M    "P 1"
_symmetry_int_tables_number       1

loop_
  _symmetry_equiv_pos_as_xyz
  'x, y, z'

loop_
  _atom_site_label
  _atom_site_occupancy
  _atom_site_fract_x
  _atom_site_fract_y
  _atom_site_fract_z
  _atom_site_thermal_displace_type
  _atom_site_B_iso_or_equiv
  _atom_site_type_symbol
  Cu1      1.0000 0.85865  0.12830  0.30153  Biso   1.000  Cu
  Cu2      1.0000 0.14135  0.62830  0.19847  Biso   1.000  Cu
  Cu3      1.0000 0.14135  0.87170  0.69847  Biso   1.000  Cu
  Cu4      1.0000 0.85865  0.37170  0.80153  Biso   1.000  Cu
  N1       1.0000 0.85940  0.16740  0.76550  Biso   1.000  N
  N2       1.0000 0.14060  0.66740  0.73450  Biso   1.000  N
  N3       1.0000 0.14060  0.83260  0.23450  Biso   1.000  N
  N4       1.0000 0.85940  0.33260  0.26550  Biso   1.000  N
  N5       1.0000 0.15100  0.09770  0.71630  Biso   1.000  N
  N6       1.0000 0.84900  0.59770  0.78370  Biso   1.000  N
  N7       1.0000 0.84900  0.90230  0.28370  Biso   1.000  N
  N8       1.0000 0.15100  0.40230  0.21630  Biso   1.000  N
  O1       1.0000 0.10050  0.12598  0.47020  Biso   1.000  O
  O2       1.0000 0.89950  0.62598  0.02980  Biso   1.000  O
  O3       1.0000 0.89950  0.87402  0.52980  Biso   1.000  O
  O4       1.0000 0.10050  0.37402  0.97020  Biso   1.000  O
  N9       1.0000 0.98540  0.11703  0.23160  Biso   1.000  N
  N10      1.0000 0.01460  0.61703  0.26840  Biso   1.000  N
  N11      1.0000 0.01460  0.88297  0.76840  Biso   1.000  N
  N12      1.0000 0.98540  0.38297  0.73160  Biso   1.000  N
  C1       1.0000 0.74930  0.13830  0.46620  Biso   1.000  C
  C2       1.0000 0.25070  0.63830  0.03380  Biso   1.000  C
  C3       1.0000 0.25070  0.86170  0.53380  Biso   1.000  C
  C4       1.0000 0.74930  0.36170  0.96620  Biso   1.000  C
  C5       1.0000 0.15880  0.11820  0.32820  Biso   1.000  C
  C6       1.0000 0.84120  0.61820  0.17180  Biso   1.000  C
  C7       1.0000 0.84120  0.88180  0.67180  Biso   1.000  C
  C8       1.0000 0.15880  0.38180  0.82820  Biso   1.000  C
  N13      1.0000 0.20460  0.11610  0.17610  Biso   1.000  N
  N14      1.0000 0.79540  0.61610  0.32390  Biso   1.000  N
  N15      1.0000 0.79540  0.88390  0.82390  Biso   1.000  N
  N16      1.0000 0.20460  0.38390  0.67610  Biso   1.000  N
  C9       1.0000 0.92200  0.11540  0.10710  Biso   1.000  C
  C10      1.0000 0.07800  0.61540  0.39290  Biso   1.000  C
  C11      1.0000 0.07800  0.88460  0.89290  Biso   1.000  C
  C12      1.0000 0.92200  0.38460  0.60710  Biso   1.000  C
  H1       1.0000 0.80260  0.11360  0.03640  Biso   1.000  H
  H2       1.0000 0.19740  0.61360  0.46360  Biso   1.000  H
  H3       1.0000 0.19740  0.88640  0.96360  Biso   1.000  H
  H4       1.0000 0.80260  0.38640  0.53640  Biso   1.000  H
  C13      1.0000 0.47490  0.12410  0.04000  Biso   1.000  C
  C14      1.0000 0.52510  0.62410  0.46000  Biso   1.000  C
  C15      1.0000 0.52510  0.87590  0.96000  Biso   1.000  C
  C16      1.0000 0.47490  0.37590  0.54000  Biso   1.000  C
  C17      1.0000 0.21860  0.12340  0.46290  Biso   1.000  C
  C18      1.0000 0.78140  0.62340  0.03710  Biso   1.000  C
  C19      1.0000 0.78140  0.87660  0.53710  Biso   1.000  C
  C20      1.0000 0.21860  0.37660  0.96290  Biso   1.000  C
  N17      1.0000 0.30980  0.13080  0.95070  Biso   1.000  N
  N18      1.0000 0.69020  0.63080  0.54930  Biso   1.000  N
  N19      1.0000 0.69020  0.86920  0.04930  Biso   1.000  N
  N20      1.0000 0.30980  0.36920  0.45070  Biso   1.000  N
  N21      1.0000 0.62210  0.12060  0.13000  Biso   1.000  N
  N22      1.0000 0.37790  0.62060  0.37000  Biso   1.000  N
  N23      1.0000 0.37790  0.87940  0.87000  Biso   1.000  N
  N24      1.0000 0.62210  0.37940  0.63000  Biso   1.000  N
  C21      1.0000 0.79170  0.15160  0.65650  Biso   1.000  C
  C22      1.0000 0.20830  0.65160  0.84350  Biso   1.000  C
  C23      1.0000 0.20830  0.84840  0.34350  Biso   1.000  C
  C24      1.0000 0.79170  0.34840  0.15650  Biso   1.000  C
  C25      1.0000 0.23040  0.11320  0.82490  Biso   1.000  C
  C26      1.0000 0.76960  0.61320  0.67510  Biso   1.000  C
  C27      1.0000 0.76960  0.88680  0.17510  Biso   1.000  C
  C28      1.0000 0.23040  0.38680  0.32490  Biso   1.000  C
  N25      1.0000 0.77060  0.13960  0.39410  Biso   1.000  N
  N26      1.0000 0.22940  0.63960  0.10590  Biso   1.000  N
  N27      1.0000 0.22940  0.86040  0.60590  Biso   1.000  N
  N28      1.0000 0.77060  0.36040  0.89410  Biso   1.000  N
  C29      1.0000 0.03760  0.11650  0.08480  Biso   1.000  C
  C30      1.0000 0.96240  0.61650  0.41520  Biso   1.000  C
  C31      1.0000 0.96240  0.88350  0.91520  Biso   1.000  C
  C32      1.0000 0.03760  0.38350  0.58480  Biso   1.000  C
  H5       1.0000 0.99050  0.11750  0.99760  Biso   1.000  H
  H6       1.0000 0.00950  0.61750  0.50240  Biso   1.000  H
  H7       1.0000 0.00950  0.88250  0.00240  Biso   1.000  H
  H8       1.0000 0.99050  0.38250  0.49760  Biso   1.000  H
  N29      1.0000 0.70040  0.13250  0.53300  Biso   1.000  N
  N30      1.0000 0.29960  0.63250  0.96700  Biso   1.000  N
  N31      1.0000 0.29960  0.86750  0.46700  Biso   1.000  N
  N32      1.0000 0.70040  0.36750  0.03300  Biso   1.000  N
  C33      1.0000 0.26840  0.11610  0.30230  Biso   1.000  C
  C34      1.0000 0.73160  0.61610  0.19770  Biso   1.000  C
  C35      1.0000 0.73160  0.88390  0.69770  Biso   1.000  C
  C36      1.0000 0.26840  0.38390  0.80230  Biso   1.000  C
  H9       1.0000 0.38810  0.11470  0.37210  Biso   1.000  H
  H10      1.0000 0.61190  0.61470  0.12790  Biso   1.000  H
  H11      1.0000 0.61190  0.88530  0.62790  Biso   1.000  H
  H12      1.0000 0.38810  0.38530  0.87210  Biso   1.000  H
  O5       1.0000 0.38980  0.12380  0.55910  Biso   1.000  O
  O6       1.0000 0.61020  0.62380  0.94090  Biso   1.000  O
  O7       1.0000 0.61020  0.87620  0.44090  Biso   1.000  O
  O8       1.0000 0.38980  0.37620  0.05910  Biso   1.000  O
  H13      1.0000 0.43000  0.14000  0.65200  Biso   1.000  H
  H14      1.0000 0.57000  0.64000  0.84800  Biso   1.000  H
  H15      1.0000 0.57000  0.86000  0.34800  Biso   1.000  H
  H16      1.0000 0.43000  0.36000  0.15200  Biso   1.000  H
