data_image0
_cell_length_a       8.6238
_cell_length_b       9.5937
_cell_length_c       12.022
_cell_angle_alpha    110.52
_cell_angle_beta     103.4
_cell_angle_gamma    91.34

_symmetry_space_group_name_H-M    "P 1"
_symmetry_int_tables_number       1

loop_
  _symmetry_equiv_pos_as_xyz
  'x, y, z'

loop_
  _atom_site_label
  _atom_site_occupancy
  _atom_site_fract_x
  _atom_site_fract_y
  _atom_site_fract_z
  _atom_site_thermal_displace_type
  _atom_site_B_iso_or_equiv
  _atom_site_type_symbol
  C1       1.0000 0.35120  0.10720  0.55060  Biso   1.000  C
  C2       1.0000 0.64880  0.89280  0.44940  Biso   1.000  C
  H1       1.0000 0.36380  0.03390  0.47940  Biso   1.000  H
  H2       1.0000 0.63620  0.96610  0.52060  Biso   1.000  H
  C3       1.0000 0.46560  0.21690  0.63080  Biso   1.000  C
  C4       1.0000 0.53440  0.78310  0.36920  Biso   1.000  C
  H3       1.0000 0.56990  0.23290  0.62540  Biso   1.000  H
  H4       1.0000 0.43010  0.76710  0.37460  Biso   1.000  H
  C5       1.0000 0.24790  0.23770  0.69150  Biso   1.000  C
  C6       1.0000 0.75210  0.76230  0.30850  Biso   1.000  C
  H5       1.0000 0.17450  0.27360  0.73750  Biso   1.000  H
  H6       1.0000 0.82550  0.72640  0.26250  Biso   1.000  H
  C7       1.0000 0.47280  0.43680  0.82740  Biso   1.000  C
  C8       1.0000 0.52720  0.56320  0.17260  Biso   1.000  C
  H7       1.0000 0.55520  0.41110  0.88460  Biso   1.000  H
  H8       1.0000 0.44480  0.58890  0.11540  Biso   1.000  H
  H9       1.0000 0.39230  0.48050  0.86950  Biso   1.000  H
  H10      1.0000 0.60770  0.51950  0.13050  Biso   1.000  H
  C9       1.0000 0.71210  0.57930  0.82040  Biso   1.000  C
  C10      1.0000 0.28790  0.42070  0.17960  Biso   1.000  C
  H11      1.0000 0.77370  0.52800  0.86410  Biso   1.000  H
  H12      1.0000 0.22630  0.47200  0.13590  Biso   1.000  H
  C11      1.0000 0.78710  0.68250  0.78810  Biso   1.000  C
  C12      1.0000 0.21290  0.31750  0.21190  Biso   1.000  C
  H13      1.0000 0.89840  0.70170  0.81130  Biso   1.000  H
  H14      1.0000 0.10160  0.29830  0.18870  Biso   1.000  H
  C13      1.0000 0.69760  0.75630  0.72210  Biso   1.000  C
  C14      1.0000 0.30240  0.24370  0.27790  Biso   1.000  C
  H15      1.0000 0.74750  0.82520  0.69930  Biso   1.000  H
  H16      1.0000 0.25250  0.17480  0.30070  Biso   1.000  H
  C15      1.0000 0.52980  0.72720  0.68880  Biso   1.000  C
  C16      1.0000 0.47020  0.27280  0.31120  Biso   1.000  C
  H17      1.0000 0.46900  0.77690  0.64320  Biso   1.000  H
  H18      1.0000 0.53100  0.22310  0.35680  Biso   1.000  H
  C17      1.0000 0.45320  0.62670  0.72240  Biso   1.000  C
  C18      1.0000 0.54680  0.37330  0.27760  Biso   1.000  C
  C19      1.0000 0.27080  0.60030  0.69120  Biso   1.000  C
  C20      1.0000 0.72920  0.39970  0.30880  Biso   1.000  C
  H19      1.0000 0.23730  0.49360  0.66200  Biso   1.000  H
  H20      1.0000 0.76270  0.50640  0.33800  Biso   1.000  H
  H21      1.0000 0.23510  0.64830  0.76500  Biso   1.000  H
  H22      1.0000 0.76490  0.35170  0.23500  Biso   1.000  H
  C21      1.0000 0.95010  0.14310  0.81880  Biso   1.000  C
  C22      1.0000 0.04990  0.85690  0.18120  Biso   1.000  C
  C23      1.0000 0.97780  0.07130  0.91410  Biso   1.000  C
  C24      1.0000 0.02220  0.92870  0.08590  Biso   1.000  C
  C25      1.0000 0.12150  0.01250  0.94350  Biso   1.000  C
  C26      1.0000 0.87850  0.98750  0.05650  Biso   1.000  C
  C27      1.0000 0.26820  0.03940  0.90790  Biso   1.000  C
  C28      1.0000 0.73180  0.96060  0.09210  Biso   1.000  C
  H23      1.0000 0.26240  0.09670  0.85900  Biso   1.000  H
  H24      1.0000 0.73760  0.90330  0.14100  Biso   1.000  H
  C29      1.0000 0.41480  0.98730  0.94020  Biso   1.000  C
  C30      1.0000 0.58520  0.01270  0.05980  Biso   1.000  C
  C31      1.0000 0.85600  0.06030  0.97080  Biso   1.000  C
  C32      1.0000 0.14400  0.93970  0.02920  Biso   1.000  C
  C33      1.0000 0.69370  0.11060  0.93210  Biso   1.000  C
  C34      1.0000 0.30630  0.88940  0.06790  Biso   1.000  C
  H25      1.0000 0.67910  0.15720  0.87500  Biso   1.000  H
  H26      1.0000 0.32090  0.84280  0.12500  Biso   1.000  H
  C35      1.0000 0.56600  0.08960  0.97910  Biso   1.000  C
  C36      1.0000 0.43400  0.91040  0.02090  Biso   1.000  C
  C37      1.0000 0.54660  0.55110  0.78850  Biso   1.000  C
  C38      1.0000 0.45340  0.44890  0.21150  Biso   1.000  C
  C39      1.0000 0.19540  0.60130  0.47700  Biso   1.000  C
  C40      1.0000 0.80460  0.39870  0.52300  Biso   1.000  C
  H27      1.0000 0.23270  0.51180  0.43740  Biso   1.000  H
  H28      1.0000 0.76730  0.48820  0.56260  Biso   1.000  H
  C41      1.0000 0.13080  0.78830  0.61640  Biso   1.000  C
  C42      1.0000 0.86920  0.21170  0.38360  Biso   1.000  C
  H29      1.0000 0.11670  0.85070  0.69150  Biso   1.000  H
  H30      1.0000 0.88330  0.14930  0.30850  Biso   1.000  H
  C43      1.0000 0.13180  0.69780  0.42580  Biso   1.000  C
  C44      1.0000 0.86820  0.30220  0.57420  Biso   1.000  C
  H31      1.0000 0.11810  0.68690  0.34400  Biso   1.000  H
  H32      1.0000 0.88190  0.31310  0.65600  Biso   1.000  H
  N1       1.0000 0.21450  0.11970  0.58940  Biso   1.000  N
  N2       1.0000 0.78550  0.88030  0.41060  Biso   1.000  N
  N3       1.0000 0.39840  0.30040  0.72200  Biso   1.000  N
  N4       1.0000 0.60160  0.69960  0.27800  Biso   1.000  N
  N5       1.0000 0.19480  0.65900  0.59740  Biso   1.000  N
  N6       1.0000 0.80520  0.34100  0.40260  Biso   1.000  N
  N7       1.0000 0.09060  0.81480  0.51390  Biso   1.000  N
  N8       1.0000 0.90940  0.18520  0.48610  Biso   1.000  N
  O1       1.0000 0.95410  0.06380  0.71320  Biso   1.000  O
  O2       1.0000 0.04590  0.93620  0.28680  Biso   1.000  O
  O3       1.0000 0.92700  0.27710  0.85310  Biso   1.000  O
  O4       1.0000 0.07300  0.72290  0.14690  Biso   1.000  O
  O5       1.0000 0.13860  0.54320  0.92050  Biso   1.000  O
  O6       1.0000 0.86140  0.45680  0.07950  Biso   1.000  O
  Cu1      1.0000 0.00000  0.00000  0.50000  Biso   1.000  Cu
  H33      1.0000 0.11500  0.60800  0.98200  Biso   1.000  H
  H34      1.0000 0.88500  0.39200  0.01800  Biso   1.000  H
  H35      1.0000 0.07400  0.46600  0.90700  Biso   1.000  H
  H36      1.0000 0.92600  0.53400  0.09300  Biso   1.000  H
