data_image0
_cell_length_a       13.915
_cell_length_b       9.6531
_cell_length_c       17.322
_cell_angle_alpha    90
_cell_angle_beta     96.56
_cell_angle_gamma    90

_symmetry_space_group_name_H-M    "P 1"
_symmetry_int_tables_number       1

loop_
  _symmetry_equiv_pos_as_xyz
  'x, y, z'

loop_
  _atom_site_label
  _atom_site_occupancy
  _atom_site_fract_x
  _atom_site_fract_y
  _atom_site_fract_z
  _atom_site_thermal_displace_type
  _atom_site_B_iso_or_equiv
  _atom_site_type_symbol
  Cu1      1.0000 0.18611  0.04320  0.39177  Biso   1.000  Cu
  Cu2      1.0000 0.81389  0.54320  0.10823  Biso   1.000  Cu
  Cu3      1.0000 0.81389  0.95680  0.60823  Biso   1.000  Cu
  Cu4      1.0000 0.18611  0.45680  0.89177  Biso   1.000  Cu
  O1       1.0000 0.91460  0.16630  0.41960  Biso   1.000  O
  O2       1.0000 0.08540  0.66630  0.08040  Biso   1.000  O
  O3       1.0000 0.08540  0.83370  0.58040  Biso   1.000  O
  O4       1.0000 0.91460  0.33370  0.91960  Biso   1.000  O
  O5       1.0000 0.16240  0.19600  0.52270  Biso   1.000  O
  O6       1.0000 0.83760  0.69600  0.97730  Biso   1.000  O
  O7       1.0000 0.83760  0.80400  0.47730  Biso   1.000  O
  O8       1.0000 0.16240  0.30400  0.02270  Biso   1.000  O
  O9       1.0000 0.85860  0.32810  0.33550  Biso   1.000  O
  O10      1.0000 0.14140  0.82810  0.16450  Biso   1.000  O
  O11      1.0000 0.14140  0.67190  0.66450  Biso   1.000  O
  O12      1.0000 0.85860  0.17190  0.83550  Biso   1.000  O
  O13      1.0000 0.12060  0.23000  0.39659  Biso   1.000  O
  O14      1.0000 0.87940  0.73000  0.10341  Biso   1.000  O
  O15      1.0000 0.87940  0.77000  0.60341  Biso   1.000  O
  O16      1.0000 0.12060  0.27000  0.89659  Biso   1.000  O
  O17      1.0000 0.13930  0.05870  0.25800  Biso   1.000  O
  O18      1.0000 0.86070  0.55870  0.24200  Biso   1.000  O
  O19      1.0000 0.86070  0.94130  0.74200  Biso   1.000  O
  O20      1.0000 0.13930  0.44130  0.75800  Biso   1.000  O
  N1       1.0000 0.32230  0.66020  0.42280  Biso   1.000  N
  N2       1.0000 0.67770  0.16020  0.07720  Biso   1.000  N
  N3       1.0000 0.67770  0.33980  0.57720  Biso   1.000  N
  N4       1.0000 0.32230  0.83980  0.92280  Biso   1.000  N
  N5       1.0000 0.25700  0.86610  0.42350  Biso   1.000  N
  N6       1.0000 0.74300  0.36610  0.07650  Biso   1.000  N
  N7       1.0000 0.74300  0.13390  0.57650  Biso   1.000  N
  N8       1.0000 0.25700  0.63390  0.92350  Biso   1.000  N
  N9       1.0000 0.31390  0.12880  0.37420  Biso   1.000  N
  N10      1.0000 0.68610  0.62880  0.12580  Biso   1.000  N
  N11      1.0000 0.68610  0.87120  0.62580  Biso   1.000  N
  N12      1.0000 0.31390  0.37120  0.87420  Biso   1.000  N
  C1       1.0000 0.11660  0.25880  0.46790  Biso   1.000  C
  C2       1.0000 0.88340  0.75880  0.03210  Biso   1.000  C
  C3       1.0000 0.88340  0.74120  0.53210  Biso   1.000  C
  C4       1.0000 0.11660  0.24120  0.96790  Biso   1.000  C
  N13      1.0000 0.41630  0.26120  0.32220  Biso   1.000  N
  N14      1.0000 0.58370  0.76120  0.17780  Biso   1.000  N
  N15      1.0000 0.58370  0.73880  0.67780  Biso   1.000  N
  N16      1.0000 0.41630  0.23880  0.82220  Biso   1.000  N
  C5       1.0000 0.36530  0.53820  0.39220  Biso   1.000  C
  C6       1.0000 0.63470  0.03820  0.10780  Biso   1.000  C
  C7       1.0000 0.63470  0.46180  0.60780  Biso   1.000  C
  C8       1.0000 0.36530  0.96180  0.89220  Biso   1.000  C
  H1       1.0000 0.32780  0.51220  0.34370  Biso   1.000  H
  H2       1.0000 0.67220  0.01220  0.15630  Biso   1.000  H
  H3       1.0000 0.67220  0.48780  0.65630  Biso   1.000  H
  H4       1.0000 0.32780  0.98780  0.84370  Biso   1.000  H
  H5       1.0000 0.36180  0.46240  0.42850  Biso   1.000  H
  H6       1.0000 0.63820  0.96240  0.07150  Biso   1.000  H
  H7       1.0000 0.63820  0.53760  0.57150  Biso   1.000  H
  H8       1.0000 0.36180  0.03760  0.92850  Biso   1.000  H
  C9       1.0000 0.95810  0.39890  0.44810  Biso   1.000  C
  C10      1.0000 0.04190  0.89890  0.05190  Biso   1.000  C
  C11      1.0000 0.04190  0.60110  0.55190  Biso   1.000  C
  C12      1.0000 0.95810  0.10110  0.94810  Biso   1.000  C
  C13      1.0000 0.05370  0.38220  0.48470  Biso   1.000  C
  C14      1.0000 0.94630  0.88220  0.01530  Biso   1.000  C
  C15      1.0000 0.94630  0.61780  0.51530  Biso   1.000  C
  C16      1.0000 0.05370  0.11780  0.98470  Biso   1.000  C
  C17      1.0000 0.51000  0.47880  0.32320  Biso   1.000  C
  C18      1.0000 0.49000  0.97880  0.17680  Biso   1.000  C
  C19      1.0000 0.49000  0.52120  0.67680  Biso   1.000  C
  C20      1.0000 0.51000  0.02120  0.82320  Biso   1.000  C
  C21      1.0000 0.46910  0.55830  0.37800  Biso   1.000  C
  C22      1.0000 0.53090  0.05830  0.12200  Biso   1.000  C
  C23      1.0000 0.53090  0.44170  0.62200  Biso   1.000  C
  C24      1.0000 0.46910  0.94170  0.87800  Biso   1.000  C
  C25      1.0000 0.90710  0.51680  0.46410  Biso   1.000  C
  C26      1.0000 0.09290  0.01680  0.03590  Biso   1.000  C
  C27      1.0000 0.09290  0.48320  0.53590  Biso   1.000  C
  C28      1.0000 0.90710  0.98320  0.96410  Biso   1.000  C
  H9       1.0000 0.84460  0.52860  0.43960  Biso   1.000  H
  H10      1.0000 0.15540  0.02860  0.06040  Biso   1.000  H
  H11      1.0000 0.15540  0.47140  0.56040  Biso   1.000  H
  H12      1.0000 0.84460  0.97140  0.93960  Biso   1.000  H
  C29      1.0000 0.28390  0.76490  0.38030  Biso   1.000  C
  C30      1.0000 0.71610  0.26490  0.11970  Biso   1.000  C
  C31      1.0000 0.71610  0.23510  0.61970  Biso   1.000  C
  C32      1.0000 0.28390  0.73510  0.88030  Biso   1.000  C
  H13      1.0000 0.27700  0.76640  0.32630  Biso   1.000  H
  H14      1.0000 0.72300  0.26640  0.17370  Biso   1.000  H
  H15      1.0000 0.72300  0.23360  0.67370  Biso   1.000  H
  H16      1.0000 0.27700  0.73360  0.82630  Biso   1.000  H
  C33      1.0000 0.45450  0.37110  0.27490  Biso   1.000  C
  C34      1.0000 0.54550  0.87110  0.22510  Biso   1.000  C
  C35      1.0000 0.54550  0.62890  0.72510  Biso   1.000  C
  C36      1.0000 0.45450  0.12890  0.77490  Biso   1.000  C
  H17      1.0000 0.40110  0.41500  0.24320  Biso   1.000  H
  H18      1.0000 0.59890  0.91500  0.25680  Biso   1.000  H
  H19      1.0000 0.59890  0.58500  0.75680  Biso   1.000  H
  H20      1.0000 0.40110  0.08500  0.74320  Biso   1.000  H
  H21      1.0000 0.49640  0.32960  0.24020  Biso   1.000  H
  H22      1.0000 0.50360  0.82960  0.25980  Biso   1.000  H
  H23      1.0000 0.50360  0.67040  0.75980  Biso   1.000  H
  H24      1.0000 0.49640  0.17040  0.74020  Biso   1.000  H
  C37      1.0000 0.90700  0.28890  0.39670  Biso   1.000  C
  C38      1.0000 0.09300  0.78890  0.10330  Biso   1.000  C
  C39      1.0000 0.09300  0.71110  0.60330  Biso   1.000  C
  C40      1.0000 0.90700  0.21110  0.89670  Biso   1.000  C
  C41      1.0000 0.31980  0.69480  0.49860  Biso   1.000  C
  C42      1.0000 0.68020  0.19480  0.00140  Biso   1.000  C
  C43      1.0000 0.68020  0.30520  0.50140  Biso   1.000  C
  C44      1.0000 0.31980  0.80520  0.99860  Biso   1.000  C
  H25      1.0000 0.34160  0.64170  0.54190  Biso   1.000  H
  H26      1.0000 0.65840  0.14170  0.95810  Biso   1.000  H
  H27      1.0000 0.65840  0.35830  0.45810  Biso   1.000  H
  H28      1.0000 0.34160  0.85830  0.04190  Biso   1.000  H
  C45      1.0000 0.46900  0.17200  0.37080  Biso   1.000  C
  C46      1.0000 0.53100  0.67200  0.12920  Biso   1.000  C
  C47      1.0000 0.53100  0.82800  0.62920  Biso   1.000  C
  C48      1.0000 0.46900  0.32800  0.87080  Biso   1.000  C
  H29      1.0000 0.53610  0.16780  0.38040  Biso   1.000  H
  H30      1.0000 0.46390  0.66780  0.11960  Biso   1.000  H
  H31      1.0000 0.46390  0.83220  0.61960  Biso   1.000  H
  H32      1.0000 0.53610  0.33220  0.88040  Biso   1.000  H
  C49      1.0000 0.60390  0.50430  0.31060  Biso   1.000  C
  C50      1.0000 0.39610  0.00430  0.18940  Biso   1.000  C
  C51      1.0000 0.39610  0.49570  0.68940  Biso   1.000  C
  C52      1.0000 0.60390  0.99570  0.81060  Biso   1.000  C
  H33      1.0000 0.63140  0.45370  0.27300  Biso   1.000  H
  H34      1.0000 0.36860  0.95370  0.22700  Biso   1.000  H
  H35      1.0000 0.36860  0.54630  0.72700  Biso   1.000  H
  H36      1.0000 0.63140  0.04630  0.77300  Biso   1.000  H
  C53      1.0000 0.52510  0.65680  0.42020  Biso   1.000  C
  C54      1.0000 0.47490  0.15680  0.07980  Biso   1.000  C
  C55      1.0000 0.47490  0.34320  0.57980  Biso   1.000  C
  C56      1.0000 0.52510  0.84320  0.92020  Biso   1.000  C
  H37      1.0000 0.49810  0.70880  0.45750  Biso   1.000  H
  H38      1.0000 0.50190  0.20880  0.04250  Biso   1.000  H
  H39      1.0000 0.50190  0.29120  0.54250  Biso   1.000  H
  H40      1.0000 0.49810  0.79120  0.95750  Biso   1.000  H
  C57      1.0000 0.61930  0.67930  0.40840  Biso   1.000  C
  C58      1.0000 0.38070  0.17930  0.09160  Biso   1.000  C
  C59      1.0000 0.38070  0.32070  0.59160  Biso   1.000  C
  C60      1.0000 0.61930  0.82070  0.90840  Biso   1.000  C
  H41      1.0000 0.65620  0.74500  0.43770  Biso   1.000  H
  H42      1.0000 0.34380  0.24500  0.06230  Biso   1.000  H
  H43      1.0000 0.34380  0.25500  0.56230  Biso   1.000  H
  H44      1.0000 0.65620  0.75500  0.93770  Biso   1.000  H
  C61      1.0000 0.65840  0.60450  0.35300  Biso   1.000  C
  C62      1.0000 0.34160  0.10450  0.14700  Biso   1.000  C
  C63      1.0000 0.34160  0.39550  0.64700  Biso   1.000  C
  C64      1.0000 0.65840  0.89550  0.85300  Biso   1.000  C
  H45      1.0000 0.72200  0.62060  0.34360  Biso   1.000  H
  H46      1.0000 0.27800  0.12060  0.15640  Biso   1.000  H
  H47      1.0000 0.27800  0.37940  0.65640  Biso   1.000  H
  H48      1.0000 0.72200  0.87940  0.84360  Biso   1.000  H
  C65      1.0000 0.40570  0.09150  0.40210  Biso   1.000  C
  C66      1.0000 0.59430  0.59150  0.09790  Biso   1.000  C
  C67      1.0000 0.59430  0.90850  0.59790  Biso   1.000  C
  C68      1.0000 0.40570  0.40850  0.90210  Biso   1.000  C
  H49      1.0000 0.42180  0.02060  0.43770  Biso   1.000  H
  H50      1.0000 0.57820  0.52060  0.06230  Biso   1.000  H
  H51      1.0000 0.57820  0.97940  0.56230  Biso   1.000  H
  H52      1.0000 0.42180  0.47940  0.93770  Biso   1.000  H
  C69      1.0000 0.32520  0.23010  0.32650  Biso   1.000  C
  C70      1.0000 0.67480  0.73010  0.17350  Biso   1.000  C
  C71      1.0000 0.67480  0.76990  0.67350  Biso   1.000  C
  C72      1.0000 0.32520  0.26990  0.82650  Biso   1.000  C
  H53      1.0000 0.27390  0.27590  0.29820  Biso   1.000  H
  H54      1.0000 0.72610  0.77590  0.20180  Biso   1.000  H
  H55      1.0000 0.72610  0.72410  0.70180  Biso   1.000  H
  H56      1.0000 0.27390  0.22410  0.79820  Biso   1.000  H
  C73      1.0000 0.27930  0.82240  0.49820  Biso   1.000  C
  C74      1.0000 0.72070  0.32240  0.00180  Biso   1.000  C
  C75      1.0000 0.72070  0.17760  0.50180  Biso   1.000  C
  C76      1.0000 0.27930  0.67760  0.99820  Biso   1.000  C
  H57      1.0000 0.26830  0.87250  0.54220  Biso   1.000  H
  H58      1.0000 0.73170  0.37250  0.95780  Biso   1.000  H
  H59      1.0000 0.73170  0.12750  0.45780  Biso   1.000  H
  H60      1.0000 0.26830  0.62750  0.04220  Biso   1.000  H
  O21      1.0000 0.18590  0.04850  0.65680  Biso   1.000  O
  O22      1.0000 0.81410  0.54850  0.84320  Biso   1.000  O
  O23      1.0000 0.81410  0.95150  0.34320  Biso   1.000  O
  O24      1.0000 0.18590  0.45150  0.15680  Biso   1.000  O
  O25      1.0000 0.96520  0.21340  0.21130  Biso   1.000  O
  O26      1.0000 0.03480  0.71340  0.28870  Biso   1.000  O
  O27      1.0000 0.03480  0.78660  0.78870  Biso   1.000  O
  O28      1.0000 0.96520  0.28660  0.71130  Biso   1.000  O
  O29      1.0000 0.68500  0.17550  0.30070  Biso   1.000  O
  O30      1.0000 0.31500  0.67550  0.19930  Biso   1.000  O
  O31      1.0000 0.31500  0.82450  0.69930  Biso   1.000  O
  O32      1.0000 0.68500  0.32450  0.80070  Biso   1.000  O
  O33      1.0000 0.13500  0.46870  0.30570  Biso   1.000  O
  O34      1.0000 0.86500  0.96870  0.19430  Biso   1.000  O
  O35      1.0000 0.86500  0.53130  0.69430  Biso   1.000  O
  O36      1.0000 0.13500  0.03130  0.80570  Biso   1.000  O
  O37      1.0000 0.06350  0.95110  0.41000  Biso   1.000  O
  O38      1.0000 0.93650  0.45110  0.09000  Biso   1.000  O
  O39      1.0000 0.93650  0.04890  0.59000  Biso   1.000  O
  O40      1.0000 0.06350  0.54890  0.91000  Biso   1.000  O
  H61      1.0000 0.07400  0.91300  0.45700  Biso   1.000  H
  H62      1.0000 0.92600  0.41300  0.04300  Biso   1.000  H
  H63      1.0000 0.92600  0.08700  0.54300  Biso   1.000  H
  H64      1.0000 0.07400  0.58700  0.95700  Biso   1.000  H
  H65      1.0000 0.05400  0.87600  0.38200  Biso   1.000  H
  H66      1.0000 0.94600  0.37600  0.11800  Biso   1.000  H
  H67      1.0000 0.94600  0.12400  0.61800  Biso   1.000  H
  H68      1.0000 0.05400  0.62400  0.88200  Biso   1.000  H
  H69      1.0000 0.13400  0.99000  0.22500  Biso   1.000  H
  H70      1.0000 0.86600  0.49000  0.27500  Biso   1.000  H
  H71      1.0000 0.86600  0.01000  0.77500  Biso   1.000  H
  H72      1.0000 0.13400  0.51000  0.72500  Biso   1.000  H
  H73      1.0000 0.20150  0.07300  0.26820  Biso   1.000  H
  H74      1.0000 0.79850  0.57300  0.23180  Biso   1.000  H
  H75      1.0000 0.79850  0.92700  0.73180  Biso   1.000  H
  H76      1.0000 0.20150  0.42700  0.76820  Biso   1.000  H
  H77      1.0000 0.14700  0.44200  0.26030  Biso   1.000  H
  H78      1.0000 0.85300  0.94200  0.23970  Biso   1.000  H
  H79      1.0000 0.85300  0.55800  0.73970  Biso   1.000  H
  H80      1.0000 0.14700  0.05800  0.76030  Biso   1.000  H
  H81      1.0000 0.13800  0.40100  0.33700  Biso   1.000  H
  H82      1.0000 0.86200  0.90100  0.16300  Biso   1.000  H
  H83      1.0000 0.86200  0.59900  0.66300  Biso   1.000  H
  H84      1.0000 0.13800  0.09900  0.83700  Biso   1.000  H
  H85      1.0000 0.92900  0.14100  0.20000  Biso   1.000  H
  H86      1.0000 0.07100  0.64100  0.30000  Biso   1.000  H
  H87      1.0000 0.07100  0.85900  0.80000  Biso   1.000  H
  H88      1.0000 0.92900  0.35900  0.70000  Biso   1.000  H
  H89      1.0000 0.02300  0.18700  0.22600  Biso   1.000  H
  H90      1.0000 0.97700  0.68700  0.27400  Biso   1.000  H
  H91      1.0000 0.97700  0.81300  0.77400  Biso   1.000  H
  H92      1.0000 0.02300  0.31300  0.72600  Biso   1.000  H
  H93      1.0000 0.72600  0.11900  0.31900  Biso   1.000  H
  H94      1.0000 0.27400  0.61900  0.18100  Biso   1.000  H
  H95      1.0000 0.27400  0.88100  0.68100  Biso   1.000  H
  H96      1.0000 0.72600  0.38100  0.81900  Biso   1.000  H
  H97      1.0000 0.68800  0.24000  0.33100  Biso   1.000  H
  H98      1.0000 0.31200  0.74000  0.16900  Biso   1.000  H
  H99      1.0000 0.31200  0.76000  0.66900  Biso   1.000  H
  H100     1.0000 0.68800  0.26000  0.83100  Biso   1.000  H
  H101     1.0000 0.24000  0.01400  0.65200  Biso   1.000  H
  H102     1.0000 0.76000  0.51400  0.84800  Biso   1.000  H
  H103     1.0000 0.76000  0.98600  0.34800  Biso   1.000  H
  H104     1.0000 0.24000  0.48600  0.15200  Biso   1.000  H
  H105     1.0000 0.18500  0.13400  0.64400  Biso   1.000  H
  H106     1.0000 0.81500  0.63400  0.85600  Biso   1.000  H
  H107     1.0000 0.81500  0.86600  0.35600  Biso   1.000  H
  H108     1.0000 0.18500  0.36600  0.14400  Biso   1.000  H
