data_image0
_cell_length_a       8.5953
_cell_length_b       9.2493
_cell_length_c       13.537
_cell_angle_alpha    93.47
_cell_angle_beta     103.54
_cell_angle_gamma    95.16

_symmetry_space_group_name_H-M    "P 1"
_symmetry_int_tables_number       1

loop_
  _symmetry_equiv_pos_as_xyz
  'x, y, z'

loop_
  _atom_site_label
  _atom_site_occupancy
  _atom_site_fract_x
  _atom_site_fract_y
  _atom_site_fract_z
  _atom_site_thermal_displace_type
  _atom_site_B_iso_or_equiv
  _atom_site_type_symbol
  C1       1.0000 0.44570  0.23590  0.33300  Biso   1.000  C
  C2       1.0000 0.55430  0.76410  0.66700  Biso   1.000  C
  C3       1.0000 0.34800  0.27800  0.23110  Biso   1.000  C
  C4       1.0000 0.65200  0.72200  0.76890  Biso   1.000  C
  H1       1.0000 0.24580  0.30540  0.24060  Biso   1.000  H
  H2       1.0000 0.75420  0.69460  0.75940  Biso   1.000  H
  H3       1.0000 0.40510  0.36330  0.21230  Biso   1.000  H
  H4       1.0000 0.59490  0.63670  0.78770  Biso   1.000  H
  C5       1.0000 0.31490  0.16080  0.14360  Biso   1.000  C
  C6       1.0000 0.68510  0.83920  0.85640  Biso   1.000  C
  H5       1.0000 0.26800  0.07200  0.16450  Biso   1.000  H
  H6       1.0000 0.73200  0.92800  0.83550  Biso   1.000  H
  H7       1.0000 0.23660  0.19090  0.08670  Biso   1.000  H
  H8       1.0000 0.76340  0.80910  0.91330  Biso   1.000  H
  C7       1.0000 0.46280  0.12930  0.10850  Biso   1.000  C
  C8       1.0000 0.53720  0.87070  0.89150  Biso   1.000  C
  H9       1.0000 0.54140  0.09960  0.16550  Biso   1.000  H
  H10      1.0000 0.45860  0.90040  0.83450  Biso   1.000  H
  H11      1.0000 0.50950  0.21790  0.08720  Biso   1.000  H
  H12      1.0000 0.49050  0.78210  0.91280  Biso   1.000  H
  C9       1.0000 0.42930  0.01170  0.02150  Biso   1.000  C
  C10      1.0000 0.57070  0.98830  0.97850  Biso   1.000  C
  H13      1.0000 0.39240  0.92090  0.04520  Biso   1.000  H
  H14      1.0000 0.60760  0.07910  0.95480  Biso   1.000  H
  H15      1.0000 0.34270  0.03700  0.96750  Biso   1.000  H
  H16      1.0000 0.65730  0.96300  0.03250  Biso   1.000  H
  C11      1.0000 0.14590  0.29850  0.45730  Biso   1.000  C
  C12      1.0000 0.85410  0.70150  0.54270  Biso   1.000  C
  H17      1.0000 0.25080  0.28510  0.49010  Biso   1.000  H
  H18      1.0000 0.74920  0.71490  0.50990  Biso   1.000  H
  C13      1.0000 0.10110  0.41590  0.40790  Biso   1.000  C
  C14      1.0000 0.89890  0.58410  0.59210  Biso   1.000  C
  H19      1.0000 0.16780  0.49710  0.40020  Biso   1.000  H
  H20      1.0000 0.83220  0.50290  0.59980  Biso   1.000  H
  C15      1.0000 0.89060  0.26190  0.39960  Biso   1.000  C
  C16      1.0000 0.10940  0.73810  0.60040  Biso   1.000  C
  H21      1.0000 0.78430  0.22010  0.38410  Biso   1.000  H
  H22      1.0000 0.21570  0.77990  0.61590  Biso   1.000  H
  C17      1.0000 0.83650  0.48470  0.30720  Biso   1.000  C
  C18      1.0000 0.16350  0.51530  0.69280  Biso   1.000  C
  H23      1.0000 0.88020  0.58560  0.32630  Biso   1.000  H
  H24      1.0000 0.11980  0.41440  0.67370  Biso   1.000  H
  H25      1.0000 0.72980  0.47320  0.31980  Biso   1.000  H
  H26      1.0000 0.27020  0.52680  0.68020  Biso   1.000  H
  C19      1.0000 0.82280  0.45090  0.19400  Biso   1.000  C
  C20      1.0000 0.17720  0.54910  0.80600  Biso   1.000  C
  C21      1.0000 0.88790  0.33380  0.15830  Biso   1.000  C
  C22      1.0000 0.11210  0.66620  0.84170  Biso   1.000  C
  H27      1.0000 0.94290  0.27430  0.20430  Biso   1.000  H
  H28      1.0000 0.05710  0.72570  0.79570  Biso   1.000  H
  C23      1.0000 0.87300  0.30330  0.05600  Biso   1.000  C
  C24      1.0000 0.12700  0.69670  0.94400  Biso   1.000  C
  H29      1.0000 0.91980  0.22470  0.03370  Biso   1.000  H
  H30      1.0000 0.08020  0.77530  0.96630  Biso   1.000  H
  C25      1.0000 0.79040  0.38690  0.98630  Biso   1.000  C
  C26      1.0000 0.20960  0.61310  0.01370  Biso   1.000  C
  H31      1.0000 0.77880  0.36470  0.91690  Biso   1.000  H
  H32      1.0000 0.22120  0.63530  0.08310  Biso   1.000  H
  C27      1.0000 0.72440  0.50480  0.02060  Biso   1.000  C
  C28      1.0000 0.27560  0.49520  0.97940  Biso   1.000  C
  H33      1.0000 0.66870  0.56280  0.97370  Biso   1.000  H
  H34      1.0000 0.33130  0.43720  0.02630  Biso   1.000  H
  C29      1.0000 0.73980  0.53830  0.12350  Biso   1.000  C
  C30      1.0000 0.26020  0.46170  0.87650  Biso   1.000  C
  C31      1.0000 0.66600  0.66930  0.15550  Biso   1.000  C
  C32      1.0000 0.33400  0.33070  0.84450  Biso   1.000  C
  H35      1.0000 0.61000  0.71200  0.09540  Biso   1.000  H
  H36      1.0000 0.39000  0.28800  0.90460  Biso   1.000  H
  H37      1.0000 0.58780  0.63920  0.19360  Biso   1.000  H
  H38      1.0000 0.41220  0.36080  0.80640  Biso   1.000  H
  N1       1.0000 0.93840  0.39160  0.37144  Biso   1.000  N
  N2       1.0000 0.06160  0.60840  0.62856  Biso   1.000  N
  N3       1.0000 0.01220  0.20160  0.45163  Biso   1.000  N
  N4       1.0000 0.98780  0.79840  0.54837  Biso   1.000  N
  O1       1.0000 0.44570  0.10480  0.35122  Biso   1.000  O
  O2       1.0000 0.55430  0.89520  0.64878  Biso   1.000  O
  O3       1.0000 0.52080  0.33840  0.39473  Biso   1.000  O
  O4       1.0000 0.47920  0.66160  0.60527  Biso   1.000  O
  O5       1.0000 0.29590  0.99480  0.50349  Biso   1.000  O
  O6       1.0000 0.70410  0.00520  0.49651  Biso   1.000  O
  O7       1.0000 0.45030  0.62790  0.39590  Biso   1.000  O
  O8       1.0000 0.54970  0.37210  0.60410  Biso   1.000  O
  O9       1.0000 0.37740  0.81660  0.24200  Biso   1.000  O
  O10      1.0000 0.62260  0.18340  0.75800  Biso   1.000  O
  Cu1      1.0000 0.00000  0.00000  0.50000  Biso   1.000  Cu
  N5       1.0000 0.78920  0.77880  0.21888  Biso   1.000  N
  N6       1.0000 0.21080  0.22120  0.78112  Biso   1.000  N
  C33      1.0000 0.78700  0.83880  0.31060  Biso   1.000  C
  C34      1.0000 0.21300  0.16120  0.68940  Biso   1.000  C
  H39      1.0000 0.69990  0.82630  0.34020  Biso   1.000  H
  H40      1.0000 0.30010  0.17370  0.65980  Biso   1.000  H
  C35      1.0000 0.93510  0.82420  0.20220  Biso   1.000  C
  C36      1.0000 0.06490  0.17580  0.79780  Biso   1.000  C
  H41      1.0000 0.97170  0.80100  0.14440  Biso   1.000  H
  H42      1.0000 0.02830  0.19900  0.85560  Biso   1.000  H
  N7       1.0000 0.92390  0.91800  0.35402  Biso   1.000  N
  N8       1.0000 0.07610  0.08200  0.64598  Biso   1.000  N
  C37      1.0000 0.01670  0.90980  0.28640  Biso   1.000  C
  C38      1.0000 0.98330  0.09020  0.71360  Biso   1.000  C
  H43      1.0000 0.12050  0.95580  0.29620  Biso   1.000  H
  H44      1.0000 0.87950  0.04420  0.70380  Biso   1.000  H
  H45      1.0000 0.36600  0.95000  0.53800  Biso   1.000  H
  H46      1.0000 0.63400  0.05000  0.46200  Biso   1.000  H
  H47      1.0000 0.34500  0.02500  0.46100  Biso   1.000  H
  H48      1.0000 0.65500  0.97500  0.53900  Biso   1.000  H
  H49      1.0000 0.46200  0.63700  0.45950  Biso   1.000  H
  H50      1.0000 0.53800  0.36300  0.54050  Biso   1.000  H
  H51      1.0000 0.47300  0.54200  0.39100  Biso   1.000  H
  H52      1.0000 0.52700  0.45800  0.60900  Biso   1.000  H
  H53      1.0000 0.42300  0.89600  0.27700  Biso   1.000  H
  H54      1.0000 0.57700  0.10400  0.72300  Biso   1.000  H
  H55      1.0000 0.37100  0.75700  0.28900  Biso   1.000  H
  H56      1.0000 0.62900  0.24300  0.71100  Biso   1.000  H
