data_image0
_cell_length_a       9.0079
_cell_length_b       15.629
_cell_length_c       14.264
_cell_angle_alpha    90
_cell_angle_beta     106.02
_cell_angle_gamma    90

_symmetry_space_group_name_H-M    "P 1"
_symmetry_int_tables_number       1

loop_
  _symmetry_equiv_pos_as_xyz
  'x, y, z'

loop_
  _atom_site_label
  _atom_site_occupancy
  _atom_site_fract_x
  _atom_site_fract_y
  _atom_site_fract_z
  _atom_site_thermal_displace_type
  _atom_site_B_iso_or_equiv
  _atom_site_type_symbol
  C1       1.0000 0.59340  0.67610  0.14380  Biso   1.000  C
  C2       1.0000 0.90660  0.17610  0.35620  Biso   1.000  C
  C3       1.0000 0.40660  0.32390  0.85620  Biso   1.000  C
  C4       1.0000 0.09340  0.82390  0.64380  Biso   1.000  C
  H1       1.0000 0.53490  0.65820  0.18460  Biso   1.000  H
  H2       1.0000 0.96510  0.15820  0.31540  Biso   1.000  H
  H3       1.0000 0.46510  0.34180  0.81540  Biso   1.000  H
  H4       1.0000 0.03490  0.84180  0.68460  Biso   1.000  H
  C5       1.0000 0.73270  0.67790  0.05180  Biso   1.000  C
  C6       1.0000 0.76730  0.17790  0.44820  Biso   1.000  C
  C7       1.0000 0.26730  0.32210  0.94820  Biso   1.000  C
  C8       1.0000 0.23270  0.82210  0.55180  Biso   1.000  C
  H5       1.0000 0.79400  0.65910  0.01300  Biso   1.000  H
  H6       1.0000 0.70600  0.15910  0.48700  Biso   1.000  H
  H7       1.0000 0.20600  0.34090  0.98700  Biso   1.000  H
  H8       1.0000 0.29400  0.84090  0.51300  Biso   1.000  H
  C9       1.0000 0.70300  0.76010  0.06220  Biso   1.000  C
  C10      1.0000 0.79700  0.26010  0.43780  Biso   1.000  C
  C11      1.0000 0.29700  0.23990  0.93780  Biso   1.000  C
  C12      1.0000 0.20300  0.73990  0.56220  Biso   1.000  C
  H9       1.0000 0.73710  0.80780  0.03510  Biso   1.000  H
  H10      1.0000 0.76290  0.30780  0.46490  Biso   1.000  H
  H11      1.0000 0.26290  0.19220  0.96490  Biso   1.000  H
  H12      1.0000 0.23710  0.69220  0.53510  Biso   1.000  H
  C13      1.0000 0.53720  0.83190  0.15560  Biso   1.000  C
  C14      1.0000 0.96280  0.33190  0.34440  Biso   1.000  C
  C15      1.0000 0.46280  0.16810  0.84440  Biso   1.000  C
  C16      1.0000 0.03720  0.66810  0.65560  Biso   1.000  C
  H13      1.0000 0.51220  0.87450  0.10420  Biso   1.000  H
  H14      1.0000 0.98780  0.37450  0.39580  Biso   1.000  H
  H15      1.0000 0.48780  0.12550  0.89580  Biso   1.000  H
  H16      1.0000 0.01220  0.62550  0.60420  Biso   1.000  H
  H17      1.0000 0.60900  0.85730  0.21230  Biso   1.000  H
  H18      1.0000 0.89100  0.35730  0.28770  Biso   1.000  H
  H19      1.0000 0.39100  0.14270  0.78770  Biso   1.000  H
  H20      1.0000 0.10900  0.64270  0.71230  Biso   1.000  H
  C17      1.0000 0.39360  0.80540  0.18080  Biso   1.000  C
  C18      1.0000 0.10640  0.30540  0.31920  Biso   1.000  C
  C19      1.0000 0.60640  0.19460  0.81920  Biso   1.000  C
  C20      1.0000 0.89360  0.69460  0.68080  Biso   1.000  C
  C21      1.0000 0.40440  0.78030  0.27210  Biso   1.000  C
  C22      1.0000 0.09560  0.28030  0.22790  Biso   1.000  C
  C23      1.0000 0.59560  0.21970  0.72790  Biso   1.000  C
  C24      1.0000 0.90440  0.71970  0.77210  Biso   1.000  C
  H21      1.0000 0.49750  0.78690  0.32000  Biso   1.000  H
  H22      1.0000 0.00250  0.28690  0.18000  Biso   1.000  H
  H23      1.0000 0.50250  0.21310  0.68000  Biso   1.000  H
  H24      1.0000 0.99750  0.71310  0.82000  Biso   1.000  H
  C25      1.0000 0.27600  0.74360  0.29710  Biso   1.000  C
  C26      1.0000 0.22400  0.24360  0.20290  Biso   1.000  C
  C27      1.0000 0.72400  0.25640  0.70290  Biso   1.000  C
  C28      1.0000 0.77600  0.75640  0.79710  Biso   1.000  C
  H25      1.0000 0.28370  0.72180  0.35900  Biso   1.000  H
  H26      1.0000 0.21630  0.22180  0.14100  Biso   1.000  H
  H27      1.0000 0.71630  0.27820  0.64100  Biso   1.000  H
  H28      1.0000 0.78370  0.77820  0.85900  Biso   1.000  H
  C29      1.0000 0.14400  0.74230  0.22740  Biso   1.000  C
  C30      1.0000 0.35600  0.24230  0.27260  Biso   1.000  C
  C31      1.0000 0.85600  0.25770  0.77260  Biso   1.000  C
  C32      1.0000 0.64400  0.75770  0.72740  Biso   1.000  C
  H29      1.0000 0.05790  0.72080  0.24350  Biso   1.000  H
  H30      1.0000 0.44210  0.22080  0.25650  Biso   1.000  H
  H31      1.0000 0.94210  0.27920  0.75650  Biso   1.000  H
  H32      1.0000 0.55790  0.77920  0.74350  Biso   1.000  H
  C33      1.0000 0.12310  0.77030  0.13160  Biso   1.000  C
  C34      1.0000 0.37690  0.27030  0.36840  Biso   1.000  C
  C35      1.0000 0.87690  0.22970  0.86840  Biso   1.000  C
  C36      1.0000 0.62310  0.72970  0.63160  Biso   1.000  C
  H33      1.0000 0.02700  0.76820  0.08580  Biso   1.000  H
  H34      1.0000 0.47300  0.26820  0.41420  Biso   1.000  H
  H35      1.0000 0.97300  0.23180  0.91420  Biso   1.000  H
  H36      1.0000 0.52700  0.73180  0.58580  Biso   1.000  H
  C37      1.0000 0.25000  0.80070  0.10870  Biso   1.000  C
  C38      1.0000 0.25000  0.30070  0.39130  Biso   1.000  C
  C39      1.0000 0.75000  0.19930  0.89130  Biso   1.000  C
  C40      1.0000 0.75000  0.69930  0.60870  Biso   1.000  C
  C41      1.0000 0.23530  0.82850  0.00490  Biso   1.000  C
  C42      1.0000 0.26470  0.32850  0.49510  Biso   1.000  C
  C43      1.0000 0.76470  0.17150  0.99510  Biso   1.000  C
  C44      1.0000 0.73530  0.67150  0.50490  Biso   1.000  C
  H37      1.0000 0.12870  0.84310  0.97270  Biso   1.000  H
  H38      1.0000 0.37130  0.34310  0.52730  Biso   1.000  H
  H39      1.0000 0.87130  0.15690  0.02730  Biso   1.000  H
  H40      1.0000 0.62870  0.65690  0.47270  Biso   1.000  H
  H41      1.0000 0.29830  0.87880  0.00490  Biso   1.000  H
  H42      1.0000 0.20170  0.37880  0.49510  Biso   1.000  H
  H43      1.0000 0.70170  0.12120  0.99510  Biso   1.000  H
  H44      1.0000 0.79830  0.62120  0.50490  Biso   1.000  H
  C45      1.0000 0.26880  0.67170  0.96500  Biso   1.000  C
  C46      1.0000 0.23120  0.17170  0.53500  Biso   1.000  C
  C47      1.0000 0.73120  0.32830  0.03500  Biso   1.000  C
  C48      1.0000 0.76880  0.82830  0.46500  Biso   1.000  C
  H45      1.0000 0.22500  0.64900  0.01150  Biso   1.000  H
  H46      1.0000 0.27500  0.14900  0.48850  Biso   1.000  H
  H47      1.0000 0.77500  0.35100  0.98850  Biso   1.000  H
  H48      1.0000 0.72500  0.85100  0.51150  Biso   1.000  H
  C49      1.0000 0.35500  0.76720  0.87690  Biso   1.000  C
  C50      1.0000 0.14500  0.26720  0.62310  Biso   1.000  C
  C51      1.0000 0.64500  0.23280  0.12310  Biso   1.000  C
  C52      1.0000 0.85500  0.73280  0.37690  Biso   1.000  C
  H49      1.0000 0.38000  0.81830  0.85150  Biso   1.000  H
  H50      1.0000 0.12000  0.31830  0.64850  Biso   1.000  H
  H51      1.0000 0.62000  0.18170  0.14850  Biso   1.000  H
  H52      1.0000 0.88000  0.68170  0.35150  Biso   1.000  H
  C53      1.0000 0.37800  0.68660  0.84910  Biso   1.000  C
  C54      1.0000 0.12200  0.18660  0.65090  Biso   1.000  C
  C55      1.0000 0.62200  0.31340  0.15090  Biso   1.000  C
  C56      1.0000 0.87800  0.81340  0.34910  Biso   1.000  C
  H53      1.0000 0.42450  0.67260  0.80040  Biso   1.000  H
  H54      1.0000 0.07550  0.17260  0.69960  Biso   1.000  H
  H55      1.0000 0.57550  0.32740  0.19960  Biso   1.000  H
  H56      1.0000 0.92450  0.82740  0.30040  Biso   1.000  H
  C57      1.0000 0.98670  0.50850  0.18290  Biso   1.000  C
  C58      1.0000 0.51330  0.00850  0.31710  Biso   1.000  C
  C59      1.0000 0.01330  0.49150  0.81710  Biso   1.000  C
  C60      1.0000 0.48670  0.99150  0.68290  Biso   1.000  C
  C61      1.0000 0.14970  0.50960  0.20130  Biso   1.000  C
  C62      1.0000 0.35030  0.00960  0.29870  Biso   1.000  C
  C63      1.0000 0.85030  0.49040  0.79870  Biso   1.000  C
  C64      1.0000 0.64970  0.99040  0.70130  Biso   1.000  C
  H57      1.0000 0.20740  0.52000  0.26520  Biso   1.000  H
  H58      1.0000 0.29260  0.02000  0.23480  Biso   1.000  H
  H59      1.0000 0.79260  0.48000  0.73480  Biso   1.000  H
  H60      1.0000 0.70740  0.98000  0.76520  Biso   1.000  H
  C65      1.0000 0.22570  0.49760  0.13770  Biso   1.000  C
  C66      1.0000 0.27430  0.99760  0.36230  Biso   1.000  C
  C67      1.0000 0.77430  0.50240  0.86230  Biso   1.000  C
  C68      1.0000 0.72570  0.00240  0.63770  Biso   1.000  C
  H61      1.0000 0.17090  0.48900  0.07290  Biso   1.000  H
  H62      1.0000 0.32910  0.98900  0.42710  Biso   1.000  H
  H63      1.0000 0.82910  0.51100  0.92710  Biso   1.000  H
  H64      1.0000 0.67090  0.01100  0.57290  Biso   1.000  H
  C69      1.0000 0.40950  0.49700  0.16590  Biso   1.000  C
  C70      1.0000 0.09050  0.99700  0.33410  Biso   1.000  C
  C71      1.0000 0.59050  0.50300  0.83410  Biso   1.000  C
  C72      1.0000 0.90950  0.00300  0.66590  Biso   1.000  C
  N1       1.0000 0.66690  0.62410  0.10190  Biso   1.000  N
  N2       1.0000 0.83310  0.12410  0.39810  Biso   1.000  N
  N3       1.0000 0.33310  0.37590  0.89810  Biso   1.000  N
  N4       1.0000 0.16690  0.87590  0.60190  Biso   1.000  N
  N5       1.0000 0.60970  0.75670  0.12300  Biso   1.000  N
  N6       1.0000 0.89030  0.25670  0.37700  Biso   1.000  N
  N7       1.0000 0.39030  0.24330  0.87700  Biso   1.000  N
  N8       1.0000 0.10970  0.74330  0.62300  Biso   1.000  N
  N9       1.0000 0.32120  0.62710  0.90460  Biso   1.000  N
  N10      1.0000 0.17880  0.12710  0.59540  Biso   1.000  N
  N11      1.0000 0.67880  0.37290  0.09540  Biso   1.000  N
  N12      1.0000 0.82120  0.87290  0.40460  Biso   1.000  N
  N13      1.0000 0.28730  0.75670  0.95050  Biso   1.000  N
  N14      1.0000 0.21270  0.25670  0.54950  Biso   1.000  N
  N15      1.0000 0.71270  0.24330  0.04950  Biso   1.000  N
  N16      1.0000 0.78730  0.74330  0.45050  Biso   1.000  N
  O1       1.0000 0.89070  0.49810  0.10160  Biso   1.000  O
  O2       1.0000 0.60930  0.99810  0.39840  Biso   1.000  O
  O3       1.0000 0.10930  0.50190  0.89840  Biso   1.000  O
  O4       1.0000 0.39070  0.00190  0.60160  Biso   1.000  O
  O5       1.0000 0.95240  0.52550  0.26090  Biso   1.000  O
  O6       1.0000 0.54760  0.02550  0.23910  Biso   1.000  O
  O7       1.0000 0.04760  0.47450  0.73910  Biso   1.000  O
  O8       1.0000 0.45240  0.97450  0.76090  Biso   1.000  O
  O9       1.0000 0.44320  0.49760  0.08660  Biso   1.000  O
  O10      1.0000 0.05680  0.99760  0.41340  Biso   1.000  O
  O11      1.0000 0.55680  0.50240  0.91340  Biso   1.000  O
  O12      1.0000 0.94320  0.00240  0.58660  Biso   1.000  O
  O13      1.0000 0.49980  0.49620  0.24480  Biso   1.000  O
  O14      1.0000 0.00020  0.99620  0.25520  Biso   1.000  O
  O15      1.0000 0.50020  0.50380  0.75520  Biso   1.000  O
  O16      1.0000 0.99980  0.00380  0.74480  Biso   1.000  O
  O17      1.0000 0.90740  0.45520  0.55040  Biso   1.000  O
  O18      1.0000 0.59260  0.95520  0.94960  Biso   1.000  O
  O19      1.0000 0.09260  0.54480  0.44960  Biso   1.000  O
  O20      1.0000 0.40740  0.04480  0.05040  Biso   1.000  O
  O21      1.0000 0.40730  0.54340  0.54680  Biso   1.000  O
  O22      1.0000 0.09270  0.04340  0.95320  Biso   1.000  O
  O23      1.0000 0.59270  0.45660  0.45320  Biso   1.000  O
  O24      1.0000 0.90730  0.95660  0.04680  Biso   1.000  O
  Cu1      1.0000 0.66979  0.49847  0.09912  Biso   1.000  Cu
  Cu2      1.0000 0.83021  0.99847  0.40088  Biso   1.000  Cu
  Cu3      1.0000 0.33021  0.50153  0.90088  Biso   1.000  Cu
  Cu4      1.0000 0.16979  0.00153  0.59912  Biso   1.000  Cu
  H65      1.0000 0.90000  0.46300  0.60900  Biso   1.000  H
  H66      1.0000 0.60000  0.96300  0.89100  Biso   1.000  H
  H67      1.0000 0.10000  0.53700  0.39100  Biso   1.000  H
  H68      1.0000 0.40000  0.03700  0.10900  Biso   1.000  H
  H69      1.0000 0.94300  0.50100  0.53200  Biso   1.000  H
  H70      1.0000 0.55700  0.00100  0.96800  Biso   1.000  H
  H71      1.0000 0.05700  0.49900  0.46800  Biso   1.000  H
  H72      1.0000 0.44300  0.99900  0.03200  Biso   1.000  H
  H73      1.0000 0.47300  0.49900  0.55700  Biso   1.000  H
  H74      1.0000 0.02700  0.99900  0.94300  Biso   1.000  H
  H75      1.0000 0.52700  0.50100  0.44300  Biso   1.000  H
  H76      1.0000 0.97300  0.00100  0.05700  Biso   1.000  H
  H77      1.0000 0.39600  0.55300  0.48300  Biso   1.000  H
  H78      1.0000 0.10400  0.05300  0.01700  Biso   1.000  H
  H79      1.0000 0.60400  0.44700  0.51700  Biso   1.000  H
  H80      1.0000 0.89600  0.94700  0.98300  Biso   1.000  H
