data_image0
_cell_length_a       10.081
_cell_length_b       15.983
_cell_length_c       13.27
_cell_angle_alpha    90
_cell_angle_beta     108.6
_cell_angle_gamma    90

_symmetry_space_group_name_H-M    "P 1"
_symmetry_int_tables_number       1

loop_
  _symmetry_equiv_pos_as_xyz
  'x, y, z'

loop_
  _atom_site_label
  _atom_site_occupancy
  _atom_site_fract_x
  _atom_site_fract_y
  _atom_site_fract_z
  _atom_site_thermal_displace_type
  _atom_site_B_iso_or_equiv
  _atom_site_type_symbol
  C1       1.0000 0.75700  0.15245  0.60930  Biso   1.000  C
  C2       1.0000 0.74300  0.65245  0.89070  Biso   1.000  C
  C3       1.0000 0.24300  0.84755  0.39070  Biso   1.000  C
  C4       1.0000 0.25700  0.34755  0.10930  Biso   1.000  C
  H1       1.0000 0.79730  0.13990  0.55710  Biso   1.000  H
  H2       1.0000 0.70270  0.63990  0.94290  Biso   1.000  H
  H3       1.0000 0.20270  0.86010  0.44290  Biso   1.000  H
  H4       1.0000 0.29730  0.36010  0.05710  Biso   1.000  H
  C5       1.0000 0.68520  0.22295  0.72176  Biso   1.000  C
  C6       1.0000 0.81480  0.72295  0.77824  Biso   1.000  C
  C7       1.0000 0.31480  0.77705  0.27824  Biso   1.000  C
  C8       1.0000 0.18520  0.27705  0.22176  Biso   1.000  C
  H5       1.0000 0.66540  0.26610  0.76170  Biso   1.000  H
  H6       1.0000 0.83460  0.76610  0.73830  Biso   1.000  H
  H7       1.0000 0.33460  0.73390  0.23830  Biso   1.000  H
  H8       1.0000 0.16540  0.23390  0.26170  Biso   1.000  H
  C9       1.0000 0.65470  0.14066  0.72632  Biso   1.000  C
  C10      1.0000 0.84530  0.64066  0.77368  Biso   1.000  C
  C11      1.0000 0.34530  0.85934  0.27368  Biso   1.000  C
  C12      1.0000 0.15470  0.35934  0.22632  Biso   1.000  C
  H9       1.0000 0.61000  0.11770  0.77130  Biso   1.000  H
  H10      1.0000 0.89000  0.61770  0.72870  Biso   1.000  H
  H11      1.0000 0.39000  0.88230  0.22870  Biso   1.000  H
  H12      1.0000 0.11000  0.38230  0.27130  Biso   1.000  H
  C13      1.0000 0.29220  0.18128  0.49570  Biso   1.000  C
  C14      1.0000 0.20780  0.68128  0.00430  Biso   1.000  C
  C15      1.0000 0.70780  0.81872  0.50430  Biso   1.000  C
  C16      1.0000 0.79220  0.31872  0.99570  Biso   1.000  C
  H13      1.0000 0.22270  0.15920  0.52010  Biso   1.000  H
  H14      1.0000 0.27730  0.65920  0.97990  Biso   1.000  H
  H15      1.0000 0.77730  0.84080  0.47990  Biso   1.000  H
  H16      1.0000 0.72270  0.34080  0.02010  Biso   1.000  H
  C17      1.0000 0.34460  0.25888  0.51590  Biso   1.000  C
  C18      1.0000 0.15540  0.75888  0.98410  Biso   1.000  C
  C19      1.0000 0.65540  0.74112  0.48410  Biso   1.000  C
  C20      1.0000 0.84460  0.24112  0.01590  Biso   1.000  C
  H17      1.0000 0.31850  0.29970  0.55580  Biso   1.000  H
  H18      1.0000 0.18150  0.79970  0.94420  Biso   1.000  H
  H19      1.0000 0.68150  0.70030  0.44420  Biso   1.000  H
  H20      1.0000 0.81850  0.20030  0.05580  Biso   1.000  H
  C21      1.0000 0.44600  0.19317  0.41867  Biso   1.000  C
  C22      1.0000 0.05400  0.69317  0.08133  Biso   1.000  C
  C23      1.0000 0.55400  0.80683  0.58133  Biso   1.000  C
  C24      1.0000 0.94600  0.30683  0.91867  Biso   1.000  C
  H21      1.0000 0.50480  0.18160  0.37880  Biso   1.000  H
  H22      1.0000 0.99520  0.68160  0.12120  Biso   1.000  H
  H23      1.0000 0.49520  0.81840  0.62120  Biso   1.000  H
  H24      1.0000 0.00480  0.31840  0.87880  Biso   1.000  H
  C25      1.0000 0.52230  0.34295  0.46050  Biso   1.000  C
  C26      1.0000 0.97770  0.84295  0.03950  Biso   1.000  C
  C27      1.0000 0.47770  0.65705  0.53950  Biso   1.000  C
  C28      1.0000 0.02230  0.15705  0.96050  Biso   1.000  C
  H25      1.0000 0.55370  0.36910  0.53010  Biso   1.000  H
  H26      1.0000 0.94630  0.86910  0.96990  Biso   1.000  H
  H27      1.0000 0.44630  0.63090  0.46990  Biso   1.000  H
  H28      1.0000 0.05370  0.13090  0.03010  Biso   1.000  H
  H29      1.0000 0.46020  0.38180  0.41160  Biso   1.000  H
  H30      1.0000 0.03980  0.88180  0.08840  Biso   1.000  H
  H31      1.0000 0.53980  0.61820  0.58840  Biso   1.000  H
  H32      1.0000 0.96020  0.11820  0.91160  Biso   1.000  H
  C29      1.0000 0.64690  0.32609  0.42450  Biso   1.000  C
  C30      1.0000 0.85310  0.82609  0.07550  Biso   1.000  C
  C31      1.0000 0.35310  0.67391  0.57550  Biso   1.000  C
  C32      1.0000 0.14690  0.17391  0.92450  Biso   1.000  C
  C33      1.0000 0.80730  0.30678  0.61455  Biso   1.000  C
  C34      1.0000 0.69270  0.80678  0.88545  Biso   1.000  C
  C35      1.0000 0.19270  0.69322  0.38545  Biso   1.000  C
  C36      1.0000 0.30730  0.19322  0.11455  Biso   1.000  C
  H33      1.0000 0.90730  0.30970  0.65070  Biso   1.000  H
  H34      1.0000 0.59270  0.80970  0.84930  Biso   1.000  H
  H35      1.0000 0.09270  0.69030  0.34930  Biso   1.000  H
  H36      1.0000 0.40730  0.19030  0.15070  Biso   1.000  H
  H37      1.0000 0.76420  0.35510  0.63560  Biso   1.000  H
  H38      1.0000 0.73580  0.85510  0.86440  Biso   1.000  H
  H39      1.0000 0.23580  0.64490  0.36440  Biso   1.000  H
  H40      1.0000 0.26420  0.14490  0.13560  Biso   1.000  H
  C37      1.0000 0.77960  0.30874  0.49640  Biso   1.000  C
  C38      1.0000 0.72040  0.80874  0.00360  Biso   1.000  C
  C39      1.0000 0.22040  0.69126  0.50360  Biso   1.000  C
  C40      1.0000 0.27960  0.19126  0.99640  Biso   1.000  C
  C41      1.0000 0.62840  0.32696  0.31670  Biso   1.000  C
  C42      1.0000 0.87160  0.82696  0.18330  Biso   1.000  C
  C43      1.0000 0.37160  0.67304  0.68330  Biso   1.000  C
  C44      1.0000 0.12840  0.17304  0.81670  Biso   1.000  C
  H41      1.0000 0.54100  0.33960  0.26870  Biso   1.000  H
  H42      1.0000 0.95900  0.83960  0.23130  Biso   1.000  H
  H43      1.0000 0.45900  0.66040  0.73130  Biso   1.000  H
  H44      1.0000 0.04100  0.16040  0.76870  Biso   1.000  H
  C45      1.0000 0.88820  0.29155  0.45740  Biso   1.000  C
  C46      1.0000 0.61180  0.79155  0.04260  Biso   1.000  C
  C47      1.0000 0.11180  0.70845  0.54260  Biso   1.000  C
  C48      1.0000 0.38820  0.20845  0.95740  Biso   1.000  C
  H45      1.0000 0.97680  0.28010  0.50430  Biso   1.000  H
  H46      1.0000 0.52320  0.78010  0.99570  Biso   1.000  H
  H47      1.0000 0.02320  0.71990  0.49570  Biso   1.000  H
  H48      1.0000 0.47680  0.21990  0.00430  Biso   1.000  H
  C49      1.0000 0.86650  0.29120  0.34930  Biso   1.000  C
  C50      1.0000 0.63350  0.79120  0.15070  Biso   1.000  C
  C51      1.0000 0.13350  0.70880  0.65070  Biso   1.000  C
  C52      1.0000 0.36650  0.20880  0.84930  Biso   1.000  C
  H49      1.0000 0.94010  0.27850  0.32390  Biso   1.000  H
  H50      1.0000 0.55990  0.77850  0.17610  Biso   1.000  H
  H51      1.0000 0.05990  0.72150  0.67610  Biso   1.000  H
  H52      1.0000 0.44010  0.22150  0.82390  Biso   1.000  H
  C53      1.0000 0.73870  0.30920  0.28000  Biso   1.000  C
  C54      1.0000 0.76130  0.80920  0.22000  Biso   1.000  C
  C55      1.0000 0.26130  0.69080  0.72000  Biso   1.000  C
  C56      1.0000 0.23870  0.19080  0.78000  Biso   1.000  C
  H53      1.0000 0.72530  0.30950  0.20740  Biso   1.000  H
  H54      1.0000 0.77470  0.80950  0.29260  Biso   1.000  H
  H55      1.0000 0.27470  0.69050  0.79260  Biso   1.000  H
  H56      1.0000 0.22530  0.19050  0.70740  Biso   1.000  H
  C57      1.0000 0.32810  0.96480  0.73000  Biso   1.000  C
  C58      1.0000 0.17190  0.46480  0.77000  Biso   1.000  C
  C59      1.0000 0.67190  0.03520  0.27000  Biso   1.000  C
  C60      1.0000 0.82810  0.53520  0.23000  Biso   1.000  C
  C61      1.0000 0.39910  0.96286  0.83795  Biso   1.000  C
  C62      1.0000 0.10090  0.46286  0.66205  Biso   1.000  C
  C63      1.0000 0.60090  0.03714  0.16205  Biso   1.000  C
  C64      1.0000 0.89910  0.53714  0.33795  Biso   1.000  C
  H57      1.0000 0.49640  0.96340  0.86190  Biso   1.000  H
  H58      1.0000 0.00360  0.46340  0.63810  Biso   1.000  H
  H59      1.0000 0.50360  0.03660  0.13810  Biso   1.000  H
  H60      1.0000 0.99640  0.53660  0.36190  Biso   1.000  H
  C65      1.0000 0.32730  0.96013  0.91003  Biso   1.000  C
  C66      1.0000 0.17270  0.46013  0.58997  Biso   1.000  C
  C67      1.0000 0.67270  0.03987  0.08997  Biso   1.000  C
  C68      1.0000 0.82730  0.53987  0.41003  Biso   1.000  C
  H61      1.0000 0.37600  0.95920  0.98250  Biso   1.000  H
  H62      1.0000 0.12400  0.45920  0.51750  Biso   1.000  H
  H63      1.0000 0.62400  0.04080  0.01750  Biso   1.000  H
  H64      1.0000 0.87600  0.54080  0.48250  Biso   1.000  H
  C69      1.0000 0.18250  0.95874  0.87521  Biso   1.000  C
  C70      1.0000 0.31750  0.45874  0.62479  Biso   1.000  C
  C71      1.0000 0.81750  0.04126  0.12479  Biso   1.000  C
  C72      1.0000 0.68250  0.54126  0.37521  Biso   1.000  C
  H65      1.0000 0.13420  0.95810  0.92430  Biso   1.000  H
  H66      1.0000 0.36580  0.45810  0.57570  Biso   1.000  H
  H67      1.0000 0.86580  0.04190  0.07570  Biso   1.000  H
  H68      1.0000 0.63420  0.54190  0.42430  Biso   1.000  H
  C73      1.0000 0.10980  0.95834  0.76798  Biso   1.000  C
  C74      1.0000 0.39020  0.45834  0.73202  Biso   1.000  C
  C75      1.0000 0.89020  0.04166  0.23202  Biso   1.000  C
  C76      1.0000 0.60980  0.54166  0.26798  Biso   1.000  C
  C77      1.0000 0.95160  0.95557  0.73191  Biso   1.000  C
  C78      1.0000 0.54840  0.45557  0.76809  Biso   1.000  C
  C79      1.0000 0.04840  0.04443  0.26809  Biso   1.000  C
  C80      1.0000 0.45160  0.54443  0.23191  Biso   1.000  C
  C81      1.0000 0.18320  0.96166  0.69540  Biso   1.000  C
  C82      1.0000 0.31680  0.46166  0.80460  Biso   1.000  C
  C83      1.0000 0.81680  0.03834  0.30460  Biso   1.000  C
  C84      1.0000 0.68320  0.53834  0.19540  Biso   1.000  C
  H69      1.0000 0.13460  0.96180  0.62290  Biso   1.000  H
  H70      1.0000 0.36540  0.46180  0.87710  Biso   1.000  H
  H71      1.0000 0.86540  0.03820  0.37710  Biso   1.000  H
  H72      1.0000 0.63460  0.53820  0.12290  Biso   1.000  H
  C85      1.0000 0.40670  0.97244  0.65096  Biso   1.000  C
  C86      1.0000 0.09330  0.47244  0.84904  Biso   1.000  C
  C87      1.0000 0.59330  0.02756  0.34904  Biso   1.000  C
  C88      1.0000 0.90670  0.52756  0.15096  Biso   1.000  C
  N1       1.0000 0.35618  0.13931  0.43381  Biso   1.000  N
  N2       1.0000 0.14382  0.63931  0.06619  Biso   1.000  N
  N3       1.0000 0.64382  0.86069  0.56619  Biso   1.000  N
  N4       1.0000 0.85618  0.36069  0.93381  Biso   1.000  N
  N5       1.0000 0.44393  0.26612  0.46639  Biso   1.000  N
  N6       1.0000 0.05607  0.76612  0.03361  Biso   1.000  N
  N7       1.0000 0.55607  0.73388  0.53361  Biso   1.000  N
  N8       1.0000 0.94393  0.23388  0.96639  Biso   1.000  N
  N9       1.0000 0.75084  0.22960  0.64655  Biso   1.000  N
  N10      1.0000 0.74916  0.72960  0.85345  Biso   1.000  N
  N11      1.0000 0.24916  0.77040  0.35345  Biso   1.000  N
  N12      1.0000 0.25084  0.27040  0.14655  Biso   1.000  N
  N13      1.0000 0.69957  0.09638  0.65464  Biso   1.000  N
  N14      1.0000 0.80043  0.59638  0.84536  Biso   1.000  N
  N15      1.0000 0.30043  0.90362  0.34536  Biso   1.000  N
  N16      1.0000 0.19957  0.40362  0.15464  Biso   1.000  N
  O1       1.0000 0.53933  0.96665  0.69067  Biso   1.000  O
  O2       1.0000 0.96067  0.46665  0.80933  Biso   1.000  O
  O3       1.0000 0.46067  0.03335  0.30933  Biso   1.000  O
  O4       1.0000 0.03933  0.53335  0.19067  Biso   1.000  O
  O5       1.0000 0.34062  0.98206  0.55592  Biso   1.000  O
  O6       1.0000 0.15938  0.48206  0.94408  Biso   1.000  O
  O7       1.0000 0.65938  0.01794  0.44408  Biso   1.000  O
  O8       1.0000 0.84062  0.51794  0.05592  Biso   1.000  O
  O9       1.0000 0.02130  0.10300  0.54140  Biso   1.000  O
  O10      1.0000 0.47870  0.60300  0.95860  Biso   1.000  O
  O11      1.0000 0.97870  0.89700  0.45860  Biso   1.000  O
  O12      1.0000 0.52130  0.39700  0.04140  Biso   1.000  O
  H73      1.0000 0.00400  0.06900  0.58800  Biso   1.000  H
  H74      1.0000 0.49600  0.56900  0.91200  Biso   1.000  H
  H75      1.0000 0.99600  0.93100  0.41200  Biso   1.000  H
  H76      1.0000 0.50400  0.43100  0.08800  Biso   1.000  H
  H77      1.0000 0.06300  0.06310  0.51200  Biso   1.000  H
  H78      1.0000 0.43700  0.56310  0.98800  Biso   1.000  H
  H79      1.0000 0.93700  0.93690  0.48800  Biso   1.000  H
  H80      1.0000 0.56300  0.43690  0.01200  Biso   1.000  H
  O13      1.0000 0.88753  0.96892  0.63418  Biso   1.000  O
  O14      1.0000 0.61247  0.46892  0.86582  Biso   1.000  O
  O15      1.0000 0.11247  0.03108  0.36582  Biso   1.000  O
  O16      1.0000 0.38753  0.53108  0.13418  Biso   1.000  O
  O17      1.0000 0.89154  0.94241  0.79847  Biso   1.000  O
  O18      1.0000 0.60846  0.44241  0.70153  Biso   1.000  O
  O19      1.0000 0.10846  0.05759  0.20153  Biso   1.000  O
  O20      1.0000 0.39154  0.55759  0.29847  Biso   1.000  O
  Cu1      1.0000 0.32081  0.02309  0.38288  Biso   1.000  Cu
  Cu2      1.0000 0.17919  0.52309  0.11712  Biso   1.000  Cu
  Cu3      1.0000 0.67919  0.97691  0.61712  Biso   1.000  Cu
  Cu4      1.0000 0.82081  0.47691  0.88288  Biso   1.000  Cu
