data_image0
_cell_length_a       21.55
_cell_length_b       14.155
_cell_length_c       14.205
_cell_angle_alpha    90
_cell_angle_beta     131.07
_cell_angle_gamma    90

_symmetry_space_group_name_H-M    "P 1"
_symmetry_int_tables_number       1

loop_
  _symmetry_equiv_pos_as_xyz
  'x, y, z'

loop_
  _atom_site_label
  _atom_site_occupancy
  _atom_site_fract_x
  _atom_site_fract_y
  _atom_site_fract_z
  _atom_site_thermal_displace_type
  _atom_site_B_iso_or_equiv
  _atom_site_type_symbol
  Cu1      1.0000 0.26960  0.32846  0.11362  Biso   1.000  Cu
  Cu2      1.0000 0.76960  0.82846  0.11362  Biso   1.000  Cu
  Cu3      1.0000 0.73040  0.32846  0.38638  Biso   1.000  Cu
  Cu4      1.0000 0.23040  0.82846  0.38638  Biso   1.000  Cu
  Cu5      1.0000 0.73040  0.67154  0.88638  Biso   1.000  Cu
  Cu6      1.0000 0.23040  0.17154  0.88638  Biso   1.000  Cu
  Cu7      1.0000 0.26960  0.67154  0.61362  Biso   1.000  Cu
  Cu8      1.0000 0.76960  0.17154  0.61362  Biso   1.000  Cu
  Cl1      1.0000 0.00000  0.33961  0.25000  Biso   1.000  Cl
  Cl2      1.0000 0.50000  0.83961  0.25000  Biso   1.000  Cl
  Cl3      1.0000 0.00000  0.66039  0.75000  Biso   1.000  Cl
  Cl4      1.0000 0.50000  0.16039  0.75000  Biso   1.000  Cl
  O1       1.0000 0.95810  0.28173  0.14010  Biso   1.000  O
  O2       1.0000 0.45810  0.78173  0.14010  Biso   1.000  O
  O3       1.0000 0.04190  0.28173  0.35990  Biso   1.000  O
  O4       1.0000 0.54190  0.78173  0.35990  Biso   1.000  O
  O5       1.0000 0.04190  0.71827  0.85990  Biso   1.000  O
  O6       1.0000 0.54190  0.21827  0.85990  Biso   1.000  O
  O7       1.0000 0.95810  0.71827  0.64010  Biso   1.000  O
  O8       1.0000 0.45810  0.21827  0.64010  Biso   1.000  O
  O9       1.0000 0.05860  0.39740  0.26010  Biso   1.000  O
  O10      1.0000 0.55860  0.89740  0.26010  Biso   1.000  O
  O11      1.0000 0.94140  0.39740  0.23990  Biso   1.000  O
  O12      1.0000 0.44140  0.89740  0.23990  Biso   1.000  O
  O13      1.0000 0.94140  0.60260  0.73990  Biso   1.000  O
  O14      1.0000 0.44140  0.10260  0.73990  Biso   1.000  O
  O15      1.0000 0.05860  0.60260  0.76010  Biso   1.000  O
  O16      1.0000 0.55860  0.10260  0.76010  Biso   1.000  O
  N1       1.0000 0.38372  0.28554  0.20830  Biso   1.000  N
  N2       1.0000 0.88372  0.78554  0.20830  Biso   1.000  N
  N3       1.0000 0.61628  0.28554  0.29170  Biso   1.000  N
  N4       1.0000 0.11628  0.78554  0.29170  Biso   1.000  N
  N5       1.0000 0.61628  0.71446  0.79170  Biso   1.000  N
  N6       1.0000 0.11628  0.21446  0.79170  Biso   1.000  N
  N7       1.0000 0.38372  0.71446  0.70830  Biso   1.000  N
  N8       1.0000 0.88372  0.21446  0.70830  Biso   1.000  N
  C1       1.0000 0.43932  0.25050  0.22710  Biso   1.000  C
  C2       1.0000 0.93932  0.75050  0.22710  Biso   1.000  C
  C3       1.0000 0.56068  0.25050  0.27290  Biso   1.000  C
  C4       1.0000 0.06068  0.75050  0.27290  Biso   1.000  C
  C5       1.0000 0.56068  0.74950  0.77290  Biso   1.000  C
  C6       1.0000 0.06068  0.24950  0.77290  Biso   1.000  C
  C7       1.0000 0.43932  0.74950  0.72710  Biso   1.000  C
  C8       1.0000 0.93932  0.24950  0.72710  Biso   1.000  C
  N9       1.0000 0.50000  0.20360  0.25000  Biso   1.000  N
  N10      1.0000 0.00000  0.70360  0.25000  Biso   1.000  N
  N11      1.0000 0.50000  0.79640  0.75000  Biso   1.000  N
  N12      1.0000 0.00000  0.29640  0.75000  Biso   1.000  N
  C9       1.0000 0.24900  0.01220  0.14760  Biso   1.000  C
  C10      1.0000 0.74900  0.51220  0.14760  Biso   1.000  C
  C11      1.0000 0.75100  0.01220  0.35240  Biso   1.000  C
  C12      1.0000 0.25100  0.51220  0.35240  Biso   1.000  C
  C13      1.0000 0.75100  0.98780  0.85240  Biso   1.000  C
  C14      1.0000 0.25100  0.48780  0.85240  Biso   1.000  C
  C15      1.0000 0.24900  0.98780  0.64760  Biso   1.000  C
  C16      1.0000 0.74900  0.48780  0.64760  Biso   1.000  C
  C17      1.0000 0.25090  0.91450  0.16130  Biso   1.000  C
  C18      1.0000 0.75090  0.41450  0.16130  Biso   1.000  C
  C19      1.0000 0.74910  0.91450  0.33870  Biso   1.000  C
  C20      1.0000 0.24910  0.41450  0.33870  Biso   1.000  C
  C21      1.0000 0.74910  0.08550  0.83870  Biso   1.000  C
  C22      1.0000 0.24910  0.58550  0.83870  Biso   1.000  C
  C23      1.0000 0.25090  0.08550  0.66130  Biso   1.000  C
  C24      1.0000 0.75090  0.58550  0.66130  Biso   1.000  C
  C25      1.0000 0.18020  0.86570  0.11400  Biso   1.000  C
  C26      1.0000 0.68020  0.36570  0.11400  Biso   1.000  C
  C27      1.0000 0.81980  0.86570  0.38600  Biso   1.000  C
  C28      1.0000 0.31980  0.36570  0.38600  Biso   1.000  C
  C29      1.0000 0.81980  0.13430  0.88600  Biso   1.000  C
  C30      1.0000 0.31980  0.63430  0.88600  Biso   1.000  C
  C31      1.0000 0.18020  0.13430  0.61400  Biso   1.000  C
  C32      1.0000 0.68020  0.63430  0.61400  Biso   1.000  C
  C33      1.0000 0.10610  0.91360  0.05000  Biso   1.000  C
  C34      1.0000 0.60610  0.41360  0.05000  Biso   1.000  C
  C35      1.0000 0.89390  0.91360  0.45000  Biso   1.000  C
  C36      1.0000 0.39390  0.41360  0.45000  Biso   1.000  C
  C37      1.0000 0.89390  0.08640  0.95000  Biso   1.000  C
  C38      1.0000 0.39390  0.58640  0.95000  Biso   1.000  C
  C39      1.0000 0.10610  0.08640  0.55000  Biso   1.000  C
  C40      1.0000 0.60610  0.58640  0.55000  Biso   1.000  C
  C41      1.0000 0.10380  0.01160  0.03660  Biso   1.000  C
  C42      1.0000 0.60380  0.51160  0.03660  Biso   1.000  C
  C43      1.0000 0.89620  0.01160  0.46340  Biso   1.000  C
  C44      1.0000 0.39620  0.51160  0.46340  Biso   1.000  C
  C45      1.0000 0.89620  0.98840  0.96340  Biso   1.000  C
  C46      1.0000 0.39620  0.48840  0.96340  Biso   1.000  C
  C47      1.0000 0.10380  0.98840  0.53660  Biso   1.000  C
  C48      1.0000 0.60380  0.48840  0.53660  Biso   1.000  C
  C49      1.0000 0.17500  0.06210  0.08620  Biso   1.000  C
  C50      1.0000 0.67500  0.56210  0.08620  Biso   1.000  C
  C51      1.0000 0.82500  0.06210  0.41380  Biso   1.000  C
  C52      1.0000 0.32500  0.56210  0.41380  Biso   1.000  C
  C53      1.0000 0.82500  0.93790  0.91380  Biso   1.000  C
  C54      1.0000 0.32500  0.43790  0.91380  Biso   1.000  C
  C55      1.0000 0.17500  0.93790  0.58620  Biso   1.000  C
  C56      1.0000 0.67500  0.43790  0.58620  Biso   1.000  C
  C57      1.0000 0.17607  0.16680  0.07460  Biso   1.000  C
  C58      1.0000 0.67607  0.66680  0.07460  Biso   1.000  C
  C59      1.0000 0.82393  0.16680  0.42540  Biso   1.000  C
  C60      1.0000 0.32393  0.66680  0.42540  Biso   1.000  C
  C61      1.0000 0.82393  0.83320  0.92540  Biso   1.000  C
  C62      1.0000 0.32393  0.33320  0.92540  Biso   1.000  C
  C63      1.0000 0.17607  0.83320  0.57460  Biso   1.000  C
  C64      1.0000 0.67607  0.33320  0.57460  Biso   1.000  C
  O17      1.0000 0.23821  0.19843  0.08850  Biso   1.000  O
  O18      1.0000 0.73821  0.69843  0.08850  Biso   1.000  O
  O19      1.0000 0.76179  0.19843  0.41150  Biso   1.000  O
  O20      1.0000 0.26179  0.69843  0.41150  Biso   1.000  O
  O21      1.0000 0.76179  0.80157  0.91150  Biso   1.000  O
  O22      1.0000 0.26179  0.30157  0.91150  Biso   1.000  O
  O23      1.0000 0.23821  0.80157  0.58850  Biso   1.000  O
  O24      1.0000 0.73821  0.30157  0.58850  Biso   1.000  O
  C65      1.0000 0.11436  0.22270  0.05110  Biso   1.000  C
  C66      1.0000 0.61436  0.72270  0.05110  Biso   1.000  C
  C67      1.0000 0.88564  0.22270  0.44890  Biso   1.000  C
  C68      1.0000 0.38564  0.72270  0.44890  Biso   1.000  C
  C69      1.0000 0.88564  0.77730  0.94890  Biso   1.000  C
  C70      1.0000 0.38564  0.27730  0.94890  Biso   1.000  C
  C71      1.0000 0.11436  0.77730  0.55110  Biso   1.000  C
  C72      1.0000 0.61436  0.27730  0.55110  Biso   1.000  C
  C73      1.0000 0.10612  0.32250  0.03120  Biso   1.000  C
  C74      1.0000 0.60612  0.82250  0.03120  Biso   1.000  C
  C75      1.0000 0.89388  0.32250  0.46880  Biso   1.000  C
  C76      1.0000 0.39388  0.82250  0.46880  Biso   1.000  C
  C77      1.0000 0.89388  0.67750  0.96880  Biso   1.000  C
  C78      1.0000 0.39388  0.17750  0.96880  Biso   1.000  C
  C79      1.0000 0.10612  0.67750  0.53120  Biso   1.000  C
  C80      1.0000 0.60612  0.17750  0.53120  Biso   1.000  C
  C81      1.0000 0.02895  0.36800  0.99390  Biso   1.000  C
  C82      1.0000 0.52895  0.86800  0.99390  Biso   1.000  C
  C83      1.0000 0.97105  0.36800  0.50610  Biso   1.000  C
  C84      1.0000 0.47105  0.86800  0.50610  Biso   1.000  C
  C85      1.0000 0.97105  0.63200  0.00610  Biso   1.000  C
  C86      1.0000 0.47105  0.13200  0.00610  Biso   1.000  C
  C87      1.0000 0.02895  0.63200  0.49390  Biso   1.000  C
  C88      1.0000 0.52895  0.13200  0.49390  Biso   1.000  C
  N13      1.0000 0.16217  0.37296  0.04530  Biso   1.000  N
  N14      1.0000 0.66217  0.87296  0.04530  Biso   1.000  N
  N15      1.0000 0.83783  0.37296  0.45470  Biso   1.000  N
  N16      1.0000 0.33783  0.87296  0.45470  Biso   1.000  N
  N17      1.0000 0.83783  0.62704  0.95470  Biso   1.000  N
  N18      1.0000 0.33783  0.12704  0.95470  Biso   1.000  N
  N19      1.0000 0.16217  0.62704  0.54530  Biso   1.000  N
  N20      1.0000 0.66217  0.12704  0.54530  Biso   1.000  N
  C89      1.0000 0.14998  0.47490  0.02160  Biso   1.000  C
  C90      1.0000 0.64998  0.97490  0.02160  Biso   1.000  C
  C91      1.0000 0.85002  0.47490  0.47840  Biso   1.000  C
  C92      1.0000 0.35002  0.97490  0.47840  Biso   1.000  C
  C93      1.0000 0.85002  0.52510  0.97840  Biso   1.000  C
  C94      1.0000 0.35002  0.02510  0.97840  Biso   1.000  C
  C95      1.0000 0.14998  0.52510  0.52160  Biso   1.000  C
  C96      1.0000 0.64998  0.02510  0.52160  Biso   1.000  C
  C97      1.0000 0.23037  0.52260  0.07960  Biso   1.000  C
  C98      1.0000 0.73037  0.02260  0.07960  Biso   1.000  C
  C99      1.0000 0.76963  0.52260  0.42040  Biso   1.000  C
  C100     1.0000 0.26963  0.02260  0.42040  Biso   1.000  C
  C101     1.0000 0.76963  0.47740  0.92040  Biso   1.000  C
  C102     1.0000 0.26963  0.97740  0.92040  Biso   1.000  C
  C103     1.0000 0.23037  0.47740  0.57960  Biso   1.000  C
  C104     1.0000 0.73037  0.97740  0.57960  Biso   1.000  C
  C105     1.0000 0.23710  0.62070  0.08020  Biso   1.000  C
  C106     1.0000 0.73710  0.12070  0.08020  Biso   1.000  C
  C107     1.0000 0.76290  0.62070  0.41980  Biso   1.000  C
  C108     1.0000 0.26290  0.12070  0.41980  Biso   1.000  C
  C109     1.0000 0.76290  0.37930  0.91980  Biso   1.000  C
  C110     1.0000 0.26290  0.87930  0.91980  Biso   1.000  C
  C111     1.0000 0.23710  0.37930  0.58020  Biso   1.000  C
  C112     1.0000 0.73710  0.87930  0.58020  Biso   1.000  C
  C113     1.0000 0.31340  0.65950  0.13730  Biso   1.000  C
  C114     1.0000 0.81340  0.15950  0.13730  Biso   1.000  C
  C115     1.0000 0.68660  0.65950  0.36270  Biso   1.000  C
  C116     1.0000 0.18660  0.15950  0.36270  Biso   1.000  C
  C117     1.0000 0.68660  0.34050  0.86270  Biso   1.000  C
  C118     1.0000 0.18660  0.84050  0.86270  Biso   1.000  C
  C119     1.0000 0.31340  0.34050  0.63730  Biso   1.000  C
  C120     1.0000 0.81340  0.84050  0.63730  Biso   1.000  C
  C121     1.0000 0.38070  0.60130  0.19340  Biso   1.000  C
  C122     1.0000 0.88070  0.10130  0.19340  Biso   1.000  C
  C123     1.0000 0.61930  0.60130  0.30660  Biso   1.000  C
  C124     1.0000 0.11930  0.10130  0.30660  Biso   1.000  C
  C125     1.0000 0.61930  0.39870  0.80660  Biso   1.000  C
  C126     1.0000 0.11930  0.89870  0.80660  Biso   1.000  C
  C127     1.0000 0.38070  0.39870  0.69340  Biso   1.000  C
  C128     1.0000 0.88070  0.89870  0.69340  Biso   1.000  C
  C129     1.0000 0.36970  0.50490  0.18790  Biso   1.000  C
  C130     1.0000 0.86970  0.00490  0.18790  Biso   1.000  C
  C131     1.0000 0.63030  0.50490  0.31210  Biso   1.000  C
  C132     1.0000 0.13030  0.00490  0.31210  Biso   1.000  C
  C133     1.0000 0.63030  0.49510  0.81210  Biso   1.000  C
  C134     1.0000 0.13030  0.99510  0.81210  Biso   1.000  C
  C135     1.0000 0.36970  0.49510  0.68790  Biso   1.000  C
  C136     1.0000 0.86970  0.99510  0.68790  Biso   1.000  C
  N21      1.0000 0.29584  0.46543  0.13170  Biso   1.000  N
  N22      1.0000 0.79584  0.96543  0.13170  Biso   1.000  N
  N23      1.0000 0.70416  0.46543  0.36830  Biso   1.000  N
  N24      1.0000 0.20416  0.96543  0.36830  Biso   1.000  N
  N25      1.0000 0.70416  0.53457  0.86830  Biso   1.000  N
  N26      1.0000 0.20416  0.03457  0.86830  Biso   1.000  N
  N27      1.0000 0.29584  0.53457  0.63170  Biso   1.000  N
  N28      1.0000 0.79584  0.03457  0.63170  Biso   1.000  N
  H1       1.0000 0.29660  0.04390  0.18120  Biso   1.000  H
  H2       1.0000 0.79660  0.54390  0.18120  Biso   1.000  H
  H3       1.0000 0.70340  0.04390  0.31880  Biso   1.000  H
  H4       1.0000 0.20340  0.54390  0.31880  Biso   1.000  H
  H5       1.0000 0.70340  0.95610  0.81880  Biso   1.000  H
  H6       1.0000 0.20340  0.45610  0.81880  Biso   1.000  H
  H7       1.0000 0.29660  0.95610  0.68120  Biso   1.000  H
  H8       1.0000 0.79660  0.45610  0.68120  Biso   1.000  H
  H9       1.0000 0.30000  0.88280  0.20250  Biso   1.000  H
  H10      1.0000 0.80000  0.38280  0.20250  Biso   1.000  H
  H11      1.0000 0.70000  0.88280  0.29750  Biso   1.000  H
  H12      1.0000 0.20000  0.38280  0.29750  Biso   1.000  H
  H13      1.0000 0.70000  0.11720  0.79750  Biso   1.000  H
  H14      1.0000 0.20000  0.61720  0.79750  Biso   1.000  H
  H15      1.0000 0.30000  0.11720  0.70250  Biso   1.000  H
  H16      1.0000 0.80000  0.61720  0.70250  Biso   1.000  H
  H17      1.0000 0.18240  0.80060  0.12510  Biso   1.000  H
  H18      1.0000 0.68240  0.30060  0.12510  Biso   1.000  H
  H19      1.0000 0.81760  0.80060  0.37490  Biso   1.000  H
  H20      1.0000 0.31760  0.30060  0.37490  Biso   1.000  H
  H21      1.0000 0.81760  0.19940  0.87490  Biso   1.000  H
  H22      1.0000 0.31760  0.69940  0.87490  Biso   1.000  H
  H23      1.0000 0.18240  0.19940  0.62510  Biso   1.000  H
  H24      1.0000 0.68240  0.69940  0.62510  Biso   1.000  H
  H25      1.0000 0.05770  0.88060  0.01610  Biso   1.000  H
  H26      1.0000 0.55770  0.38060  0.01610  Biso   1.000  H
  H27      1.0000 0.94230  0.88060  0.48390  Biso   1.000  H
  H28      1.0000 0.44230  0.38060  0.48390  Biso   1.000  H
  H29      1.0000 0.94230  0.11940  0.98390  Biso   1.000  H
  H30      1.0000 0.44230  0.61940  0.98390  Biso   1.000  H
  H31      1.0000 0.05770  0.11940  0.51610  Biso   1.000  H
  H32      1.0000 0.55770  0.61940  0.51610  Biso   1.000  H
  H33      1.0000 0.05460  0.04340  0.99320  Biso   1.000  H
  H34      1.0000 0.55460  0.54340  0.99320  Biso   1.000  H
  H35      1.0000 0.94540  0.04340  0.50680  Biso   1.000  H
  H36      1.0000 0.44540  0.54340  0.50680  Biso   1.000  H
  H37      1.0000 0.94540  0.95660  0.00680  Biso   1.000  H
  H38      1.0000 0.44540  0.45660  0.00680  Biso   1.000  H
  H39      1.0000 0.05460  0.95660  0.49320  Biso   1.000  H
  H40      1.0000 0.55460  0.45660  0.49320  Biso   1.000  H
  H41      1.0000 0.07530  0.19330  0.04880  Biso   1.000  H
  H42      1.0000 0.57530  0.69330  0.04880  Biso   1.000  H
  H43      1.0000 0.92470  0.19330  0.45120  Biso   1.000  H
  H44      1.0000 0.42470  0.69330  0.45120  Biso   1.000  H
  H45      1.0000 0.92470  0.80670  0.95120  Biso   1.000  H
  H46      1.0000 0.42470  0.30670  0.95120  Biso   1.000  H
  H47      1.0000 0.07530  0.80670  0.54880  Biso   1.000  H
  H48      1.0000 0.57530  0.30670  0.54880  Biso   1.000  H
  H49      1.0000 0.00350  0.40700  0.92090  Biso   1.000  H
  H50      1.0000 0.50350  0.90700  0.92090  Biso   1.000  H
  H51      1.0000 0.99650  0.40700  0.57910  Biso   1.000  H
  H52      1.0000 0.49650  0.90700  0.57910  Biso   1.000  H
  H53      1.0000 0.99650  0.59300  0.07910  Biso   1.000  H
  H54      1.0000 0.49650  0.09300  0.07910  Biso   1.000  H
  H55      1.0000 0.00350  0.59300  0.42090  Biso   1.000  H
  H56      1.0000 0.50350  0.09300  0.42090  Biso   1.000  H
  H57      1.0000 0.04430  0.40560  0.06320  Biso   1.000  H
  H58      1.0000 0.54430  0.90560  0.06320  Biso   1.000  H
  H59      1.0000 0.95570  0.40560  0.43680  Biso   1.000  H
  H60      1.0000 0.45570  0.90560  0.43680  Biso   1.000  H
  H61      1.0000 0.95570  0.59440  0.93680  Biso   1.000  H
  H62      1.0000 0.45570  0.09440  0.93680  Biso   1.000  H
  H63      1.0000 0.04430  0.59440  0.56320  Biso   1.000  H
  H64      1.0000 0.54430  0.09440  0.56320  Biso   1.000  H
  H65      1.0000 0.99110  0.32010  0.97450  Biso   1.000  H
  H66      1.0000 0.49110  0.82010  0.97450  Biso   1.000  H
  H67      1.0000 0.00890  0.32010  0.52550  Biso   1.000  H
  H68      1.0000 0.50890  0.82010  0.52550  Biso   1.000  H
  H69      1.0000 0.00890  0.67990  0.02550  Biso   1.000  H
  H70      1.0000 0.50890  0.17990  0.02550  Biso   1.000  H
  H71      1.0000 0.99110  0.67990  0.47450  Biso   1.000  H
  H72      1.0000 0.49110  0.17990  0.47450  Biso   1.000  H
  H73      1.0000 0.11460  0.48210  0.93220  Biso   1.000  H
  H74      1.0000 0.61460  0.98210  0.93220  Biso   1.000  H
  H75      1.0000 0.88540  0.48210  0.56780  Biso   1.000  H
  H76      1.0000 0.38540  0.98210  0.56780  Biso   1.000  H
  H77      1.0000 0.88540  0.51790  0.06780  Biso   1.000  H
  H78      1.0000 0.38540  0.01790  0.06780  Biso   1.000  H
  H79      1.0000 0.11460  0.51790  0.43220  Biso   1.000  H
  H80      1.0000 0.61460  0.01790  0.43220  Biso   1.000  H
  H81      1.0000 0.13510  0.49460  0.06970  Biso   1.000  H
  H82      1.0000 0.63510  0.99460  0.06970  Biso   1.000  H
  H83      1.0000 0.86490  0.49460  0.43030  Biso   1.000  H
  H84      1.0000 0.36490  0.99460  0.43030  Biso   1.000  H
  H85      1.0000 0.86490  0.50540  0.93030  Biso   1.000  H
  H86      1.0000 0.36490  0.00540  0.93030  Biso   1.000  H
  H87      1.0000 0.13510  0.50540  0.56970  Biso   1.000  H
  H88      1.0000 0.63510  0.00540  0.56970  Biso   1.000  H
  H89      1.0000 0.19090  0.65810  0.04270  Biso   1.000  H
  H90      1.0000 0.69090  0.15810  0.04270  Biso   1.000  H
  H91      1.0000 0.80910  0.65810  0.45730  Biso   1.000  H
  H92      1.0000 0.30910  0.15810  0.45730  Biso   1.000  H
  H93      1.0000 0.80910  0.34190  0.95730  Biso   1.000  H
  H94      1.0000 0.30910  0.84190  0.95730  Biso   1.000  H
  H95      1.0000 0.19090  0.34190  0.54270  Biso   1.000  H
  H96      1.0000 0.69090  0.84190  0.54270  Biso   1.000  H
  H97      1.0000 0.31930  0.72500  0.13740  Biso   1.000  H
  H98      1.0000 0.81930  0.22500  0.13740  Biso   1.000  H
  H99      1.0000 0.68070  0.72500  0.36260  Biso   1.000  H
  H100     1.0000 0.18070  0.22500  0.36260  Biso   1.000  H
  H101     1.0000 0.68070  0.27500  0.86260  Biso   1.000  H
  H102     1.0000 0.18070  0.77500  0.86260  Biso   1.000  H
  H103     1.0000 0.31930  0.27500  0.63740  Biso   1.000  H
  H104     1.0000 0.81930  0.77500  0.63740  Biso   1.000  H
  H105     1.0000 0.43260  0.62650  0.23400  Biso   1.000  H
  H106     1.0000 0.93260  0.12650  0.23400  Biso   1.000  H
  H107     1.0000 0.56740  0.62650  0.26600  Biso   1.000  H
  H108     1.0000 0.06740  0.12650  0.26600  Biso   1.000  H
  H109     1.0000 0.56740  0.37350  0.76600  Biso   1.000  H
  H110     1.0000 0.06740  0.87350  0.76600  Biso   1.000  H
  H111     1.0000 0.43260  0.37350  0.73400  Biso   1.000  H
  H112     1.0000 0.93260  0.87350  0.73400  Biso   1.000  H
  H113     1.0000 0.41450  0.46560  0.22330  Biso   1.000  H
  H114     1.0000 0.91450  0.96560  0.22330  Biso   1.000  H
  H115     1.0000 0.58550  0.46560  0.27670  Biso   1.000  H
  H116     1.0000 0.08550  0.96560  0.27670  Biso   1.000  H
  H117     1.0000 0.58550  0.53440  0.77670  Biso   1.000  H
  H118     1.0000 0.08550  0.03440  0.77670  Biso   1.000  H
  H119     1.0000 0.41450  0.53440  0.72330  Biso   1.000  H
  H120     1.0000 0.91450  0.03440  0.72330  Biso   1.000  H
