data_image0
_cell_length_a       7.6404
_cell_length_b       6.3146
_cell_length_c       24.268
_cell_angle_alpha    90
_cell_angle_beta     93.497
_cell_angle_gamma    90

_symmetry_space_group_name_H-M    "P 1"
_symmetry_int_tables_number       1

loop_
  _symmetry_equiv_pos_as_xyz
  'x, y, z'

loop_
  _atom_site_label
  _atom_site_occupancy
  _atom_site_fract_x
  _atom_site_fract_y
  _atom_site_fract_z
  _atom_site_thermal_displace_type
  _atom_site_B_iso_or_equiv
  _atom_site_type_symbol
  O1       1.0000 0.89010  0.73530  0.31776  Biso   1.000  O
  O2       1.0000 0.60990  0.23530  0.18224  Biso   1.000  O
  O3       1.0000 0.10990  0.26470  0.68224  Biso   1.000  O
  O4       1.0000 0.39010  0.76470  0.81776  Biso   1.000  O
  Cu1      1.0000 0.75533  0.16269  0.24801  Biso   1.000  Cu
  Cu2      1.0000 0.74467  0.66269  0.25199  Biso   1.000  Cu
  Cu3      1.0000 0.24467  0.83731  0.75199  Biso   1.000  Cu
  Cu4      1.0000 0.25533  0.33731  0.74801  Biso   1.000  Cu
  O5       1.0000 0.90790  0.08850  0.31246  Biso   1.000  O
  O6       1.0000 0.59210  0.58850  0.18754  Biso   1.000  O
  O7       1.0000 0.09210  0.91150  0.68754  Biso   1.000  O
  O8       1.0000 0.40790  0.41150  0.81246  Biso   1.000  O
  F1       1.0000 0.33280  0.93590  0.53687  Biso   1.000  F
  F2       1.0000 0.16720  0.43590  0.96313  Biso   1.000  F
  F3       1.0000 0.66720  0.06410  0.46313  Biso   1.000  F
  F4       1.0000 0.83280  0.56410  0.03687  Biso   1.000  F
  C1       1.0000 0.04440  0.91910  0.38930  Biso   1.000  C
  C2       1.0000 0.45560  0.41910  0.11070  Biso   1.000  C
  C3       1.0000 0.95560  0.08090  0.61070  Biso   1.000  C
  C4       1.0000 0.54440  0.58090  0.88930  Biso   1.000  C
  C5       1.0000 0.93750  0.91250  0.33540  Biso   1.000  C
  C6       1.0000 0.56250  0.41250  0.16460  Biso   1.000  C
  C7       1.0000 0.06250  0.08750  0.66460  Biso   1.000  C
  C8       1.0000 0.43750  0.58750  0.83540  Biso   1.000  C
  C9       1.0000 0.13420  0.09940  0.40620  Biso   1.000  C
  C10      1.0000 0.36580  0.59940  0.09380  Biso   1.000  C
  C11      1.0000 0.86580  0.90060  0.59380  Biso   1.000  C
  C12      1.0000 0.63420  0.40060  0.90620  Biso   1.000  C
  H1       1.0000 0.12770  0.21930  0.38390  Biso   1.000  H
  H2       1.0000 0.37230  0.71930  0.11610  Biso   1.000  H
  H3       1.0000 0.87230  0.78070  0.61610  Biso   1.000  H
  H4       1.0000 0.62770  0.28070  0.88390  Biso   1.000  H
  C13      1.0000 0.23650  0.93100  0.48760  Biso   1.000  C
  C14      1.0000 0.26350  0.43100  0.01240  Biso   1.000  C
  C15      1.0000 0.76350  0.06900  0.51240  Biso   1.000  C
  C16      1.0000 0.73650  0.56900  0.98760  Biso   1.000  C
  C17      1.0000 0.05420  0.74080  0.42370  Biso   1.000  C
  C18      1.0000 0.44580  0.24080  0.07630  Biso   1.000  C
  C19      1.0000 0.94580  0.25920  0.57630  Biso   1.000  C
  C20      1.0000 0.55420  0.75920  0.92370  Biso   1.000  C
  H5       1.0000 0.99670  0.61640  0.41290  Biso   1.000  H
  H6       1.0000 0.50330  0.11640  0.08710  Biso   1.000  H
  H7       1.0000 0.00330  0.38360  0.58710  Biso   1.000  H
  H8       1.0000 0.49670  0.88360  0.91290  Biso   1.000  H
  C21      1.0000 0.23370  0.10460  0.45550  Biso   1.000  C
  C22      1.0000 0.26630  0.60460  0.04450  Biso   1.000  C
  C23      1.0000 0.76630  0.89540  0.54450  Biso   1.000  C
  C24      1.0000 0.73370  0.39540  0.95550  Biso   1.000  C
  H9       1.0000 0.29720  0.22500  0.46630  Biso   1.000  H
  H10      1.0000 0.20280  0.72500  0.03370  Biso   1.000  H
  H11      1.0000 0.70280  0.77500  0.53370  Biso   1.000  H
  H12      1.0000 0.79720  0.27500  0.96630  Biso   1.000  H
  C25      1.0000 0.14900  0.75050  0.47350  Biso   1.000  C
  C26      1.0000 0.35100  0.25050  0.02650  Biso   1.000  C
  C27      1.0000 0.85100  0.24950  0.52650  Biso   1.000  C
  C28      1.0000 0.64900  0.74950  0.97350  Biso   1.000  C
  H13      1.0000 0.15330  0.63470  0.49720  Biso   1.000  H
  H14      1.0000 0.34670  0.13470  0.00280  Biso   1.000  H
  H15      1.0000 0.84670  0.36530  0.50280  Biso   1.000  H
  H16      1.0000 0.65330  0.86530  0.99720  Biso   1.000  H
  O9       1.0000 0.92840  0.91380  0.19852  Biso   1.000  O
  O10      1.0000 0.57160  0.41380  0.30148  Biso   1.000  O
  O11      1.0000 0.07160  0.08620  0.80148  Biso   1.000  O
  O12      1.0000 0.42840  0.58620  0.69852  Biso   1.000  O
  C29      1.0000 0.91590  0.88750  0.14000  Biso   1.000  C
  C30      1.0000 0.58410  0.38750  0.36000  Biso   1.000  C
  C31      1.0000 0.08410  0.11250  0.86000  Biso   1.000  C
  C32      1.0000 0.41590  0.61250  0.64000  Biso   1.000  C
  H17      1.0000 0.79420  0.86440  0.12770  Biso   1.000  H
  H18      1.0000 0.70580  0.36440  0.37230  Biso   1.000  H
  H19      1.0000 0.20580  0.13560  0.87230  Biso   1.000  H
  H20      1.0000 0.29420  0.63560  0.62770  Biso   1.000  H
  H21      1.0000 0.98160  0.76260  0.13050  Biso   1.000  H
  H22      1.0000 0.51840  0.26260  0.36950  Biso   1.000  H
  H23      1.0000 0.01840  0.23740  0.86950  Biso   1.000  H
  H24      1.0000 0.48160  0.73740  0.63050  Biso   1.000  H
  C33      1.0000 0.98410  0.07450  0.11010  Biso   1.000  C
  C34      1.0000 0.51590  0.57450  0.38990  Biso   1.000  C
  C35      1.0000 0.01590  0.92550  0.88990  Biso   1.000  C
  C36      1.0000 0.48410  0.42550  0.61010  Biso   1.000  C
  H25      1.0000 0.92520  0.20030  0.12130  Biso   1.000  H
  H26      1.0000 0.57480  0.70030  0.37870  Biso   1.000  H
  H27      1.0000 0.07480  0.79970  0.87870  Biso   1.000  H
  H28      1.0000 0.42520  0.29970  0.62130  Biso   1.000  H
  H29      1.0000 0.96300  0.05470  0.07100  Biso   1.000  H
  H30      1.0000 0.53700  0.55470  0.42900  Biso   1.000  H
  H31      1.0000 0.03700  0.94530  0.92900  Biso   1.000  H
  H32      1.0000 0.46300  0.44530  0.57100  Biso   1.000  H
  H33      1.0000 0.10780  0.08850  0.11880  Biso   1.000  H
  H34      1.0000 0.39220  0.58850  0.38120  Biso   1.000  H
  H35      1.0000 0.89220  0.91150  0.88120  Biso   1.000  H
  H36      1.0000 0.60780  0.41150  0.61880  Biso   1.000  H
  N1       1.0000 0.59870  0.91920  0.26160  Biso   1.000  N
  N2       1.0000 0.90130  0.41920  0.23840  Biso   1.000  N
  N3       1.0000 0.40130  0.08080  0.73840  Biso   1.000  N
  N4       1.0000 0.09870  0.58080  0.76160  Biso   1.000  N
  N5       1.0000 0.44480  0.92280  0.24690  Biso   1.000  N
  N6       1.0000 0.05520  0.42280  0.25310  Biso   1.000  N
  N7       1.0000 0.55520  0.07720  0.75310  Biso   1.000  N
  N8       1.0000 0.94480  0.57720  0.74690  Biso   1.000  N
  N9       1.0000 0.30120  0.92460  0.23250  Biso   1.000  N
  N10      1.0000 0.19880  0.42460  0.26750  Biso   1.000  N
  N11      1.0000 0.69880  0.07540  0.76750  Biso   1.000  N
  N12      1.0000 0.80120  0.57540  0.73250  Biso   1.000  N
  H37      1.0000 0.02050  0.90400  0.21150  Biso   1.000  H
  H38      1.0000 0.47950  0.40400  0.28850  Biso   1.000  H
  H39      1.0000 0.97950  0.09600  0.78850  Biso   1.000  H
  H40      1.0000 0.52050  0.59600  0.71150  Biso   1.000  H
