data_image0
_cell_length_a       5.8645
_cell_length_b       7.5587
_cell_length_c       8.1625
_cell_angle_alpha    77.744
_cell_angle_beta     76.991
_cell_angle_gamma    83.633

_symmetry_space_group_name_H-M    "P 1"
_symmetry_int_tables_number       1

loop_
  _symmetry_equiv_pos_as_xyz
  'x, y, z'

loop_
  _atom_site_label
  _atom_site_occupancy
  _atom_site_fract_x
  _atom_site_fract_y
  _atom_site_fract_z
  _atom_site_thermal_displace_type
  _atom_site_B_iso_or_equiv
  _atom_site_type_symbol
  Cu1      1.0000 0.23328  0.47625  0.07418  Biso   1.000  Cu
  Cu2      1.0000 0.76672  0.52375  0.92582  Biso   1.000  Cu
  N1       1.0000 0.00250  0.31960  0.04890  Biso   1.000  N
  N2       1.0000 0.99750  0.68040  0.95110  Biso   1.000  N
  N3       1.0000 0.95440  0.17520  0.14360  Biso   1.000  N
  N4       1.0000 0.04560  0.82480  0.85640  Biso   1.000  N
  N5       1.0000 0.90460  0.03970  0.22860  Biso   1.000  N
  N6       1.0000 0.09540  0.96030  0.77140  Biso   1.000  N
  N7       1.0000 0.48190  0.63860  0.06220  Biso   1.000  N
  N8       1.0000 0.51810  0.36140  0.93780  Biso   1.000  N
  N9       1.0000 0.45610  0.77150  0.12890  Biso   1.000  N
  N10      1.0000 0.54390  0.22850  0.87110  Biso   1.000  N
  N11      1.0000 0.43290  0.89460  0.19190  Biso   1.000  N
  N12      1.0000 0.56710  0.10540  0.80810  Biso   1.000  N
  N13      1.0000 0.09120  0.48580  0.33190  Biso   1.000  N
  N14      1.0000 0.90880  0.51420  0.66810  Biso   1.000  N
  C1       1.0000 0.38530  0.24730  0.41200  Biso   1.000  C
  C2       1.0000 0.61470  0.75270  0.58800  Biso   1.000  C
  H1       1.0000 0.33610  0.16040  0.35520  Biso   1.000  H
  H2       1.0000 0.66390  0.83960  0.64480  Biso   1.000  H
  H3       1.0000 0.43630  0.18210  0.51630  Biso   1.000  H
  H4       1.0000 0.56370  0.81790  0.48370  Biso   1.000  H
  H5       1.0000 0.51550  0.31240  0.33440  Biso   1.000  H
  H6       1.0000 0.48450  0.68760  0.66560  Biso   1.000  H
  C3       1.0000 0.18410  0.37970  0.45790  Biso   1.000  C
  C4       1.0000 0.81590  0.62030  0.54210  Biso   1.000  C
  C5       1.0000 0.91060  0.60420  0.37310  Biso   1.000  C
  C6       1.0000 0.08940  0.39580  0.62690  Biso   1.000  C
  H7       1.0000 0.84500  0.67960  0.28400  Biso   1.000  H
  H8       1.0000 0.15500  0.32040  0.71600  Biso   1.000  H
