data_image0
_cell_length_a       8.4346
_cell_length_b       10.0295
_cell_length_c       11.1651
_cell_angle_alpha    79.354
_cell_angle_beta     85.938
_cell_angle_gamma    83.506

_symmetry_space_group_name_H-M    "P 1"
_symmetry_int_tables_number       1

loop_
  _symmetry_equiv_pos_as_xyz
  'x, y, z'

loop_
  _atom_site_label
  _atom_site_occupancy
  _atom_site_fract_x
  _atom_site_fract_y
  _atom_site_fract_z
  _atom_site_thermal_displace_type
  _atom_site_B_iso_or_equiv
  _atom_site_type_symbol
  Cu1      1.0000 0.61307  0.54696  0.78078  Biso   1.000  Cu
  Cu2      1.0000 0.38693  0.45304  0.21922  Biso   1.000  Cu
  S1       1.0000 0.80847  0.82362  0.76794  Biso   1.000  S
  S2       1.0000 0.19153  0.17638  0.23206  Biso   1.000  S
  P1       1.0000 0.38423  0.68767  0.98386  Biso   1.000  P
  P2       1.0000 0.61577  0.31233  0.01614  Biso   1.000  P
  N1       1.0000 0.53200  0.67940  0.63210  Biso   1.000  N
  N2       1.0000 0.46800  0.32060  0.36790  Biso   1.000  N
  N3       1.0000 0.74670  0.46400  0.64990  Biso   1.000  N
  N4       1.0000 0.25330  0.53600  0.35010  Biso   1.000  N
  C1       1.0000 0.23030  0.81820  0.92350  Biso   1.000  C
  C2       1.0000 0.76970  0.18180  0.07650  Biso   1.000  C
  C3       1.0000 0.09540  0.77710  0.87980  Biso   1.000  C
  C4       1.0000 0.90460  0.22290  0.12020  Biso   1.000  C
  H1       1.0000 0.08530  0.68470  0.88570  Biso   1.000  H
  H2       1.0000 0.91470  0.31530  0.11430  Biso   1.000  H
  C5       1.0000 0.97780  0.87240  0.82830  Biso   1.000  C
  C6       1.0000 0.02220  0.12760  0.17170  Biso   1.000  C
  C7       1.0000 0.99120  0.01090  0.82060  Biso   1.000  C
  C8       1.0000 0.00880  0.98910  0.17940  Biso   1.000  C
  H3       1.0000 0.91110  0.07520  0.78640  Biso   1.000  H
  H4       1.0000 0.08890  0.92480  0.21360  Biso   1.000  H
  C9       1.0000 0.12360  0.05260  0.86390  Biso   1.000  C
  C10      1.0000 0.87640  0.94740  0.13610  Biso   1.000  C
  H5       1.0000 0.13270  0.14510  0.85880  Biso   1.000  H
  H6       1.0000 0.86730  0.85490  0.14120  Biso   1.000  H
  C11      1.0000 0.24320  0.95610  0.91510  Biso   1.000  C
  C12      1.0000 0.75680  0.04390  0.08490  Biso   1.000  C
  H7       1.0000 0.33240  0.98430  0.94380  Biso   1.000  H
  H8       1.0000 0.66760  0.01570  0.05620  Biso   1.000  H
  C13      1.0000 0.42660  0.78940  0.62740  Biso   1.000  C
  C14      1.0000 0.57340  0.21060  0.37260  Biso   1.000  C
  H9       1.0000 0.38130  0.81310  0.70000  Biso   1.000  H
  H10      1.0000 0.61870  0.18690  0.30000  Biso   1.000  H
  C15      1.0000 0.38220  0.87060  0.51650  Biso   1.000  C
  C16      1.0000 0.61780  0.12940  0.48350  Biso   1.000  C
  H11      1.0000 0.30970  0.94770  0.51610  Biso   1.000  H
  H12      1.0000 0.69030  0.05230  0.48390  Biso   1.000  H
  C17      1.0000 0.44530  0.83640  0.40920  Biso   1.000  C
  C18      1.0000 0.55470  0.16360  0.59080  Biso   1.000  C
  H13      1.0000 0.41490  0.88940  0.33530  Biso   1.000  H
  H14      1.0000 0.58510  0.11060  0.66470  Biso   1.000  H
  C19      1.0000 0.55690  0.72040  0.41070  Biso   1.000  C
  C20      1.0000 0.44310  0.27960  0.58930  Biso   1.000  C
  C21      1.0000 0.62960  0.67260  0.30410  Biso   1.000  C
  C22      1.0000 0.37040  0.32740  0.69590  Biso   1.000  C
  H15      1.0000 0.60250  0.71970  0.22730  Biso   1.000  H
  H16      1.0000 0.39750  0.28030  0.77270  Biso   1.000  H
  C23      1.0000 0.73640  0.56090  0.31300  Biso   1.000  C
  C24      1.0000 0.26360  0.43910  0.68700  Biso   1.000  C
  H17      1.0000 0.78070  0.53230  0.24210  Biso   1.000  H
  H18      1.0000 0.21930  0.46770  0.75790  Biso   1.000  H
  C25      1.0000 0.78320  0.48490  0.42970  Biso   1.000  C
  C26      1.0000 0.21680  0.51510  0.57030  Biso   1.000  C
  C27      1.0000 0.89770  0.37080  0.44680  Biso   1.000  C
  C28      1.0000 0.10230  0.62920  0.55320  Biso   1.000  C
  H19      1.0000 0.94810  0.33760  0.37990  Biso   1.000  H
  H20      1.0000 0.05190  0.66240  0.62010  Biso   1.000  H
  C29      1.0000 0.93450  0.30910  0.56240  Biso   1.000  C
  C30      1.0000 0.06550  0.69090  0.43760  Biso   1.000  C
  H21      1.0000 0.01200  0.23480  0.57430  Biso   1.000  H
  H22      1.0000 0.98800  0.76520  0.42570  Biso   1.000  H
  C31      1.0000 0.85610  0.35720  0.66300  Biso   1.000  C
  C32      1.0000 0.14390  0.64280  0.33700  Biso   1.000  C
  H23      1.0000 0.88140  0.31310  0.74110  Biso   1.000  H
  H24      1.0000 0.11860  0.68690  0.25890  Biso   1.000  H
  C33      1.0000 0.71200  0.52860  0.53520  Biso   1.000  C
  C34      1.0000 0.28800  0.47140  0.46480  Biso   1.000  C
  C35      1.0000 0.59670  0.64600  0.52630  Biso   1.000  C
  C36      1.0000 0.40330  0.35400  0.47370  Biso   1.000  C
  O1       1.0000 0.43660  0.60930  0.88305  Biso   1.000  O
  O2       1.0000 0.56340  0.39070  0.11695  Biso   1.000  O
  O3       1.0000 0.31430  0.60850  0.09965  Biso   1.000  O
  O4       1.0000 0.68570  0.39150  0.90035  Biso   1.000  O
  O5       1.0000 0.52240  0.76400  0.01844  Biso   1.000  O
  O6       1.0000 0.47760  0.23600  0.98156  Biso   1.000  O
  H25      1.0000 0.56560  0.80390  0.95610  Biso   1.000  H
  H26      1.0000 0.43440  0.19610  0.04390  Biso   1.000  H
  O7       1.0000 0.82440  0.86680  0.63740  Biso   1.000  O
  O8       1.0000 0.17560  0.13320  0.36260  Biso   1.000  O
  O9       1.0000 0.66970  0.89610  0.82320  Biso   1.000  O
  O10      1.0000 0.33030  0.10390  0.17680  Biso   1.000  O
  O11      1.0000 0.81450  0.67580  0.80680  Biso   1.000  O
  O12      1.0000 0.18550  0.32420  0.19320  Biso   1.000  O
  O13      1.0000 0.93520  0.56850  0.07070  Biso   1.000  O
  O14      1.0000 0.06480  0.43150  0.92930  Biso   1.000  O
