data_image0
_cell_length_a       9.402
_cell_length_b       10.458
_cell_length_c       11.996
_cell_angle_alpha    107.336
_cell_angle_beta     98.786
_cell_angle_gamma    114.313

_symmetry_space_group_name_H-M    "P 1"
_symmetry_int_tables_number       1

loop_
  _symmetry_equiv_pos_as_xyz
  'x, y, z'

loop_
  _atom_site_label
  _atom_site_occupancy
  _atom_site_fract_x
  _atom_site_fract_y
  _atom_site_fract_z
  _atom_site_thermal_displace_type
  _atom_site_B_iso_or_equiv
  _atom_site_type_symbol
  Cu1      1.0000 0.33944  0.67499  0.25055  Biso   1.000  Cu
  Cu2      1.0000 0.66056  0.32501  0.74945  Biso   1.000  Cu
  Cu3      1.0000 0.00000  0.50000  0.00000  Biso   1.000  Cu
  Cu4      1.0000 0.50000  0.00000  0.50000  Biso   1.000  Cu
  C1       1.0000 0.16360  0.52550  0.73670  Biso   1.000  C
  C2       1.0000 0.83640  0.47450  0.26330  Biso   1.000  C
  H1       1.0000 0.04740  0.48320  0.73200  Biso   1.000  H
  H2       1.0000 0.95260  0.51680  0.26800  Biso   1.000  H
  H3       1.0000 0.17950  0.44710  0.67960  Biso   1.000  H
  H4       1.0000 0.82050  0.55290  0.32040  Biso   1.000  H
  H5       1.0000 0.19640  0.61390  0.71440  Biso   1.000  H
  H6       1.0000 0.80360  0.38610  0.28560  Biso   1.000  H
  C3       1.0000 0.26560  0.57420  0.86360  Biso   1.000  C
  C4       1.0000 0.73440  0.42580  0.13640  Biso   1.000  C
  C5       1.0000 0.48670  0.66700  0.01830  Biso   1.000  C
  C6       1.0000 0.51330  0.33300  0.98170  Biso   1.000  C
  C7       1.0000 0.66270  0.73490  0.09040  Biso   1.000  C
  C8       1.0000 0.33730  0.26510  0.90960  Biso   1.000  C
  H7       1.0000 0.67160  0.74530  0.17550  Biso   1.000  H
  H8       1.0000 0.32840  0.25470  0.82450  Biso   1.000  H
  H9       1.0000 0.72600  0.83590  0.08970  Biso   1.000  H
  H10      1.0000 0.27400  0.16410  0.91030  Biso   1.000  H
  H11      1.0000 0.70630  0.66800  0.05350  Biso   1.000  H
  H12      1.0000 0.29370  0.33200  0.94650  Biso   1.000  H
  C9       1.0000 0.27240  0.43140  0.41880  Biso   1.000  C
  C10      1.0000 0.72760  0.56860  0.58120  Biso   1.000  C
  H13      1.0000 0.35500  0.53940  0.44790  Biso   1.000  H
  H14      1.0000 0.64500  0.46060  0.55210  Biso   1.000  H
  H15      1.0000 0.32760  0.37100  0.42500  Biso   1.000  H
  H16      1.0000 0.67240  0.62900  0.57500  Biso   1.000  H
  H17      1.0000 0.19930  0.42090  0.46950  Biso   1.000  H
  H18      1.0000 0.80070  0.57910  0.53050  Biso   1.000  H
  C11      1.0000 0.17500  0.37560  0.28890  Biso   1.000  C
  C12      1.0000 0.82500  0.62440  0.71110  Biso   1.000  C
  C13      1.0000 0.98800  0.22580  0.10880  Biso   1.000  C
  C14      1.0000 0.01200  0.77420  0.89120  Biso   1.000  C
  C15      1.0000 0.84400  0.09160  0.00920  Biso   1.000  C
  C16      1.0000 0.15600  0.90840  0.99080  Biso   1.000  C
  H19      1.0000 0.82310  0.11600  0.93760  Biso   1.000  H
  H20      1.0000 0.17690  0.88400  0.06240  Biso   1.000  H
  H21      1.0000 0.74750  0.06470  0.03760  Biso   1.000  H
  H22      1.0000 0.25250  0.93530  0.96240  Biso   1.000  H
  H23      1.0000 0.86570  0.00490  0.98600  Biso   1.000  H
  H24      1.0000 0.13430  0.99510  0.01400  Biso   1.000  H
  N1       1.0000 0.22010  0.56670  0.96060  Biso   1.000  N
  N2       1.0000 0.77990  0.43330  0.03940  Biso   1.000  N
  N3       1.0000 0.36080  0.62510  0.05910  Biso   1.000  N
  N4       1.0000 0.63920  0.37490  0.94090  Biso   1.000  N
  N5       1.0000 0.43330  0.63780  0.89720  Biso   1.000  N
  N6       1.0000 0.56670  0.36220  0.10280  Biso   1.000  N
  N7       1.0000 0.53540  0.66770  0.82280  Biso   1.000  N
  N8       1.0000 0.46460  0.33230  0.17720  Biso   1.000  N
  N9       1.0000 0.19000  0.45520  0.22030  Biso   1.000  N
  N10      1.0000 0.81000  0.54480  0.77970  Biso   1.000  N
  N11      1.0000 0.07130  0.36040  0.10570  Biso   1.000  N
  N12      1.0000 0.92870  0.63960  0.89430  Biso   1.000  N
  N13      1.0000 0.05120  0.23210  0.22080  Biso   1.000  N
  N14      1.0000 0.94880  0.76790  0.77920  Biso   1.000  N
  N15      1.0000 0.98800  0.10740  0.25710  Biso   1.000  N
  N16      1.0000 0.01200  0.89260  0.74290  Biso   1.000  N
  N17      1.0000 0.13370  0.67360  0.16460  Biso   1.000  N
  N18      1.0000 0.86630  0.32640  0.83540  Biso   1.000  N
  N19      1.0000 0.08590  0.76020  0.21500  Biso   1.000  N
  N20      1.0000 0.91410  0.23980  0.78500  Biso   1.000  N
  N21      1.0000 0.03770  0.83680  0.26050  Biso   1.000  N
  N22      1.0000 0.96230  0.16320  0.73950  Biso   1.000  N
  N23      1.0000 0.47430  0.91030  0.32100  Biso   1.000  N
  N24      1.0000 0.52570  0.08970  0.67900  Biso   1.000  N
  N25      1.0000 0.50240  0.98510  0.25990  Biso   1.000  N
  N26      1.0000 0.49760  0.01490  0.74010  Biso   1.000  N
  N27      1.0000 0.53050  0.05750  0.20320  Biso   1.000  N
  N28      1.0000 0.46950  0.94250  0.79680  Biso   1.000  N
  N29      1.0000 0.32390  0.79580  0.46530  Biso   1.000  N
  N30      1.0000 0.67610  0.20420  0.53470  Biso   1.000  N
  N31      1.0000 0.21830  0.76290  0.51010  Biso   1.000  N
  N32      1.0000 0.78170  0.23710  0.48990  Biso   1.000  N
  N33      1.0000 0.11140  0.72220  0.54940  Biso   1.000  N
  N34      1.0000 0.88860  0.27780  0.45060  Biso   1.000  N
  N35      1.0000 0.53560  0.66110  0.32690  Biso   1.000  N
  N36      1.0000 0.46440  0.33890  0.67310  Biso   1.000  N
  N37      1.0000 0.62490  0.76260  0.42160  Biso   1.000  N
  N38      1.0000 0.37510  0.23740  0.57840  Biso   1.000  N
  N39      1.0000 0.71000  0.86180  0.51720  Biso   1.000  N
  N40      1.0000 0.29000  0.13820  0.48280  Biso   1.000  N
