data_image0
_cell_length_a       7.6548
_cell_length_b       8.0148
_cell_length_c       10.3204
_cell_angle_alpha    96.937
_cell_angle_beta     99.715
_cell_angle_gamma    93.231

_symmetry_space_group_name_H-M    "P 1"
_symmetry_int_tables_number       1

loop_
  _symmetry_equiv_pos_as_xyz
  'x, y, z'

loop_
  _atom_site_label
  _atom_site_occupancy
  _atom_site_fract_x
  _atom_site_fract_y
  _atom_site_fract_z
  _atom_site_thermal_displace_type
  _atom_site_B_iso_or_equiv
  _atom_site_type_symbol
  Cu1      1.0000 0.50000  0.00000  0.50000  Biso   1.000  Cu
  Cu2      1.0000 0.54086  0.37667  0.36761  Biso   1.000  Cu
  Cu3      1.0000 0.45914  0.62333  0.63239  Biso   1.000  Cu
  C1       1.0000 0.03840  0.70330  0.74300  Biso   1.000  C
  C2       1.0000 0.96160  0.29670  0.25700  Biso   1.000  C
  H1       1.0000 0.98530  0.63450  0.66300  Biso   1.000  H
  H2       1.0000 0.01470  0.36550  0.33700  Biso   1.000  H
  C3       1.0000 0.09350  0.86950  0.74220  Biso   1.000  C
  C4       1.0000 0.90650  0.13050  0.25780  Biso   1.000  C
  H3       1.0000 0.07590  0.91800  0.66190  Biso   1.000  H
  H4       1.0000 0.92410  0.08200  0.33810  Biso   1.000  H
  C5       1.0000 0.17500  0.96550  0.86010  Biso   1.000  C
  C6       1.0000 0.82500  0.03450  0.13990  Biso   1.000  C
  H5       1.0000 0.21570  0.08040  0.86310  Biso   1.000  H
  H6       1.0000 0.78430  0.91960  0.13690  Biso   1.000  H
  C7       1.0000 0.19410  0.88730  0.97190  Biso   1.000  C
  C8       1.0000 0.80590  0.11270  0.02810  Biso   1.000  C
  N1       1.0000 0.13900  0.72830  0.97760  Biso   1.000  N
  N2       1.0000 0.86100  0.27170  0.02240  Biso   1.000  N
  C9       1.0000 0.32350  0.90090  0.21130  Biso   1.000  C
  C10      1.0000 0.67650  0.09910  0.78870  Biso   1.000  C
  H7       1.0000 0.30230  0.78440  0.21730  Biso   1.000  H
  H8       1.0000 0.69770  0.21560  0.78270  Biso   1.000  H
  C11      1.0000 0.33410  0.13990  0.13410  Biso   1.000  C
  C12      1.0000 0.66590  0.86010  0.86590  Biso   1.000  C
  H9       1.0000 0.32180  0.22380  0.07630  Biso   1.000  H
  H10      1.0000 0.67820  0.77620  0.92370  Biso   1.000  H
  C13      1.0000 0.06170  0.63850  0.86210  Biso   1.000  C
  C14      1.0000 0.93830  0.36150  0.13790  Biso   1.000  C
  H11      1.0000 0.02080  0.52440  0.86220  Biso   1.000  H
  H12      1.0000 0.97920  0.47560  0.13780  Biso   1.000  H
  N3       1.0000 0.27980  0.97440  0.09930  Biso   1.000  N
  N4       1.0000 0.72020  0.02560  0.90070  Biso   1.000  N
  N5       1.0000 0.40610  0.16630  0.25990  Biso   1.000  N
  N6       1.0000 0.59390  0.83370  0.74010  Biso   1.000  N
  N7       1.0000 0.39790  0.01270  0.30800  Biso   1.000  N
  N8       1.0000 0.60210  0.98730  0.69200  Biso   1.000  N
  N9       1.0000 0.36670  0.78220  0.50680  Biso   1.000  N
  N10      1.0000 0.63330  0.21780  0.49320  Biso   1.000  N
  N11      1.0000 0.22190  0.74460  0.43820  Biso   1.000  N
  N12      1.0000 0.77810  0.25540  0.56180  Biso   1.000  N
  N13      1.0000 0.08330  0.70720  0.37250  Biso   1.000  N
  N14      1.0000 0.91670  0.29280  0.62750  Biso   1.000  N
  N15      1.0000 0.30170  0.44140  0.52340  Biso   1.000  N
  N16      1.0000 0.69830  0.55860  0.47660  Biso   1.000  N
  N17      1.0000 0.27900  0.30090  0.55100  Biso   1.000  N
  N18      1.0000 0.72100  0.69910  0.44900  Biso   1.000  N
  N19      1.0000 0.25800  0.16350  0.56950  Biso   1.000  N
  N20      1.0000 0.74200  0.83650  0.43050  Biso   1.000  N
  N21      1.0000 0.44600  0.50350  0.22600  Biso   1.000  N
  N22      1.0000 0.55400  0.49650  0.77400  Biso   1.000  N
  N23      1.0000 0.53640  0.57830  0.16550  Biso   1.000  N
  N24      1.0000 0.46360  0.42170  0.83450  Biso   1.000  N
  N25      1.0000 0.61260  0.65450  0.10340  Biso   1.000  N
  N26      1.0000 0.38740  0.34550  0.89660  Biso   1.000  N
