data_image0
_cell_length_a       6.148
_cell_length_b       27.973
_cell_length_c       9.975
_cell_angle_alpha    90
_cell_angle_beta     90
_cell_angle_gamma    90

_symmetry_space_group_name_H-M    "P 1"
_symmetry_int_tables_number       1

loop_
  _symmetry_equiv_pos_as_xyz
  'x, y, z'

loop_
  _atom_site_label
  _atom_site_occupancy
  _atom_site_fract_x
  _atom_site_fract_y
  _atom_site_fract_z
  _atom_site_thermal_displace_type
  _atom_site_B_iso_or_equiv
  _atom_site_type_symbol
  Cu1      1.0000 0.50000  0.50000  0.50000  Biso   1.000  Cu
  Cu2      1.0000 0.00000  0.50000  0.00000  Biso   1.000  Cu
  Cu3      1.0000 0.00000  0.00000  0.00000  Biso   1.000  Cu
  Cu4      1.0000 0.50000  0.00000  0.50000  Biso   1.000  Cu
  C1       1.0000 0.52960  0.40150  0.40730  Biso   1.000  C
  C2       1.0000 0.97040  0.59850  0.90730  Biso   1.000  C
  C3       1.0000 0.02960  0.09850  0.09270  Biso   1.000  C
  C4       1.0000 0.47040  0.90150  0.59270  Biso   1.000  C
  C5       1.0000 0.47040  0.59850  0.59270  Biso   1.000  C
  C6       1.0000 0.02960  0.40150  0.09270  Biso   1.000  C
  C7       1.0000 0.97040  0.90150  0.90730  Biso   1.000  C
  C8       1.0000 0.52960  0.09850  0.40730  Biso   1.000  C
  H1       1.0000 0.67080  0.41110  0.38770  Biso   1.000  H
  H2       1.0000 0.82920  0.58890  0.88770  Biso   1.000  H
  H3       1.0000 0.17080  0.08890  0.11230  Biso   1.000  H
  H4       1.0000 0.32920  0.91110  0.61230  Biso   1.000  H
  H5       1.0000 0.32920  0.58890  0.61230  Biso   1.000  H
  H6       1.0000 0.17080  0.41110  0.11230  Biso   1.000  H
  H7       1.0000 0.82920  0.91110  0.88770  Biso   1.000  H
  H8       1.0000 0.67080  0.08890  0.38770  Biso   1.000  H
  C9       1.0000 0.47570  0.35380  0.39240  Biso   1.000  C
  C10      1.0000 0.02430  0.64620  0.89240  Biso   1.000  C
  C11      1.0000 0.97570  0.14620  0.10760  Biso   1.000  C
  C12      1.0000 0.52430  0.85380  0.60760  Biso   1.000  C
  C13      1.0000 0.52430  0.64620  0.60760  Biso   1.000  C
  C14      1.0000 0.97570  0.35380  0.10760  Biso   1.000  C
  C15      1.0000 0.02430  0.85380  0.89240  Biso   1.000  C
  C16      1.0000 0.47570  0.14620  0.39240  Biso   1.000  C
  H9       1.0000 0.57980  0.33190  0.36410  Biso   1.000  H
  H10      1.0000 0.92020  0.66810  0.86410  Biso   1.000  H
  H11      1.0000 0.07980  0.16810  0.13590  Biso   1.000  H
  H12      1.0000 0.42020  0.83190  0.63590  Biso   1.000  H
  H13      1.0000 0.42020  0.66810  0.63590  Biso   1.000  H
  H14      1.0000 0.07980  0.33190  0.13590  Biso   1.000  H
  H15      1.0000 0.92020  0.83190  0.86410  Biso   1.000  H
  H16      1.0000 0.57980  0.16810  0.36410  Biso   1.000  H
  C17      1.0000 0.26570  0.33890  0.42010  Biso   1.000  C
  C18      1.0000 0.23430  0.66110  0.92010  Biso   1.000  C
  C19      1.0000 0.76570  0.16110  0.07990  Biso   1.000  C
  C20      1.0000 0.73430  0.83890  0.57990  Biso   1.000  C
  C21      1.0000 0.73430  0.66110  0.57990  Biso   1.000  C
  C22      1.0000 0.76570  0.33890  0.07990  Biso   1.000  C
  C23      1.0000 0.23430  0.83890  0.92010  Biso   1.000  C
  C24      1.0000 0.26570  0.16110  0.42010  Biso   1.000  C
  C25      1.0000 0.11790  0.37310  0.46180  Biso   1.000  C
  C26      1.0000 0.38210  0.62690  0.96180  Biso   1.000  C
  C27      1.0000 0.61790  0.12690  0.03820  Biso   1.000  C
  C28      1.0000 0.88210  0.87310  0.53820  Biso   1.000  C
  C29      1.0000 0.88210  0.62690  0.53820  Biso   1.000  C
  C30      1.0000 0.61790  0.37310  0.03820  Biso   1.000  C
  C31      1.0000 0.38210  0.87310  0.96180  Biso   1.000  C
  C32      1.0000 0.11790  0.12690  0.46180  Biso   1.000  C
  H17      1.0000 0.97560  0.36430  0.48180  Biso   1.000  H
  H18      1.0000 0.52440  0.63570  0.98180  Biso   1.000  H
  H19      1.0000 0.47560  0.13570  0.01820  Biso   1.000  H
  H20      1.0000 0.02440  0.86430  0.51820  Biso   1.000  H
  H21      1.0000 0.02440  0.63570  0.51820  Biso   1.000  H
  H22      1.0000 0.47560  0.36430  0.01820  Biso   1.000  H
  H23      1.0000 0.52440  0.86430  0.98180  Biso   1.000  H
  H24      1.0000 0.97560  0.13570  0.48180  Biso   1.000  H
  C33      1.0000 0.18140  0.42010  0.47390  Biso   1.000  C
  C34      1.0000 0.31860  0.57990  0.97390  Biso   1.000  C
  C35      1.0000 0.68140  0.07990  0.02610  Biso   1.000  C
  C36      1.0000 0.81860  0.92010  0.52610  Biso   1.000  C
  C37      1.0000 0.81860  0.57990  0.52610  Biso   1.000  C
  C38      1.0000 0.68140  0.42010  0.02610  Biso   1.000  C
  C39      1.0000 0.31860  0.92010  0.97390  Biso   1.000  C
  C40      1.0000 0.18140  0.07990  0.47390  Biso   1.000  C
  H25      1.0000 0.07910  0.44280  0.50020  Biso   1.000  H
  H26      1.0000 0.42090  0.55720  0.00020  Biso   1.000  H
  H27      1.0000 0.57910  0.05720  0.99980  Biso   1.000  H
  H28      1.0000 0.92090  0.94280  0.49980  Biso   1.000  H
  H29      1.0000 0.92090  0.55720  0.49980  Biso   1.000  H
  H30      1.0000 0.57910  0.44280  0.99980  Biso   1.000  H
  H31      1.0000 0.42090  0.94280  0.00020  Biso   1.000  H
  H32      1.0000 0.07910  0.05720  0.50020  Biso   1.000  H
  C41      1.0000 0.19810  0.28870  0.40890  Biso   1.000  C
  C42      1.0000 0.30190  0.71130  0.90890  Biso   1.000  C
  C43      1.0000 0.69810  0.21130  0.09110  Biso   1.000  C
  C44      1.0000 0.80190  0.78870  0.59110  Biso   1.000  C
  C45      1.0000 0.80190  0.71130  0.59110  Biso   1.000  C
  C46      1.0000 0.69810  0.28870  0.09110  Biso   1.000  C
  C47      1.0000 0.30190  0.78870  0.90890  Biso   1.000  C
  C48      1.0000 0.19810  0.21130  0.40890  Biso   1.000  C
  N1       1.0000 0.28220  0.50530  0.64560  Biso   1.000  N
  N2       1.0000 0.21780  0.49470  0.14560  Biso   1.000  N
  N3       1.0000 0.78220  0.99470  0.85440  Biso   1.000  N
  N4       1.0000 0.71780  0.00530  0.35440  Biso   1.000  N
  N5       1.0000 0.71780  0.49470  0.35440  Biso   1.000  N
  N6       1.0000 0.78220  0.50530  0.85440  Biso   1.000  N
  N7       1.0000 0.21780  0.00530  0.14560  Biso   1.000  N
  N8       1.0000 0.28220  0.99470  0.64560  Biso   1.000  N
  N9       1.0000 0.27340  0.47930  0.73720  Biso   1.000  N
  N10      1.0000 0.22660  0.52070  0.23720  Biso   1.000  N
  N11      1.0000 0.77340  0.02070  0.76280  Biso   1.000  N
  N12      1.0000 0.72660  0.97930  0.26280  Biso   1.000  N
  N13      1.0000 0.72660  0.52070  0.26280  Biso   1.000  N
  N14      1.0000 0.77340  0.47930  0.76280  Biso   1.000  N
  N15      1.0000 0.22660  0.97930  0.23720  Biso   1.000  N
  N16      1.0000 0.27340  0.02070  0.73720  Biso   1.000  N
  N17      1.0000 0.25000  0.45600  0.83260  Biso   1.000  N
  N18      1.0000 0.25000  0.54400  0.33260  Biso   1.000  N
  N19      1.0000 0.75000  0.04400  0.66740  Biso   1.000  N
  N20      1.0000 0.75000  0.95600  0.16740  Biso   1.000  N
  N21      1.0000 0.75000  0.54400  0.16740  Biso   1.000  N
  N22      1.0000 0.75000  0.45600  0.66740  Biso   1.000  N
  N23      1.0000 0.25000  0.95600  0.33260  Biso   1.000  N
  N24      1.0000 0.25000  0.04400  0.83260  Biso   1.000  N
  N25      1.0000 0.38650  0.43440  0.44880  Biso   1.000  N
  N26      1.0000 0.11350  0.56560  0.94880  Biso   1.000  N
  N27      1.0000 0.88650  0.06560  0.05120  Biso   1.000  N
  N28      1.0000 0.61350  0.93440  0.55120  Biso   1.000  N
  N29      1.0000 0.61350  0.56560  0.55120  Biso   1.000  N
  N30      1.0000 0.88650  0.43440  0.05120  Biso   1.000  N
  N31      1.0000 0.11350  0.93440  0.94880  Biso   1.000  N
  N32      1.0000 0.38650  0.06560  0.44880  Biso   1.000  N
  N33      1.0000 0.00540  0.27470  0.37040  Biso   1.000  N
  N34      1.0000 0.49460  0.72530  0.87040  Biso   1.000  N
  N35      1.0000 0.50540  0.22530  0.12960  Biso   1.000  N
  N36      1.0000 0.99460  0.77470  0.62960  Biso   1.000  N
  N37      1.0000 0.99460  0.72530  0.62960  Biso   1.000  N
  N38      1.0000 0.50540  0.27470  0.12960  Biso   1.000  N
  N39      1.0000 0.49460  0.77470  0.87040  Biso   1.000  N
  N40      1.0000 0.00540  0.22530  0.37040  Biso   1.000  N
  N41      1.0000 0.32650  0.25000  0.43260  Biso   1.000  N
  N42      1.0000 0.17350  0.75000  0.93260  Biso   1.000  N
  N43      1.0000 0.82650  0.25000  0.06740  Biso   1.000  N
  N44      1.0000 0.67350  0.75000  0.56740  Biso   1.000  N
  N45      1.0000 0.53870  0.25000  0.49130  Biso   1.000  N
  N46      1.0000 0.96130  0.75000  0.99130  Biso   1.000  N
  N47      1.0000 0.03870  0.25000  0.00870  Biso   1.000  N
  N48      1.0000 0.46130  0.75000  0.50870  Biso   1.000  N
  H33      1.0000 0.60580  0.27770  0.51050  Biso   1.000  H
  H34      1.0000 0.89420  0.72230  0.01050  Biso   1.000  H
  H35      1.0000 0.10580  0.22230  0.98950  Biso   1.000  H
  H36      1.0000 0.39420  0.77770  0.48950  Biso   1.000  H
  H37      1.0000 0.39420  0.72230  0.48950  Biso   1.000  H
  H38      1.0000 0.10580  0.27770  0.98950  Biso   1.000  H
  H39      1.0000 0.89420  0.77770  0.01050  Biso   1.000  H
  H40      1.0000 0.60580  0.22230  0.51050  Biso   1.000  H
  O1       1.0000 0.68200  0.15890  0.71100  Biso   1.000  O
  O2       1.0000 0.81800  0.84110  0.21100  Biso   1.000  O
  O3       1.0000 0.18200  0.34110  0.78900  Biso   1.000  O
  O4       1.0000 0.31800  0.65890  0.28900  Biso   1.000  O
  O5       1.0000 0.31800  0.84110  0.28900  Biso   1.000  O
  O6       1.0000 0.18200  0.15890  0.78900  Biso   1.000  O
  O7       1.0000 0.81800  0.65890  0.21100  Biso   1.000  O
  O8       1.0000 0.68200  0.34110  0.71100  Biso   1.000  O
  O9       1.0000 0.92700  0.29900  0.74300  Biso   1.000  O
  O10      1.0000 0.57300  0.70100  0.24300  Biso   1.000  O
  O11      1.0000 0.42700  0.20100  0.75700  Biso   1.000  O
  O12      1.0000 0.07300  0.79900  0.25700  Biso   1.000  O
  O13      1.0000 0.07300  0.70100  0.25700  Biso   1.000  O
  O14      1.0000 0.42700  0.29900  0.75700  Biso   1.000  O
  O15      1.0000 0.57300  0.79900  0.24300  Biso   1.000  O
  O16      1.0000 0.92700  0.20100  0.74300  Biso   1.000  O
