data_image0
_cell_length_a       6.3962
_cell_length_b       9.2177
_cell_length_c       14.241
_cell_angle_alpha    90
_cell_angle_beta     93.831
_cell_angle_gamma    90

_symmetry_space_group_name_H-M    "P 1"
_symmetry_int_tables_number       1

loop_
  _symmetry_equiv_pos_as_xyz
  'x, y, z'

loop_
  _atom_site_label
  _atom_site_occupancy
  _atom_site_fract_x
  _atom_site_fract_y
  _atom_site_fract_z
  _atom_site_thermal_displace_type
  _atom_site_B_iso_or_equiv
  _atom_site_type_symbol
  Cu1      1.0000 0.06656  0.63014  0.74968  Biso   1.000  Cu
  Cu2      1.0000 0.43344  0.13014  0.75032  Biso   1.000  Cu
  Cu3      1.0000 0.93344  0.36986  0.25032  Biso   1.000  Cu
  Cu4      1.0000 0.56656  0.86986  0.24968  Biso   1.000  Cu
  N1       1.0000 0.07180  0.69250  0.61707  Biso   1.000  N
  N2       1.0000 0.42820  0.19250  0.88293  Biso   1.000  N
  N3       1.0000 0.92820  0.30750  0.38293  Biso   1.000  N
  N4       1.0000 0.57180  0.80750  0.11707  Biso   1.000  N
  N5       1.0000 0.15940  0.81820  0.49832  Biso   1.000  N
  N6       1.0000 0.34060  0.31820  0.00168  Biso   1.000  N
  N7       1.0000 0.84060  0.18180  0.50168  Biso   1.000  N
  N8       1.0000 0.65940  0.68180  0.99832  Biso   1.000  N
  N9       1.0000 0.21900  0.78170  0.58364  Biso   1.000  N
  N10      1.0000 0.28100  0.28170  0.91636  Biso   1.000  N
  N11      1.0000 0.78100  0.21830  0.41636  Biso   1.000  N
  N12      1.0000 0.71900  0.71830  0.08364  Biso   1.000  N
  C1       1.0000 0.92670  0.68000  0.54640  Biso   1.000  C
  C2       1.0000 0.57330  0.18000  0.95360  Biso   1.000  C
  C3       1.0000 0.07330  0.32000  0.45360  Biso   1.000  C
  C4       1.0000 0.42670  0.82000  0.04640  Biso   1.000  C
  N13      1.0000 0.97360  0.75540  0.47185  Biso   1.000  N
  N14      1.0000 0.52640  0.25540  0.02815  Biso   1.000  N
  N15      1.0000 0.02640  0.24460  0.52815  Biso   1.000  N
  N16      1.0000 0.47360  0.74460  0.97185  Biso   1.000  N
  N17      1.0000 0.74760  0.59890  0.54856  Biso   1.000  N
  N18      1.0000 0.75240  0.09890  0.95144  Biso   1.000  N
  N19      1.0000 0.25240  0.40110  0.45144  Biso   1.000  N
  N20      1.0000 0.24760  0.90110  0.04856  Biso   1.000  N
  O1       1.0000 0.04230  0.56530  0.88331  Biso   1.000  O
  O2       1.0000 0.45770  0.06530  0.61669  Biso   1.000  O
  O3       1.0000 0.95770  0.43470  0.11669  Biso   1.000  O
  O4       1.0000 0.54230  0.93470  0.38331  Biso   1.000  O
  O5       1.0000 0.37420  0.67310  0.77267  Biso   1.000  O
  O6       1.0000 0.12580  0.17310  0.72733  Biso   1.000  O
  O7       1.0000 0.62580  0.32690  0.22733  Biso   1.000  O
  O8       1.0000 0.87420  0.82690  0.27267  Biso   1.000  O
  N21      1.0000 0.57190  0.35210  0.70619  Biso   1.000  N
  N22      1.0000 0.92810  0.85210  0.79381  Biso   1.000  N
  N23      1.0000 0.42810  0.64790  0.29381  Biso   1.000  N
  N24      1.0000 0.07190  0.14790  0.20619  Biso   1.000  N
  N25      1.0000 0.82040  0.50970  0.70498  Biso   1.000  N
  N26      1.0000 0.67960  0.00970  0.79502  Biso   1.000  N
  N27      1.0000 0.17960  0.49030  0.29502  Biso   1.000  N
  N28      1.0000 0.32040  0.99030  0.20498  Biso   1.000  N
  C5       1.0000 0.70760  0.51110  0.62231  Biso   1.000  C
  C6       1.0000 0.79240  0.01110  0.87769  Biso   1.000  C
  C7       1.0000 0.29240  0.48890  0.37769  Biso   1.000  C
  C8       1.0000 0.20760  0.98890  0.12231  Biso   1.000  C
  N29      1.0000 0.55150  0.41630  0.62019  Biso   1.000  N
  N30      1.0000 0.94850  0.91630  0.87981  Biso   1.000  N
  N31      1.0000 0.44850  0.58370  0.37981  Biso   1.000  N
  N32      1.0000 0.05150  0.08370  0.12019  Biso   1.000  N
  N33      1.0000 0.72980  0.40590  0.75675  Biso   1.000  N
  N34      1.0000 0.77020  0.90590  0.74325  Biso   1.000  N
  N35      1.0000 0.27020  0.59410  0.24325  Biso   1.000  N
  N36      1.0000 0.22980  0.09410  0.25675  Biso   1.000  N
  H1       1.0000 0.67700  0.60200  0.50700  Biso   1.000  H
  H2       1.0000 0.82300  0.10200  0.99300  Biso   1.000  H
  H3       1.0000 0.32300  0.39800  0.49300  Biso   1.000  H
  H4       1.0000 0.17700  0.89800  0.00700  Biso   1.000  H
  H5       1.0000 0.17700  0.60000  0.93000  Biso   1.000  H
  H6       1.0000 0.32300  0.10000  0.57000  Biso   1.000  H
  H7       1.0000 0.82300  0.40000  0.07000  Biso   1.000  H
  H8       1.0000 0.67700  0.90000  0.43000  Biso   1.000  H
  H9       1.0000 0.90600  0.60900  0.90700  Biso   1.000  H
  H10      1.0000 0.59400  0.10900  0.59300  Biso   1.000  H
  H11      1.0000 0.09400  0.39100  0.09300  Biso   1.000  H
  H12      1.0000 0.40600  0.89100  0.40700  Biso   1.000  H
  H13      1.0000 0.41900  0.72200  0.83800  Biso   1.000  H
  H14      1.0000 0.08100  0.22200  0.66200  Biso   1.000  H
  H15      1.0000 0.58100  0.27800  0.16200  Biso   1.000  H
  H16      1.0000 0.91900  0.77800  0.33800  Biso   1.000  H
  H17      1.0000 0.48700  0.59700  0.75700  Biso   1.000  H
  H18      1.0000 0.01300  0.09700  0.74300  Biso   1.000  H
  H19      1.0000 0.51300  0.40300  0.24300  Biso   1.000  H
  H20      1.0000 0.98700  0.90300  0.25700  Biso   1.000  H
