data_image0
_cell_length_a       22.062
_cell_length_b       11.0025
_cell_length_c       13.1831
_cell_angle_alpha    90
_cell_angle_beta     91.7568
_cell_angle_gamma    90

_symmetry_space_group_name_H-M    "P 1"
_symmetry_int_tables_number       1

loop_
  _symmetry_equiv_pos_as_xyz
  'x, y, z'

loop_
  _atom_site_label
  _atom_site_occupancy
  _atom_site_fract_x
  _atom_site_fract_y
  _atom_site_fract_z
  _atom_site_thermal_displace_type
  _atom_site_B_iso_or_equiv
  _atom_site_type_symbol
  Cu1      1.0000 0.92773  0.32914  0.38335  Biso   1.000  Cu
  Cu2      1.0000 0.07227  0.32914  0.11665  Biso   1.000  Cu
  Cu3      1.0000 0.42773  0.82914  0.38335  Biso   1.000  Cu
  Cu4      1.0000 0.57227  0.82914  0.11665  Biso   1.000  Cu
  Cu5      1.0000 0.07227  0.67086  0.61665  Biso   1.000  Cu
  Cu6      1.0000 0.92773  0.67086  0.88335  Biso   1.000  Cu
  Cu7      1.0000 0.57227  0.17086  0.61665  Biso   1.000  Cu
  Cu8      1.0000 0.42773  0.17086  0.88335  Biso   1.000  Cu
  O1       1.0000 0.93299  0.50990  0.38094  Biso   1.000  O
  O2       1.0000 0.06701  0.50990  0.11906  Biso   1.000  O
  O3       1.0000 0.43299  0.00990  0.38094  Biso   1.000  O
  O4       1.0000 0.56701  0.00990  0.11906  Biso   1.000  O
  O5       1.0000 0.06701  0.49010  0.61906  Biso   1.000  O
  O6       1.0000 0.93299  0.49010  0.88094  Biso   1.000  O
  O7       1.0000 0.56701  0.99010  0.61906  Biso   1.000  O
  O8       1.0000 0.43299  0.99010  0.88094  Biso   1.000  O
  C1       1.0000 0.94180  0.56510  0.29730  Biso   1.000  C
  C2       1.0000 0.05820  0.56510  0.20270  Biso   1.000  C
  C3       1.0000 0.44180  0.06510  0.29730  Biso   1.000  C
  C4       1.0000 0.55820  0.06510  0.20270  Biso   1.000  C
  C5       1.0000 0.05820  0.43490  0.70270  Biso   1.000  C
  C6       1.0000 0.94180  0.43490  0.79730  Biso   1.000  C
  C7       1.0000 0.55820  0.93490  0.70270  Biso   1.000  C
  C8       1.0000 0.44180  0.93490  0.79730  Biso   1.000  C
  O9       1.0000 0.93571  0.51930  0.21122  Biso   1.000  O
  O10      1.0000 0.06429  0.51930  0.28878  Biso   1.000  O
  O11      1.0000 0.43571  0.01930  0.21122  Biso   1.000  O
  O12      1.0000 0.56429  0.01930  0.28878  Biso   1.000  O
  O13      1.0000 0.06429  0.48070  0.78878  Biso   1.000  O
  O14      1.0000 0.93571  0.48070  0.71122  Biso   1.000  O
  O15      1.0000 0.56429  0.98070  0.78878  Biso   1.000  O
  O16      1.0000 0.43571  0.98070  0.71122  Biso   1.000  O
  C9       1.0000 0.95464  0.69960  0.30580  Biso   1.000  C
  C10      1.0000 0.04536  0.69960  0.19420  Biso   1.000  C
  C11      1.0000 0.45464  0.19960  0.30580  Biso   1.000  C
  C12      1.0000 0.54536  0.19960  0.19420  Biso   1.000  C
  C13      1.0000 0.04536  0.30040  0.69420  Biso   1.000  C
  C14      1.0000 0.95464  0.30040  0.80580  Biso   1.000  C
  C15      1.0000 0.54536  0.80040  0.69420  Biso   1.000  C
  C16      1.0000 0.45464  0.80040  0.80580  Biso   1.000  C
  C17      1.0000 0.91433  0.76400  0.36290  Biso   1.000  C
  C18      1.0000 0.08567  0.76400  0.13710  Biso   1.000  C
  C19      1.0000 0.41433  0.26400  0.36290  Biso   1.000  C
  C20      1.0000 0.58567  0.26400  0.13710  Biso   1.000  C
  C21      1.0000 0.08567  0.23600  0.63710  Biso   1.000  C
  C22      1.0000 0.91433  0.23600  0.86290  Biso   1.000  C
  C23      1.0000 0.58567  0.73600  0.63710  Biso   1.000  C
  C24      1.0000 0.41433  0.73600  0.86290  Biso   1.000  C
  H1       1.0000 0.88630  0.72170  0.40330  Biso   1.000  H
  H2       1.0000 0.11370  0.72170  0.09670  Biso   1.000  H
  H3       1.0000 0.38630  0.22170  0.40330  Biso   1.000  H
  H4       1.0000 0.61370  0.22170  0.09670  Biso   1.000  H
  H5       1.0000 0.11370  0.27830  0.59670  Biso   1.000  H
  H6       1.0000 0.88630  0.27830  0.90330  Biso   1.000  H
  H7       1.0000 0.61370  0.77830  0.59670  Biso   1.000  H
  H8       1.0000 0.38630  0.77830  0.90330  Biso   1.000  H
  C25      1.0000 0.91445  0.89150  0.36200  Biso   1.000  C
  C26      1.0000 0.08555  0.89150  0.13800  Biso   1.000  C
  C27      1.0000 0.41445  0.39150  0.36200  Biso   1.000  C
  C28      1.0000 0.58555  0.39150  0.13800  Biso   1.000  C
  C29      1.0000 0.08555  0.10850  0.63800  Biso   1.000  C
  C30      1.0000 0.91445  0.10850  0.86200  Biso   1.000  C
  C31      1.0000 0.58555  0.60850  0.63800  Biso   1.000  C
  C32      1.0000 0.41445  0.60850  0.86200  Biso   1.000  C
  H9       1.0000 0.88630  0.93420  0.40190  Biso   1.000  H
  H10      1.0000 0.11370  0.93420  0.09810  Biso   1.000  H
  H11      1.0000 0.38630  0.43420  0.40190  Biso   1.000  H
  H12      1.0000 0.61370  0.43420  0.09810  Biso   1.000  H
  H13      1.0000 0.11370  0.06580  0.59810  Biso   1.000  H
  H14      1.0000 0.88630  0.06580  0.90190  Biso   1.000  H
  H15      1.0000 0.61370  0.56580  0.59810  Biso   1.000  H
  H16      1.0000 0.38630  0.56580  0.90190  Biso   1.000  H
  C33      1.0000 0.95405  0.95530  0.30500  Biso   1.000  C
  C34      1.0000 0.04595  0.95530  0.19500  Biso   1.000  C
  C35      1.0000 0.45405  0.45530  0.30500  Biso   1.000  C
  C36      1.0000 0.54595  0.45530  0.19500  Biso   1.000  C
  C37      1.0000 0.04595  0.04470  0.69500  Biso   1.000  C
  C38      1.0000 0.95405  0.04470  0.80500  Biso   1.000  C
  C39      1.0000 0.54595  0.54470  0.69500  Biso   1.000  C
  C40      1.0000 0.45405  0.54470  0.80500  Biso   1.000  C
  C41      1.0000 0.00000  0.89240  0.25000  Biso   1.000  C
  C42      1.0000 0.50000  0.39240  0.25000  Biso   1.000  C
  C43      1.0000 0.00000  0.10760  0.75000  Biso   1.000  C
  C44      1.0000 0.50000  0.60760  0.75000  Biso   1.000  C
  C45      1.0000 0.00000  0.76160  0.25000  Biso   1.000  C
  C46      1.0000 0.50000  0.26160  0.25000  Biso   1.000  C
  C47      1.0000 0.00000  0.23840  0.75000  Biso   1.000  C
  C48      1.0000 0.50000  0.73840  0.75000  Biso   1.000  C
  C49      1.0000 0.94134  0.08950  0.29260  Biso   1.000  C
  C50      1.0000 0.05866  0.08950  0.20740  Biso   1.000  C
  C51      1.0000 0.44134  0.58950  0.29260  Biso   1.000  C
  C52      1.0000 0.55866  0.58950  0.20740  Biso   1.000  C
  C53      1.0000 0.05866  0.91050  0.70740  Biso   1.000  C
  C54      1.0000 0.94134  0.91050  0.79260  Biso   1.000  C
  C55      1.0000 0.55866  0.41050  0.70740  Biso   1.000  C
  C56      1.0000 0.44134  0.41050  0.79260  Biso   1.000  C
  O17      1.0000 0.93511  0.13080  0.20554  Biso   1.000  O
  O18      1.0000 0.06489  0.13080  0.29446  Biso   1.000  O
  O19      1.0000 0.43511  0.63080  0.20554  Biso   1.000  O
  O20      1.0000 0.56489  0.63080  0.29446  Biso   1.000  O
  O21      1.0000 0.06489  0.86920  0.79446  Biso   1.000  O
  O22      1.0000 0.93511  0.86920  0.70554  Biso   1.000  O
  O23      1.0000 0.56489  0.36920  0.79446  Biso   1.000  O
  O24      1.0000 0.43511  0.36920  0.70554  Biso   1.000  O
  O25      1.0000 0.93344  0.14840  0.37512  Biso   1.000  O
  O26      1.0000 0.06656  0.14840  0.12488  Biso   1.000  O
  O27      1.0000 0.43344  0.64840  0.37512  Biso   1.000  O
  O28      1.0000 0.56656  0.64840  0.12488  Biso   1.000  O
  O29      1.0000 0.06656  0.85160  0.62488  Biso   1.000  O
  O30      1.0000 0.93344  0.85160  0.87512  Biso   1.000  O
  O31      1.0000 0.56656  0.35160  0.62488  Biso   1.000  O
  O32      1.0000 0.43344  0.35160  0.87512  Biso   1.000  O
  N1       1.0000 0.83885  0.32700  0.34890  Biso   1.000  N
  N2       1.0000 0.16115  0.32700  0.15110  Biso   1.000  N
  N3       1.0000 0.33885  0.82700  0.34890  Biso   1.000  N
  N4       1.0000 0.66115  0.82700  0.15110  Biso   1.000  N
  N5       1.0000 0.16115  0.67300  0.65110  Biso   1.000  N
  N6       1.0000 0.83885  0.67300  0.84890  Biso   1.000  N
  N7       1.0000 0.66115  0.17300  0.65110  Biso   1.000  N
  N8       1.0000 0.33885  0.17300  0.84890  Biso   1.000  N
  C57      1.0000 0.80770  0.23230  0.30520  Biso   1.000  C
  C58      1.0000 0.19230  0.23230  0.19480  Biso   1.000  C
  C59      1.0000 0.30770  0.73230  0.30520  Biso   1.000  C
  C60      1.0000 0.69230  0.73230  0.19480  Biso   1.000  C
  C61      1.0000 0.19230  0.76770  0.69480  Biso   1.000  C
  C62      1.0000 0.80770  0.76770  0.80520  Biso   1.000  C
  C63      1.0000 0.69230  0.26770  0.69480  Biso   1.000  C
  C64      1.0000 0.30770  0.26770  0.80520  Biso   1.000  C
  H17      1.0000 0.83070  0.16520  0.28240  Biso   1.000  H
  H18      1.0000 0.16930  0.16520  0.21760  Biso   1.000  H
  H19      1.0000 0.33070  0.66520  0.28240  Biso   1.000  H
  H20      1.0000 0.66930  0.66520  0.21760  Biso   1.000  H
  H21      1.0000 0.16930  0.83480  0.71760  Biso   1.000  H
  H22      1.0000 0.83070  0.83480  0.78240  Biso   1.000  H
  H23      1.0000 0.66930  0.33480  0.71760  Biso   1.000  H
  H24      1.0000 0.33070  0.33480  0.78240  Biso   1.000  H
  C65      1.0000 0.74530  0.22640  0.29170  Biso   1.000  C
  C66      1.0000 0.25470  0.22640  0.20830  Biso   1.000  C
  C67      1.0000 0.24530  0.72640  0.29170  Biso   1.000  C
  C68      1.0000 0.75470  0.72640  0.20830  Biso   1.000  C
  C69      1.0000 0.25470  0.77360  0.70830  Biso   1.000  C
  C70      1.0000 0.74530  0.77360  0.79170  Biso   1.000  C
  C71      1.0000 0.75470  0.27360  0.70830  Biso   1.000  C
  C72      1.0000 0.24530  0.27360  0.79170  Biso   1.000  C
  H25      1.0000 0.72590  0.15540  0.26560  Biso   1.000  H
  H26      1.0000 0.27410  0.15540  0.23440  Biso   1.000  H
  H27      1.0000 0.22590  0.65540  0.26560  Biso   1.000  H
  H28      1.0000 0.77410  0.65540  0.23440  Biso   1.000  H
  H29      1.0000 0.27410  0.84460  0.73440  Biso   1.000  H
  H30      1.0000 0.72590  0.84460  0.76560  Biso   1.000  H
  H31      1.0000 0.77410  0.34460  0.73440  Biso   1.000  H
  H32      1.0000 0.22590  0.34460  0.76560  Biso   1.000  H
  C73      1.0000 0.71285  0.32650  0.31720  Biso   1.000  C
  C74      1.0000 0.28715  0.32650  0.18280  Biso   1.000  C
  C75      1.0000 0.21285  0.82650  0.31720  Biso   1.000  C
  C76      1.0000 0.78715  0.82650  0.18280  Biso   1.000  C
  C77      1.0000 0.28715  0.67350  0.68280  Biso   1.000  C
  C78      1.0000 0.71285  0.67350  0.81720  Biso   1.000  C
  C79      1.0000 0.78715  0.17350  0.68280  Biso   1.000  C
  C80      1.0000 0.21285  0.17350  0.81720  Biso   1.000  C
  H33      1.0000 0.67060  0.32890  0.30130  Biso   1.000  H
  H34      1.0000 0.32940  0.32890  0.19870  Biso   1.000  H
  H35      1.0000 0.17060  0.82890  0.30130  Biso   1.000  H
  H36      1.0000 0.82940  0.82890  0.19870  Biso   1.000  H
  H37      1.0000 0.32940  0.67110  0.69870  Biso   1.000  H
  H38      1.0000 0.67060  0.67110  0.80130  Biso   1.000  H
  H39      1.0000 0.82940  0.17110  0.69870  Biso   1.000  H
  H40      1.0000 0.17060  0.17110  0.80130  Biso   1.000  H
  C81      1.0000 0.74070  0.42780  0.36730  Biso   1.000  C
  C82      1.0000 0.25930  0.42780  0.13270  Biso   1.000  C
  C83      1.0000 0.24070  0.92780  0.36730  Biso   1.000  C
  C84      1.0000 0.75930  0.92780  0.13270  Biso   1.000  C
  C85      1.0000 0.25930  0.57220  0.63270  Biso   1.000  C
  C86      1.0000 0.74070  0.57220  0.86730  Biso   1.000  C
  C87      1.0000 0.75930  0.07220  0.63270  Biso   1.000  C
  C88      1.0000 0.24070  0.07220  0.86730  Biso   1.000  C
  H41      1.0000 0.71730  0.49420  0.39040  Biso   1.000  H
  H42      1.0000 0.28270  0.49420  0.10960  Biso   1.000  H
  H43      1.0000 0.21730  0.99420  0.39040  Biso   1.000  H
  H44      1.0000 0.78270  0.99420  0.10960  Biso   1.000  H
  H45      1.0000 0.28270  0.50580  0.60960  Biso   1.000  H
  H46      1.0000 0.71730  0.50580  0.89040  Biso   1.000  H
  H47      1.0000 0.78270  0.00580  0.60960  Biso   1.000  H
  H48      1.0000 0.21730  0.00580  0.89040  Biso   1.000  H
  C89      1.0000 0.80400  0.42550  0.38130  Biso   1.000  C
  C90      1.0000 0.19600  0.42550  0.11870  Biso   1.000  C
  C91      1.0000 0.30400  0.92550  0.38130  Biso   1.000  C
  C92      1.0000 0.69600  0.92550  0.11870  Biso   1.000  C
  C93      1.0000 0.19600  0.57450  0.61870  Biso   1.000  C
  C94      1.0000 0.80400  0.57450  0.88130  Biso   1.000  C
  C95      1.0000 0.69600  0.07450  0.61870  Biso   1.000  C
  C96      1.0000 0.30400  0.07450  0.88130  Biso   1.000  C
  H49      1.0000 0.82370  0.49250  0.41360  Biso   1.000  H
  H50      1.0000 0.17630  0.49250  0.08640  Biso   1.000  H
  H51      1.0000 0.32370  0.99250  0.41360  Biso   1.000  H
  H52      1.0000 0.67630  0.99250  0.08640  Biso   1.000  H
  H53      1.0000 0.17630  0.50750  0.58640  Biso   1.000  H
  H54      1.0000 0.82370  0.50750  0.91360  Biso   1.000  H
  H55      1.0000 0.67630  0.00750  0.58640  Biso   1.000  H
  H56      1.0000 0.32370  0.00750  0.91360  Biso   1.000  H
  O33      1.0000 0.01615  0.33170  0.41420  Biso   1.000  O
  O34      1.0000 0.98385  0.33170  0.08580  Biso   1.000  O
  O35      1.0000 0.51615  0.83170  0.41420  Biso   1.000  O
  O36      1.0000 0.48385  0.83170  0.08580  Biso   1.000  O
  O37      1.0000 0.98385  0.66830  0.58580  Biso   1.000  O
  O38      1.0000 0.01615  0.66830  0.91420  Biso   1.000  O
  O39      1.0000 0.48385  0.16830  0.58580  Biso   1.000  O
  O40      1.0000 0.51615  0.16830  0.91420  Biso   1.000  O
  H57      1.0000 0.03670  0.26060  0.40760  Biso   1.000  H
  H58      1.0000 0.96330  0.26060  0.09240  Biso   1.000  H
  H59      1.0000 0.53670  0.76060  0.40760  Biso   1.000  H
  H60      1.0000 0.46330  0.76060  0.09240  Biso   1.000  H
  H61      1.0000 0.96330  0.73940  0.59240  Biso   1.000  H
  H62      1.0000 0.03670  0.73940  0.90760  Biso   1.000  H
  H63      1.0000 0.46330  0.23940  0.59240  Biso   1.000  H
  H64      1.0000 0.53670  0.23940  0.90760  Biso   1.000  H
  H65      1.0000 0.03780  0.38490  0.37650  Biso   1.000  H
  H66      1.0000 0.96220  0.38490  0.12350  Biso   1.000  H
  H67      1.0000 0.53780  0.88490  0.37650  Biso   1.000  H
  H68      1.0000 0.46220  0.88490  0.12350  Biso   1.000  H
  H69      1.0000 0.96220  0.61510  0.62350  Biso   1.000  H
  H70      1.0000 0.03780  0.61510  0.87650  Biso   1.000  H
  H71      1.0000 0.46220  0.11510  0.62350  Biso   1.000  H
  H72      1.0000 0.53780  0.11510  0.87650  Biso   1.000  H
  O41      1.0000 0.90395  0.32310  0.55177  Biso   1.000  O
  O42      1.0000 0.09605  0.32310  0.94823  Biso   1.000  O
  O43      1.0000 0.40395  0.82310  0.55177  Biso   1.000  O
  O44      1.0000 0.59605  0.82310  0.94823  Biso   1.000  O
  O45      1.0000 0.09605  0.67690  0.44823  Biso   1.000  O
  O46      1.0000 0.90395  0.67690  0.05177  Biso   1.000  O
  O47      1.0000 0.59605  0.17690  0.44823  Biso   1.000  O
  O48      1.0000 0.40395  0.17690  0.05177  Biso   1.000  O
  H73      1.0000 0.90540  0.24760  0.57660  Biso   1.000  H
  H74      1.0000 0.09460  0.24760  0.92340  Biso   1.000  H
  H75      1.0000 0.40540  0.74760  0.57660  Biso   1.000  H
  H76      1.0000 0.59460  0.74760  0.92340  Biso   1.000  H
  H77      1.0000 0.09460  0.75240  0.42340  Biso   1.000  H
  H78      1.0000 0.90540  0.75240  0.07660  Biso   1.000  H
  H79      1.0000 0.59460  0.25240  0.42340  Biso   1.000  H
  H80      1.0000 0.40540  0.25240  0.07660  Biso   1.000  H
  H81      1.0000 0.92470  0.36880  0.59700  Biso   1.000  H
  H82      1.0000 0.07530  0.36880  0.90300  Biso   1.000  H
  H83      1.0000 0.42470  0.86880  0.59700  Biso   1.000  H
  H84      1.0000 0.57530  0.86880  0.90300  Biso   1.000  H
  H85      1.0000 0.07530  0.63120  0.40300  Biso   1.000  H
  H86      1.0000 0.92470  0.63120  0.09700  Biso   1.000  H
  H87      1.0000 0.57530  0.13120  0.40300  Biso   1.000  H
  H88      1.0000 0.42470  0.13120  0.09700  Biso   1.000  H
  O49      1.0000 0.40470  0.43020  0.06890  Biso   1.000  O
  O50      1.0000 0.59530  0.43020  0.43110  Biso   1.000  O
  O51      1.0000 0.90470  0.93020  0.06890  Biso   1.000  O
  O52      1.0000 0.09530  0.93020  0.43110  Biso   1.000  O
  O53      1.0000 0.59530  0.56980  0.93110  Biso   1.000  O
  O54      1.0000 0.40470  0.56980  0.56890  Biso   1.000  O
  O55      1.0000 0.09530  0.06980  0.93110  Biso   1.000  O
  O56      1.0000 0.90470  0.06980  0.56890  Biso   1.000  O
  H89      1.0000 0.42100  0.49530  0.10010  Biso   1.000  H
  H90      1.0000 0.57900  0.49530  0.39990  Biso   1.000  H
  H91      1.0000 0.92100  0.99530  0.10010  Biso   1.000  H
  H92      1.0000 0.07900  0.99530  0.39990  Biso   1.000  H
  H93      1.0000 0.57900  0.50470  0.89990  Biso   1.000  H
  H94      1.0000 0.42100  0.50470  0.60010  Biso   1.000  H
  H95      1.0000 0.07900  0.00470  0.89990  Biso   1.000  H
  H96      1.0000 0.92100  0.00470  0.60010  Biso   1.000  H
  H97      1.0000 0.42080  0.42240  0.00750  Biso   1.000  H
  H98      1.0000 0.57920  0.42240  0.49250  Biso   1.000  H
  H99      1.0000 0.92080  0.92240  0.00750  Biso   1.000  H
  H100     1.0000 0.07920  0.92240  0.49250  Biso   1.000  H
  H101     1.0000 0.57920  0.57760  0.99250  Biso   1.000  H
  H102     1.0000 0.42080  0.57760  0.50750  Biso   1.000  H
  H103     1.0000 0.07920  0.07760  0.99250  Biso   1.000  H
  H104     1.0000 0.92080  0.07760  0.50750  Biso   1.000  H
  C97      1.0000 0.26180  0.29330  0.50690  Biso   1.000  C
  C98      1.0000 0.73820  0.29330  0.99310  Biso   1.000  C
  C99      1.0000 0.76180  0.79330  0.50690  Biso   1.000  C
  C100     1.0000 0.23820  0.79330  0.99310  Biso   1.000  C
  C101     1.0000 0.73820  0.70670  0.49310  Biso   1.000  C
  C102     1.0000 0.26180  0.70670  0.00690  Biso   1.000  C
  C103     1.0000 0.23820  0.20670  0.49310  Biso   1.000  C
  C104     1.0000 0.76180  0.20670  0.00690  Biso   1.000  C
  H105     1.0000 0.26060  0.37910  0.49910  Biso   1.000  H
  H106     1.0000 0.73940  0.37910  0.00090  Biso   1.000  H
  H107     1.0000 0.76060  0.87910  0.49910  Biso   1.000  H
  H108     1.0000 0.23940  0.87910  0.00090  Biso   1.000  H
  H109     1.0000 0.73940  0.62090  0.50090  Biso   1.000  H
  H110     1.0000 0.26060  0.62090  0.99910  Biso   1.000  H
  H111     1.0000 0.23940  0.12090  0.50090  Biso   1.000  H
  H112     1.0000 0.76060  0.12090  0.99910  Biso   1.000  H
  C105     1.0000 0.30880  0.23580  0.56040  Biso   1.000  C
  C106     1.0000 0.69120  0.23580  0.93960  Biso   1.000  C
  C107     1.0000 0.80880  0.73580  0.56040  Biso   1.000  C
  C108     1.0000 0.19120  0.73580  0.93960  Biso   1.000  C
  C109     1.0000 0.69120  0.76420  0.43960  Biso   1.000  C
  C110     1.0000 0.30880  0.76420  0.06040  Biso   1.000  C
  C111     1.0000 0.19120  0.26420  0.43960  Biso   1.000  C
  C112     1.0000 0.80880  0.26420  0.06040  Biso   1.000  C
  H113     1.0000 0.33850  0.28540  0.59370  Biso   1.000  H
  H114     1.0000 0.66150  0.28540  0.90630  Biso   1.000  H
  H115     1.0000 0.83850  0.78540  0.59370  Biso   1.000  H
  H116     1.0000 0.16150  0.78540  0.90630  Biso   1.000  H
  H117     1.0000 0.66150  0.71460  0.40630  Biso   1.000  H
  H118     1.0000 0.33850  0.71460  0.09370  Biso   1.000  H
  H119     1.0000 0.16150  0.21460  0.40630  Biso   1.000  H
  H120     1.0000 0.83850  0.21460  0.09370  Biso   1.000  H
  C113     1.0000 0.31520  0.11160  0.56840  Biso   1.000  C
  C114     1.0000 0.68480  0.11160  0.93160  Biso   1.000  C
  C115     1.0000 0.81520  0.61160  0.56840  Biso   1.000  C
  C116     1.0000 0.18480  0.61160  0.93160  Biso   1.000  C
  C117     1.0000 0.68480  0.88840  0.43160  Biso   1.000  C
  C118     1.0000 0.31520  0.88840  0.06840  Biso   1.000  C
  C119     1.0000 0.18480  0.38840  0.43160  Biso   1.000  C
  C120     1.0000 0.81520  0.38840  0.06840  Biso   1.000  C
  H121     1.0000 0.34890  0.07490  0.60300  Biso   1.000  H
  H122     1.0000 0.65110  0.07490  0.89700  Biso   1.000  H
  H123     1.0000 0.84890  0.57490  0.60300  Biso   1.000  H
  H124     1.0000 0.15110  0.57490  0.89700  Biso   1.000  H
  H125     1.0000 0.65110  0.92510  0.39700  Biso   1.000  H
  H126     1.0000 0.34890  0.92510  0.10300  Biso   1.000  H
  H127     1.0000 0.15110  0.42510  0.39700  Biso   1.000  H
  H128     1.0000 0.84890  0.42510  0.10300  Biso   1.000  H
  C121     1.0000 0.26910  0.04420  0.52280  Biso   1.000  C
  C122     1.0000 0.73090  0.04420  0.97720  Biso   1.000  C
  C123     1.0000 0.76910  0.54420  0.52280  Biso   1.000  C
  C124     1.0000 0.23090  0.54420  0.97720  Biso   1.000  C
  C125     1.0000 0.73090  0.95580  0.47720  Biso   1.000  C
  C126     1.0000 0.26910  0.95580  0.02280  Biso   1.000  C
  C127     1.0000 0.23090  0.45580  0.47720  Biso   1.000  C
  C128     1.0000 0.76910  0.45580  0.02280  Biso   1.000  C
  H129     1.0000 0.26980  0.95810  0.52870  Biso   1.000  H
  H130     1.0000 0.73020  0.95810  0.97130  Biso   1.000  H
  H131     1.0000 0.76980  0.45810  0.52870  Biso   1.000  H
  H132     1.0000 0.23020  0.45810  0.97130  Biso   1.000  H
  H133     1.0000 0.73020  0.04190  0.47130  Biso   1.000  H
  H134     1.0000 0.26980  0.04190  0.02870  Biso   1.000  H
  H135     1.0000 0.23020  0.54190  0.47130  Biso   1.000  H
  H136     1.0000 0.76980  0.54190  0.02870  Biso   1.000  H
  C129     1.0000 0.22150  0.09910  0.46840  Biso   1.000  C
  C130     1.0000 0.77850  0.09910  0.03160  Biso   1.000  C
  C131     1.0000 0.72150  0.59910  0.46840  Biso   1.000  C
  C132     1.0000 0.27850  0.59910  0.03160  Biso   1.000  C
  C133     1.0000 0.77850  0.90090  0.53160  Biso   1.000  C
  C134     1.0000 0.22150  0.90090  0.96840  Biso   1.000  C
  C135     1.0000 0.27850  0.40090  0.53160  Biso   1.000  C
  C136     1.0000 0.72150  0.40090  0.96840  Biso   1.000  C
  H137     1.0000 0.19200  0.05130  0.43280  Biso   1.000  H
  H138     1.0000 0.80800  0.05130  0.06720  Biso   1.000  H
  H139     1.0000 0.69200  0.55130  0.43280  Biso   1.000  H
  H140     1.0000 0.30800  0.55130  0.06720  Biso   1.000  H
  H141     1.0000 0.80800  0.94870  0.56720  Biso   1.000  H
  H142     1.0000 0.19200  0.94870  0.93280  Biso   1.000  H
  H143     1.0000 0.30800  0.44870  0.56720  Biso   1.000  H
  H144     1.0000 0.69200  0.44870  0.93280  Biso   1.000  H
  N9       1.0000 0.21810  0.22140  0.46670  Biso   1.000  N
  N10      1.0000 0.78190  0.22140  0.03330  Biso   1.000  N
  N11      1.0000 0.71810  0.72140  0.46670  Biso   1.000  N
  N12      1.0000 0.28190  0.72140  0.03330  Biso   1.000  N
  N13      1.0000 0.78190  0.77860  0.53330  Biso   1.000  N
  N14      1.0000 0.21810  0.77860  0.96670  Biso   1.000  N
  N15      1.0000 0.28190  0.27860  0.53330  Biso   1.000  N
  N16      1.0000 0.71810  0.27860  0.96670  Biso   1.000  N
  C137     1.0000 0.19610  0.23850  0.10650  Biso   1.000  C
  C138     1.0000 0.80390  0.23850  0.39350  Biso   1.000  C
  C139     1.0000 0.69610  0.73850  0.10650  Biso   1.000  C
  C140     1.0000 0.30390  0.73850  0.39350  Biso   1.000  C
  C141     1.0000 0.80390  0.76150  0.89350  Biso   1.000  C
  C142     1.0000 0.19610  0.76150  0.60650  Biso   1.000  C
  C143     1.0000 0.30390  0.26150  0.89350  Biso   1.000  C
  C144     1.0000 0.69610  0.26150  0.60650  Biso   1.000  C
  C145     1.0000 0.25850  0.23390  0.12590  Biso   1.000  C
  C146     1.0000 0.74150  0.23390  0.37410  Biso   1.000  C
  C147     1.0000 0.75850  0.73390  0.12590  Biso   1.000  C
  C148     1.0000 0.24150  0.73390  0.37410  Biso   1.000  C
  C149     1.0000 0.74150  0.76610  0.87410  Biso   1.000  C
  C150     1.0000 0.25850  0.76610  0.62590  Biso   1.000  C
  C151     1.0000 0.24150  0.26610  0.87410  Biso   1.000  C
  C152     1.0000 0.75850  0.26610  0.62590  Biso   1.000  C
  C153     1.0000 0.25030  0.39550  0.24490  Biso   1.000  C
  C154     1.0000 0.74970  0.39550  0.25510  Biso   1.000  C
  C155     1.0000 0.75030  0.89550  0.24490  Biso   1.000  C
  C156     1.0000 0.24970  0.89550  0.25510  Biso   1.000  C
  C157     1.0000 0.74970  0.60450  0.75510  Biso   1.000  C
  C158     1.0000 0.25030  0.60450  0.74490  Biso   1.000  C
  C159     1.0000 0.24970  0.10450  0.75510  Biso   1.000  C
  C160     1.0000 0.75030  0.10450  0.74490  Biso   1.000  C
  C161     1.0000 0.18830  0.40010  0.22390  Biso   1.000  C
  C162     1.0000 0.81170  0.40010  0.27610  Biso   1.000  C
  C163     1.0000 0.68830  0.90010  0.22390  Biso   1.000  C
  C164     1.0000 0.31170  0.90010  0.27610  Biso   1.000  C
  C165     1.0000 0.81170  0.59990  0.77610  Biso   1.000  C
  C166     1.0000 0.18830  0.59990  0.72390  Biso   1.000  C
  C167     1.0000 0.31170  0.09990  0.77610  Biso   1.000  C
  C168     1.0000 0.68830  0.09990  0.72390  Biso   1.000  C
  H145     1.0000 0.17740  0.18040  0.06240  Biso   1.000  H
  H146     1.0000 0.82260  0.18040  0.43760  Biso   1.000  H
  H147     1.0000 0.67740  0.68040  0.06240  Biso   1.000  H
  H148     1.0000 0.32260  0.68040  0.43760  Biso   1.000  H
  H149     1.0000 0.82260  0.81960  0.93760  Biso   1.000  H
  H150     1.0000 0.17740  0.81960  0.56240  Biso   1.000  H
  H151     1.0000 0.32260  0.31960  0.93760  Biso   1.000  H
  H152     1.0000 0.67740  0.31960  0.56240  Biso   1.000  H
  H153     1.0000 0.28160  0.16820  0.10080  Biso   1.000  H
  H154     1.0000 0.71840  0.16820  0.39920  Biso   1.000  H
  H155     1.0000 0.78160  0.66820  0.10080  Biso   1.000  H
  H156     1.0000 0.21840  0.66820  0.39920  Biso   1.000  H
  H157     1.0000 0.71840  0.83180  0.89920  Biso   1.000  H
  H158     1.0000 0.28160  0.83180  0.60080  Biso   1.000  H
  H159     1.0000 0.21840  0.33180  0.89920  Biso   1.000  H
  H160     1.0000 0.78160  0.33180  0.60080  Biso   1.000  H
  H161     1.0000 0.26750  0.43890  0.30100  Biso   1.000  H
  H162     1.0000 0.73250  0.43890  0.19900  Biso   1.000  H
  H163     1.0000 0.76750  0.93890  0.30100  Biso   1.000  H
  H164     1.0000 0.23250  0.93890  0.19900  Biso   1.000  H
  H165     1.0000 0.73250  0.56110  0.69900  Biso   1.000  H
  H166     1.0000 0.26750  0.56110  0.80100  Biso   1.000  H
  H167     1.0000 0.23250  0.06110  0.69900  Biso   1.000  H
  H168     1.0000 0.76750  0.06110  0.80100  Biso   1.000  H
  H169     1.0000 0.16410  0.45500  0.26070  Biso   1.000  H
  H170     1.0000 0.83590  0.45500  0.23930  Biso   1.000  H
  H171     1.0000 0.66410  0.95500  0.26070  Biso   1.000  H
  H172     1.0000 0.33590  0.95500  0.23930  Biso   1.000  H
  H173     1.0000 0.83590  0.54500  0.73930  Biso   1.000  H
  H174     1.0000 0.16410  0.54500  0.76070  Biso   1.000  H
  H175     1.0000 0.33590  0.04500  0.73930  Biso   1.000  H
  H176     1.0000 0.66410  0.04500  0.76070  Biso   1.000  H
