data_image0
_cell_length_a       7.3367
_cell_length_b       8.0935
_cell_length_c       10.9671
_cell_angle_alpha    68.7292
_cell_angle_beta     75.1539
_cell_angle_gamma    70.66

_symmetry_space_group_name_H-M    "P 1"
_symmetry_int_tables_number       1

loop_
  _symmetry_equiv_pos_as_xyz
  'x, y, z'

loop_
  _atom_site_label
  _atom_site_occupancy
  _atom_site_fract_x
  _atom_site_fract_y
  _atom_site_fract_z
  _atom_site_thermal_displace_type
  _atom_site_B_iso_or_equiv
  _atom_site_type_symbol
  Cu1      1.0000 0.45318  0.23368  0.42749  Biso   1.000  Cu
  Cu2      1.0000 0.54682  0.76632  0.57251  Biso   1.000  Cu
  O1       1.0000 0.45250  0.05610  0.61110  Biso   1.000  O
  O2       1.0000 0.54750  0.94390  0.38890  Biso   1.000  O
  C1       1.0000 0.44040  0.13320  0.69670  Biso   1.000  C
  C2       1.0000 0.55960  0.86680  0.30330  Biso   1.000  C
  O3       1.0000 0.42440  0.30120  0.66850  Biso   1.000  O
  O4       1.0000 0.57560  0.69880  0.33150  Biso   1.000  O
  C3       1.0000 0.42710  0.02110  0.84080  Biso   1.000  C
  C4       1.0000 0.57290  0.97890  0.15920  Biso   1.000  C
  C5       1.0000 0.28540  0.92640  0.88880  Biso   1.000  C
  C6       1.0000 0.71460  0.07360  0.11120  Biso   1.000  C
  H1       1.0000 0.22690  0.90750  0.82880  Biso   1.000  H
  H2       1.0000 0.77310  0.09250  0.17120  Biso   1.000  H
  C7       1.0000 0.22700  0.85760  0.02570  Biso   1.000  C
  C8       1.0000 0.77300  0.14240  0.97430  Biso   1.000  C
  H3       1.0000 0.13140  0.79010  0.05720  Biso   1.000  H
  H4       1.0000 0.86860  0.20990  0.94280  Biso   1.000  H
  C9       1.0000 0.30530  0.88600  0.11490  Biso   1.000  C
  C10      1.0000 0.69470  0.11400  0.88510  Biso   1.000  C
  C11      1.0000 0.53090  0.03440  0.93000  Biso   1.000  C
  C12      1.0000 0.46910  0.96560  0.07000  Biso   1.000  C
  C13      1.0000 0.19020  0.85640  0.25530  Biso   1.000  C
  C14      1.0000 0.80980  0.14360  0.74470  Biso   1.000  C
  O5       1.0000 0.15170  0.98720  0.30410  Biso   1.000  O
  O6       1.0000 0.84830  0.01280  0.69590  Biso   1.000  O
  O7       1.0000 0.13030  0.71580  0.30870  Biso   1.000  O
  O8       1.0000 0.86970  0.28420  0.69130  Biso   1.000  O
  O9       1.0000 0.44580  0.40460  0.24280  Biso   1.000  O
  O10      1.0000 0.55420  0.59540  0.75720  Biso   1.000  O
  H5       1.0000 0.55940  0.44200  0.19140  Biso   1.000  H
  H6       1.0000 0.44060  0.55800  0.80860  Biso   1.000  H
  H7       1.0000 0.36360  0.52470  0.23970  Biso   1.000  H
  H8       1.0000 0.63640  0.47530  0.76030  Biso   1.000  H
  O11      1.0000 0.72460  0.24190  0.42420  Biso   1.000  O
  O12      1.0000 0.27540  0.75810  0.57580  Biso   1.000  O
  H9       1.0000 0.77340  0.17250  0.50550  Biso   1.000  H
  H10      1.0000 0.22660  0.82750  0.49450  Biso   1.000  H
  H11      1.0000 0.81550  0.22350  0.34800  Biso   1.000  H
  H12      1.0000 0.18450  0.77650  0.65200  Biso   1.000  H
  O13      1.0000 0.16440  0.27200  0.44570  Biso   1.000  O
  O14      1.0000 0.83560  0.72800  0.55430  Biso   1.000  O
  H13      1.0000 0.09550  0.23860  0.53340  Biso   1.000  H
  H14      1.0000 0.90450  0.76140  0.46660  Biso   1.000  H
  H15      1.0000 0.11360  0.38790  0.38500  Biso   1.000  H
  H16      1.0000 0.88640  0.61210  0.61500  Biso   1.000  H
  O15      1.0000 0.16760  0.32600  0.13300  Biso   1.000  O
  O16      1.0000 0.83240  0.67400  0.86700  Biso   1.000  O
  H17      1.0000 0.05710  0.42240  0.14840  Biso   1.000  H
  H18      1.0000 0.94290  0.57760  0.85160  Biso   1.000  H
  H19      1.0000 0.16580  0.20380  0.18500  Biso   1.000  H
  H20      1.0000 0.83420  0.79620  0.81500  Biso   1.000  H
  O17      1.0000 0.80120  0.54720  0.13450  Biso   1.000  O
  O18      1.0000 0.19880  0.45280  0.86550  Biso   1.000  O
  H21      1.0000 0.72640  0.61230  0.19530  Biso   1.000  H
  H22      1.0000 0.27360  0.38770  0.80470  Biso   1.000  H
  H23      1.0000 0.81100  0.61510  0.04310  Biso   1.000  H
  H24      1.0000 0.18900  0.38490  0.95690  Biso   1.000  H
