data_image0
_cell_length_a       7.3697
_cell_length_b       8.6305
_cell_length_c       9.7369
_cell_angle_alpha    83.6472
_cell_angle_beta     76.7314
_cell_angle_gamma    78.0218

_symmetry_space_group_name_H-M    "P 1"
_symmetry_int_tables_number       1

loop_
  _symmetry_equiv_pos_as_xyz
  'x, y, z'

loop_
  _atom_site_label
  _atom_site_occupancy
  _atom_site_fract_x
  _atom_site_fract_y
  _atom_site_fract_z
  _atom_site_thermal_displace_type
  _atom_site_B_iso_or_equiv
  _atom_site_type_symbol
  Cu1      1.0000 0.71071  0.70692  0.41837  Biso   1.000  Cu
  Cu2      1.0000 0.28929  0.29308  0.58163  Biso   1.000  Cu
  O1       1.0000 0.79110  0.45900  0.33390  Biso   1.000  O
  O2       1.0000 0.20890  0.54100  0.66610  Biso   1.000  O
  C1       1.0000 0.73790  0.39140  0.24660  Biso   1.000  C
  C2       1.0000 0.26210  0.60860  0.75340  Biso   1.000  C
  O3       1.0000 0.75420  0.24230  0.24560  Biso   1.000  O
  O4       1.0000 0.24580  0.75770  0.75440  Biso   1.000  O
  C3       1.0000 0.66590  0.48990  0.12450  Biso   1.000  C
  C4       1.0000 0.33410  0.51010  0.87550  Biso   1.000  C
  C5       1.0000 0.51230  0.46210  0.06830  Biso   1.000  C
  C6       1.0000 0.48770  0.53790  0.93170  Biso   1.000  C
  C7       1.0000 0.77810  0.59500  0.05410  Biso   1.000  C
  C8       1.0000 0.22190  0.40500  0.94590  Biso   1.000  C
  H1       1.0000 0.87340  0.61800  0.09560  Biso   1.000  H
  H2       1.0000 0.12660  0.38200  0.90440  Biso   1.000  H
  C9       1.0000 0.75430  0.66900  0.92160  Biso   1.000  C
  C10      1.0000 0.24570  0.33100  0.07840  Biso   1.000  C
  H3       1.0000 0.83310  0.74160  0.87510  Biso   1.000  H
  H4       1.0000 0.16690  0.25840  0.12490  Biso   1.000  H
  C11      1.0000 0.38260  0.36270  0.14150  Biso   1.000  C
  C12      1.0000 0.61740  0.63730  0.85850  Biso   1.000  C
  C13      1.0000 0.36610  0.29930  0.29340  Biso   1.000  C
  C14      1.0000 0.63390  0.70070  0.70660  Biso   1.000  C
  O5       1.0000 0.34740  0.40140  0.38420  Biso   1.000  O
  O6       1.0000 0.65260  0.59860  0.61580  Biso   1.000  O
  O7       1.0000 0.35410  0.15680  0.32610  Biso   1.000  O
  O8       1.0000 0.64590  0.84320  0.67390  Biso   1.000  O
  O9       1.0000 0.98610  0.68970  0.42600  Biso   1.000  O
  O10      1.0000 0.01390  0.31030  0.57400  Biso   1.000  O
  H5       1.0000 0.01430  0.79840  0.40400  Biso   1.000  H
  H6       1.0000 0.98570  0.20160  0.59600  Biso   1.000  H
  H7       1.0000 0.00520  0.64000  0.52160  Biso   1.000  H
  H8       1.0000 0.99480  0.36000  0.47840  Biso   1.000  H
  O11      1.0000 0.43580  0.72860  0.41480  Biso   1.000  O
  O12      1.0000 0.56420  0.27140  0.58520  Biso   1.000  O
  H9       1.0000 0.40680  0.61470  0.41700  Biso   1.000  H
  H10      1.0000 0.59320  0.38530  0.58300  Biso   1.000  H
  H11      1.0000 0.40950  0.78470  0.32050  Biso   1.000  H
  H12      1.0000 0.59050  0.21530  0.67950  Biso   1.000  H
  O13      1.0000 0.74030  0.87570  0.25760  Biso   1.000  O
  O14      1.0000 0.25970  0.12430  0.74240  Biso   1.000  O
  H13      1.0000 0.87580  0.85730  0.19990  Biso   1.000  H
  H14      1.0000 0.12420  0.14270  0.80010  Biso   1.000  H
  H15      1.0000 0.65840  0.86620  0.18820  Biso   1.000  H
  H16      1.0000 0.34160  0.13380  0.81180  Biso   1.000  H
  O15      1.0000 0.11220  0.85740  0.03230  Biso   1.000  O
  O16      1.0000 0.88780  0.14260  0.96770  Biso   1.000  O
  H17      1.0000 0.15630  0.81640  0.94280  Biso   1.000  H
  H18      1.0000 0.84370  0.18360  0.05720  Biso   1.000  H
  H19      1.0000 0.18830  0.88730  0.08630  Biso   1.000  H
  H20      1.0000 0.81170  0.11270  0.91370  Biso   1.000  H
  O17      1.0000 0.40330  0.93710  0.12620  Biso   1.000  O
  O18      1.0000 0.59670  0.06290  0.87380  Biso   1.000  O
  H21      1.0000 0.36890  0.02130  0.19140  Biso   1.000  H
  H22      1.0000 0.63110  0.97870  0.80860  Biso   1.000  H
  H23      1.0000 0.46790  0.98990  0.03530  Biso   1.000  H
  H24      1.0000 0.53210  0.01010  0.96470  Biso   1.000  H
  O19      1.0000 0.01910  0.03080  0.35770  Biso   1.000  O
  O20      1.0000 0.98090  0.96920  0.64230  Biso   1.000  O
  H25      1.0000 0.91550  0.11260  0.33770  Biso   1.000  H
  H26      1.0000 0.08450  0.88740  0.66230  Biso   1.000  H
  H27      1.0000 0.12430  0.07980  0.36490  Biso   1.000  H
  H28      1.0000 0.87570  0.92020  0.63510  Biso   1.000  H
