data_image0
_cell_length_a       21.5103
_cell_length_b       8.7883
_cell_length_c       9.9195
_cell_angle_alpha    90
_cell_angle_beta     101.746
_cell_angle_gamma    90

_symmetry_space_group_name_H-M    "P 1"
_symmetry_int_tables_number       1

loop_
  _symmetry_equiv_pos_as_xyz
  'x, y, z'

loop_
  _atom_site_label
  _atom_site_occupancy
  _atom_site_fract_x
  _atom_site_fract_y
  _atom_site_fract_z
  _atom_site_thermal_displace_type
  _atom_site_B_iso_or_equiv
  _atom_site_type_symbol
  C1       1.0000 0.18470  0.21524  0.48486  Biso   1.000  C
  C2       1.0000 0.81530  0.71524  0.01514  Biso   1.000  C
  C3       1.0000 0.81530  0.78476  0.51514  Biso   1.000  C
  C4       1.0000 0.18470  0.28476  0.98486  Biso   1.000  C
  C5       1.0000 0.11109  0.14121  0.61210  Biso   1.000  C
  C6       1.0000 0.88891  0.64121  0.88790  Biso   1.000  C
  C7       1.0000 0.88891  0.85879  0.38790  Biso   1.000  C
  C8       1.0000 0.11109  0.35879  0.11210  Biso   1.000  C
  C9       1.0000 0.06225  0.22363  0.52815  Biso   1.000  C
  C10      1.0000 0.93775  0.72363  0.97185  Biso   1.000  C
  C11      1.0000 0.93775  0.77637  0.47185  Biso   1.000  C
  C12      1.0000 0.06225  0.27637  0.02815  Biso   1.000  C
  H1       1.0000 0.07170  0.28680  0.45990  Biso   1.000  H
  H2       1.0000 0.92830  0.78680  0.04010  Biso   1.000  H
  H3       1.0000 0.92830  0.71320  0.54010  Biso   1.000  H
  H4       1.0000 0.07170  0.21320  0.95990  Biso   1.000  H
  C13      1.0000 0.99995  0.21245  0.54535  Biso   1.000  C
  C14      1.0000 0.00005  0.71245  0.95465  Biso   1.000  C
  C15      1.0000 0.00005  0.78755  0.45465  Biso   1.000  C
  C16      1.0000 0.99995  0.28755  0.04535  Biso   1.000  C
  H5       1.0000 0.96770  0.26730  0.48930  Biso   1.000  H
  H6       1.0000 0.03230  0.76730  0.01070  Biso   1.000  H
  H7       1.0000 0.03230  0.73270  0.51070  Biso   1.000  H
  H8       1.0000 0.96770  0.23270  0.98930  Biso   1.000  H
  C17      1.0000 0.98675  0.11790  0.64786  Biso   1.000  C
  C18      1.0000 0.01325  0.61790  0.85214  Biso   1.000  C
  C19      1.0000 0.01325  0.88210  0.35214  Biso   1.000  C
  C20      1.0000 0.98675  0.38210  0.14786  Biso   1.000  C
  C21      1.0000 0.03397  0.03173  0.73088  Biso   1.000  C
  C22      1.0000 0.96603  0.53173  0.76912  Biso   1.000  C
  C23      1.0000 0.96603  0.96827  0.26912  Biso   1.000  C
  C24      1.0000 0.03397  0.46827  0.23088  Biso   1.000  C
  H9       1.0000 0.02390  0.96750  0.79780  Biso   1.000  H
  H10      1.0000 0.97610  0.46750  0.70220  Biso   1.000  H
  H11      1.0000 0.97610  0.03250  0.20220  Biso   1.000  H
  H12      1.0000 0.02390  0.53250  0.29780  Biso   1.000  H
  C25      1.0000 0.09602  0.04278  0.71271  Biso   1.000  C
  C26      1.0000 0.90398  0.54278  0.78729  Biso   1.000  C
  C27      1.0000 0.90398  0.95722  0.28729  Biso   1.000  C
  C28      1.0000 0.09602  0.45722  0.21271  Biso   1.000  C
  H13      1.0000 0.12780  0.98500  0.76710  Biso   1.000  H
  H14      1.0000 0.87220  0.48500  0.73290  Biso   1.000  H
  H15      1.0000 0.87220  0.01500  0.23290  Biso   1.000  H
  H16      1.0000 0.12780  0.51500  0.26710  Biso   1.000  H
  C29      1.0000 0.31962  0.25907  0.03158  Biso   1.000  C
  C30      1.0000 0.68038  0.75907  0.46842  Biso   1.000  C
  C31      1.0000 0.68038  0.74093  0.96842  Biso   1.000  C
  C32      1.0000 0.31962  0.24093  0.53158  Biso   1.000  C
  C33      1.0000 0.39374  0.17431  0.90993  Biso   1.000  C
  C34      1.0000 0.60626  0.67431  0.59007  Biso   1.000  C
  C35      1.0000 0.60626  0.82569  0.09007  Biso   1.000  C
  C36      1.0000 0.39374  0.32569  0.40993  Biso   1.000  C
  C37      1.0000 0.41040  0.05283  0.83254  Biso   1.000  C
  C38      1.0000 0.58960  0.55283  0.66746  Biso   1.000  C
  C39      1.0000 0.58960  0.94717  0.16746  Biso   1.000  C
  C40      1.0000 0.41040  0.44717  0.33254  Biso   1.000  C
  H17      1.0000 0.37990  0.98220  0.79320  Biso   1.000  H
  H18      1.0000 0.62010  0.48220  0.70680  Biso   1.000  H
  H19      1.0000 0.62010  0.01780  0.20680  Biso   1.000  H
  H20      1.0000 0.37990  0.51780  0.29320  Biso   1.000  H
  C41      1.0000 0.47252  0.03814  0.81480  Biso   1.000  C
  C42      1.0000 0.52748  0.53814  0.68520  Biso   1.000  C
  C43      1.0000 0.52748  0.96186  0.18520  Biso   1.000  C
  C44      1.0000 0.47252  0.46186  0.31480  Biso   1.000  C
  H21      1.0000 0.48390  0.95810  0.76340  Biso   1.000  H
  H22      1.0000 0.51610  0.45810  0.73660  Biso   1.000  H
  H23      1.0000 0.51610  0.04190  0.23660  Biso   1.000  H
  H24      1.0000 0.48390  0.54190  0.26340  Biso   1.000  H
  C45      1.0000 0.51748  0.14490  0.87497  Biso   1.000  C
  C46      1.0000 0.48252  0.64490  0.62503  Biso   1.000  C
  C47      1.0000 0.48252  0.85510  0.12503  Biso   1.000  C
  C48      1.0000 0.51748  0.35510  0.37497  Biso   1.000  C
  C49      1.0000 0.50288  0.26310  0.95631  Biso   1.000  C
  C50      1.0000 0.49712  0.76310  0.54369  Biso   1.000  C
  C51      1.0000 0.49712  0.73690  0.04369  Biso   1.000  C
  C52      1.0000 0.50288  0.23690  0.45631  Biso   1.000  C
  H25      1.0000 0.53400  0.33120  0.99820  Biso   1.000  H
  H26      1.0000 0.46600  0.83120  0.50180  Biso   1.000  H
  H27      1.0000 0.46600  0.66880  0.00180  Biso   1.000  H
  H28      1.0000 0.53400  0.16880  0.49820  Biso   1.000  H
  C53      1.0000 0.44059  0.27703  0.97349  Biso   1.000  C
  C54      1.0000 0.55941  0.77703  0.52651  Biso   1.000  C
  C55      1.0000 0.55941  0.72297  0.02651  Biso   1.000  C
  C56      1.0000 0.44059  0.22297  0.47349  Biso   1.000  C
  H29      1.0000 0.42990  0.35520  0.02770  Biso   1.000  H
  H30      1.0000 0.57010  0.85520  0.47230  Biso   1.000  H
  H31      1.0000 0.57010  0.64480  0.97230  Biso   1.000  H
  H32      1.0000 0.42990  0.14480  0.52770  Biso   1.000  H
  C57      1.0000 0.23643  0.68081  0.20530  Biso   1.000  C
  C58      1.0000 0.76357  0.18081  0.29470  Biso   1.000  C
  C59      1.0000 0.76357  0.31919  0.79470  Biso   1.000  C
  C60      1.0000 0.23643  0.81919  0.70530  Biso   1.000  C
  H33      1.0000 0.21620  0.64690  0.11870  Biso   1.000  H
  H34      1.0000 0.78380  0.14690  0.38130  Biso   1.000  H
  H35      1.0000 0.78380  0.35310  0.88130  Biso   1.000  H
  H36      1.0000 0.21620  0.85310  0.61870  Biso   1.000  H
  C61      1.0000 0.27640  0.89140  0.35538  Biso   1.000  C
  C62      1.0000 0.72360  0.39140  0.14462  Biso   1.000  C
  C63      1.0000 0.72360  0.10860  0.64462  Biso   1.000  C
  C64      1.0000 0.27640  0.60860  0.85538  Biso   1.000  C
  H37      1.0000 0.24710  0.95440  0.39140  Biso   1.000  H
  H38      1.0000 0.75290  0.45440  0.10860  Biso   1.000  H
  H39      1.0000 0.75290  0.04560  0.60860  Biso   1.000  H
  H40      1.0000 0.24710  0.54560  0.89140  Biso   1.000  H
  H41      1.0000 0.29070  0.81010  0.41870  Biso   1.000  H
  H42      1.0000 0.70930  0.31010  0.08130  Biso   1.000  H
  H43      1.0000 0.70930  0.18990  0.58130  Biso   1.000  H
  H44      1.0000 0.29070  0.68990  0.91870  Biso   1.000  H
  H45      1.0000 0.31210  0.95140  0.34310  Biso   1.000  H
  H46      1.0000 0.68790  0.45140  0.15690  Biso   1.000  H
  H47      1.0000 0.68790  0.04860  0.65690  Biso   1.000  H
  H48      1.0000 0.31210  0.54860  0.84310  Biso   1.000  H
  C65      1.0000 0.22428  0.93600  0.11151  Biso   1.000  C
  C66      1.0000 0.77572  0.43600  0.38849  Biso   1.000  C
  C67      1.0000 0.77572  0.06400  0.88849  Biso   1.000  C
  C68      1.0000 0.22428  0.56400  0.61151  Biso   1.000  C
  H49      1.0000 0.19500  0.00730  0.13750  Biso   1.000  H
  H50      1.0000 0.80500  0.50730  0.36250  Biso   1.000  H
  H51      1.0000 0.80500  0.99270  0.86250  Biso   1.000  H
  H52      1.0000 0.19500  0.49270  0.63750  Biso   1.000  H
  H53      1.0000 0.26050  0.98960  0.09280  Biso   1.000  H
  H54      1.0000 0.73950  0.48960  0.40720  Biso   1.000  H
  H55      1.0000 0.73950  0.01040  0.90720  Biso   1.000  H
  H56      1.0000 0.26050  0.51040  0.59280  Biso   1.000  H
  H57      1.0000 0.20380  0.88200  0.03050  Biso   1.000  H
  H58      1.0000 0.79620  0.38200  0.46950  Biso   1.000  H
  H59      1.0000 0.79620  0.11800  0.96950  Biso   1.000  H
  H60      1.0000 0.20380  0.61800  0.53050  Biso   1.000  H
  N1       1.0000 0.19773  0.26791  0.38708  Biso   1.000  N
  N2       1.0000 0.80227  0.76791  0.11292  Biso   1.000  N
  N3       1.0000 0.80227  0.73209  0.61292  Biso   1.000  N
  N4       1.0000 0.19773  0.23209  0.88708  Biso   1.000  N
  N5       1.0000 0.17467  0.15392  0.59891  Biso   1.000  N
  N6       1.0000 0.82533  0.65392  0.90109  Biso   1.000  N
  N7       1.0000 0.82533  0.84608  0.40109  Biso   1.000  N
  N8       1.0000 0.17467  0.34608  0.09891  Biso   1.000  N
  N9       1.0000 0.92187  0.10950  0.67009  Biso   1.000  N
  N10      1.0000 0.07813  0.60950  0.82991  Biso   1.000  N
  N11      1.0000 0.07813  0.89050  0.32991  Biso   1.000  N
  N12      1.0000 0.92187  0.39050  0.17009  Biso   1.000  N
  N13      1.0000 0.30602  0.31817  0.12639  Biso   1.000  N
  N14      1.0000 0.69398  0.81817  0.37361  Biso   1.000  N
  N15      1.0000 0.69398  0.68183  0.87361  Biso   1.000  N
  N16      1.0000 0.30602  0.18183  0.62639  Biso   1.000  N
  N17      1.0000 0.32972  0.19134  0.92140  Biso   1.000  N
  N18      1.0000 0.67028  0.69134  0.57860  Biso   1.000  N
  N19      1.0000 0.67028  0.80866  0.07860  Biso   1.000  N
  N20      1.0000 0.32972  0.30866  0.42140  Biso   1.000  N
  N21      1.0000 0.58231  0.13180  0.85134  Biso   1.000  N
  N22      1.0000 0.41769  0.63180  0.64866  Biso   1.000  N
  N23      1.0000 0.41769  0.86820  0.14866  Biso   1.000  N
  N24      1.0000 0.58231  0.36820  0.35134  Biso   1.000  N
  N25      1.0000 0.24485  0.82833  0.22334  Biso   1.000  N
  N26      1.0000 0.75515  0.32833  0.27666  Biso   1.000  N
  N27      1.0000 0.75515  0.17167  0.77666  Biso   1.000  N
  N28      1.0000 0.24485  0.67167  0.72334  Biso   1.000  N
  Cu1      1.0000 0.25243  0.34210  0.26349  Biso   1.000  Cu
  Cu2      1.0000 0.74757  0.84210  0.23651  Biso   1.000  Cu
  Cu3      1.0000 0.74757  0.65790  0.73651  Biso   1.000  Cu
  Cu4      1.0000 0.25243  0.15790  0.76349  Biso   1.000  Cu
  O1       1.0000 0.88076  0.18630  0.59671  Biso   1.000  O
  O2       1.0000 0.11924  0.68630  0.90329  Biso   1.000  O
  O3       1.0000 0.11924  0.81370  0.40329  Biso   1.000  O
  O4       1.0000 0.88076  0.31370  0.09671  Biso   1.000  O
  O5       1.0000 0.91126  0.02690  0.76220  Biso   1.000  O
  O6       1.0000 0.08874  0.52690  0.73780  Biso   1.000  O
  O7       1.0000 0.08874  0.97310  0.23780  Biso   1.000  O
  O8       1.0000 0.91126  0.47310  0.26220  Biso   1.000  O
  O9       1.0000 0.61904  0.23800  0.88752  Biso   1.000  O
  O10      1.0000 0.38096  0.73800  0.61248  Biso   1.000  O
  O11      1.0000 0.38096  0.76200  0.11248  Biso   1.000  O
  O12      1.0000 0.61904  0.26200  0.38752  Biso   1.000  O
  O13      1.0000 0.59667  0.01610  0.79478  Biso   1.000  O
  O14      1.0000 0.40333  0.51610  0.70522  Biso   1.000  O
  O15      1.0000 0.40333  0.98390  0.20522  Biso   1.000  O
  O16      1.0000 0.59667  0.48390  0.29478  Biso   1.000  O
  O17      1.0000 0.25389  0.58324  0.29693  Biso   1.000  O
  O18      1.0000 0.74611  0.08324  0.20307  Biso   1.000  O
  O19      1.0000 0.74611  0.41676  0.70307  Biso   1.000  O
  O20      1.0000 0.25389  0.91676  0.79693  Biso   1.000  O
