data_image0
_cell_length_a       7.977
_cell_length_b       8.656
_cell_length_c       11.807
_cell_angle_alpha    69.06
_cell_angle_beta     86.07
_cell_angle_gamma    67.36

_symmetry_space_group_name_H-M    "P 1"
_symmetry_int_tables_number       1

loop_
  _symmetry_equiv_pos_as_xyz
  'x, y, z'

loop_
  _atom_site_label
  _atom_site_occupancy
  _atom_site_fract_x
  _atom_site_fract_y
  _atom_site_fract_z
  _atom_site_thermal_displace_type
  _atom_site_B_iso_or_equiv
  _atom_site_type_symbol
  Cu1      1.0000 0.93060  0.00090  0.23210  Biso   1.000  Cu
  Cu2      1.0000 0.06940  0.99910  0.76790  Biso   1.000  Cu
  O1       1.0000 0.75550  0.88080  0.25530  Biso   1.000  O
  O2       1.0000 0.24450  0.11920  0.74470  Biso   1.000  O
  O3       1.0000 0.59760  0.08390  0.33610  Biso   1.000  O
  O4       1.0000 0.40240  0.91610  0.66390  Biso   1.000  O
  O5       1.0000 0.82780  0.14290  0.05940  Biso   1.000  O
  O6       1.0000 0.17220  0.85710  0.94060  Biso   1.000  O
  O7       1.0000 0.12810  0.83500  0.13260  Biso   1.000  O
  O8       1.0000 0.87190  0.16500  0.86740  Biso   1.000  O
  O9       1.0000 0.42800  0.49970  0.27120  Biso   1.000  O
  O10      1.0000 0.57200  0.50030  0.72880  Biso   1.000  O
  O11      1.0000 0.32830  0.14560  0.96820  Biso   1.000  O
  O12      1.0000 0.67170  0.85440  0.03180  Biso   1.000  O
  O13      1.0000 0.48230  0.38270  0.96250  Biso   1.000  O
  O14      1.0000 0.51770  0.61730  0.03750  Biso   1.000  O
  N1       1.0000 0.26790  0.71300  0.54620  Biso   1.000  N
  N2       1.0000 0.73210  0.28700  0.45380  Biso   1.000  N
  N3       1.0000 0.06110  0.84440  0.39330  Biso   1.000  N
  N4       1.0000 0.93890  0.15560  0.60670  Biso   1.000  N
  N5       1.0000 0.03410  0.17670  0.22630  Biso   1.000  N
  N6       1.0000 0.96590  0.82330  0.77370  Biso   1.000  N
  N7       1.0000 0.21440  0.29640  0.25680  Biso   1.000  N
  N8       1.0000 0.78560  0.70360  0.74320  Biso   1.000  N
  C1       1.0000 0.61750  0.95620  0.30350  Biso   1.000  C
  C2       1.0000 0.38250  0.04380  0.69650  Biso   1.000  C
  C3       1.0000 0.47370  0.87540  0.32420  Biso   1.000  C
  C4       1.0000 0.52630  0.12460  0.67580  Biso   1.000  C
  C5       1.0000 0.30320  0.97170  0.38040  Biso   1.000  C
  C6       1.0000 0.69680  0.02830  0.61960  Biso   1.000  C
  C7       1.0000 0.20530  0.84950  0.43840  Biso   1.000  C
  C8       1.0000 0.79470  0.15050  0.56160  Biso   1.000  C
  C9       1.0000 0.15800  0.61830  0.57050  Biso   1.000  C
  C10      1.0000 0.84200  0.38170  0.42950  Biso   1.000  C
  C11      1.0000 0.02990  0.70020  0.47660  Biso   1.000  C
  C12      1.0000 0.97010  0.29980  0.52340  Biso   1.000  C
  C13      1.0000 0.18180  0.14520  0.28920  Biso   1.000  C
  C14      1.0000 0.81820  0.85480  0.71080  Biso   1.000  C
  C15      1.0000 0.97010  0.35640  0.15070  Biso   1.000  C
  C16      1.0000 0.02990  0.64360  0.84930  Biso   1.000  C
  C17      1.0000 0.08080  0.43020  0.16930  Biso   1.000  C
  C18      1.0000 0.91920  0.56980  0.83070  Biso   1.000  C
  C19      1.0000 0.91210  0.09010  0.97690  Biso   1.000  C
  C20      1.0000 0.08790  0.90990  0.02310  Biso   1.000  C
  H1       1.0000 0.37400  0.70000  0.57500  Biso   1.000  H
  H2       1.0000 0.62600  0.30000  0.42500  Biso   1.000  H
  H3       1.0000 0.31200  0.29900  0.27700  Biso   1.000  H
  H4       1.0000 0.68800  0.70100  0.72300  Biso   1.000  H
  H5       1.0000 0.44000  0.55700  0.17200  Biso   1.000  H
  H6       1.0000 0.56000  0.44300  0.82800  Biso   1.000  H
  H7       1.0000 0.34700  0.57300  0.28800  Biso   1.000  H
  H8       1.0000 0.65300  0.42700  0.71200  Biso   1.000  H
  H9       1.0000 0.36300  0.27600  0.92500  Biso   1.000  H
  H10      1.0000 0.63700  0.72400  0.07500  Biso   1.000  H
  H11      1.0000 0.24400  0.14900  0.89600  Biso   1.000  H
  H12      1.0000 0.75600  0.85100  0.10400  Biso   1.000  H
  H13      1.0000 0.41000  0.52200  0.94600  Biso   1.000  H
  H14      1.0000 0.59000  0.47800  0.05400  Biso   1.000  H
  H15      1.0000 0.63000  0.33000  0.96400  Biso   1.000  H
  H16      1.0000 0.37000  0.67000  0.03600  Biso   1.000  H
  H17      1.0000 0.52900  0.74400  0.37200  Biso   1.000  H
  H18      1.0000 0.47100  0.25600  0.62800  Biso   1.000  H
  H19      1.0000 0.43800  0.87100  0.24400  Biso   1.000  H
  H20      1.0000 0.56200  0.12900  0.75600  Biso   1.000  H
  H21      1.0000 0.33300  0.01100  0.44600  Biso   1.000  H
  H22      1.0000 0.66700  0.98900  0.55400  Biso   1.000  H
  H23      1.0000 0.17500  0.51600  0.65800  Biso   1.000  H
  H24      1.0000 0.82500  0.48400  0.34200  Biso   1.000  H
  H25      1.0000 0.91100  0.67500  0.46300  Biso   1.000  H
  H26      1.0000 0.08900  0.32500  0.53700  Biso   1.000  H
  H27      1.0000 0.83200  0.41100  0.12700  Biso   1.000  H
  H28      1.0000 0.16800  0.58900  0.87300  Biso   1.000  H
  H29      1.0000 0.06300  0.55000  0.13800  Biso   1.000  H
  H30      1.0000 0.93700  0.45000  0.86200  Biso   1.000  H
